MODEL 1
REMARK VINA RESULT:      -8.3      0.000      0.000
REMARK  11 active torsions:
REMARK  status: ('A' for Active; 'I' for Inactive)
REMARK    1  A    between atoms: C_6  and  C_7 
REMARK    2  A    between atoms: C_7  and  C_8 
REMARK       I    between atoms: C_8  and  N_9 
REMARK    3  A    between atoms: N_9  and  C_10 
REMARK    4  A    between atoms: C_10  and  C_11 
REMARK    5  A    between atoms: C_11  and  N_12 
REMARK    6  A    between atoms: C_17  and  C_18 
REMARK    7  A    between atoms: C_21  and  C_22 
REMARK    8  A    between atoms: C_29  and  C_30 
REMARK    9  A    between atoms: C_30  and  O_31 
REMARK   10  A    between atoms: O_31  and  C_32 
REMARK   11  A    between atoms: C_32  and  C_33 
ROOT
HETATM    1  C   UNL     1       5.775  28.842  52.608  1.00  0.00     0.071 C 
HETATM    2  C   UNL     1       6.309  28.384  53.940  1.00  0.00     0.048 C 
HETATM    3  N   UNL     1       7.704  28.340  54.011  1.00  0.00    -0.229 NA
HETATM    4  C   UNL     1       8.214  28.486  55.189  1.00  0.00     0.170 C 
HETATM    5  N   UNL     1       7.335  28.579  56.465  1.00  0.00    -0.319 N 
HETATM    6  C   UNL     1       7.799  29.483  57.253  1.00  0.00     0.011 C 
HETATM    7  C   UNL     1       6.138  27.729  56.333  1.00  0.00     0.166 C 
HETATM    8  S   UNL     1       9.844  28.933  55.538  1.00  0.00    -0.086 SA
HETATM    9  C   UNL     1       9.272  29.804  57.050  1.00  0.00     0.135 C 
HETATM   10  C   UNL     1       5.539  28.140  55.025  1.00  0.00     0.069 C 
ENDROOT
BRANCH   6  11
HETATM   11  C   UNL     1       6.888  30.248  58.166  1.00  0.00     0.156 C 
BRANCH  11  12
HETATM   12  C   UNL     1       7.731  31.077  59.120  1.00  0.00     0.223 C 
HETATM   13  N   UNL     1       8.071  30.486  60.308  1.00  0.00    -0.359 N 
HETATM   14  H   UNL     1       7.941  29.478  60.439  1.00  0.00     0.162 HD
HETATM   15  O   UNL     1       7.952  32.265  58.902  1.00  0.00    -0.273 OA
BRANCH  13  16
HETATM   16  C   UNL     1       8.461  31.249  61.503  1.00  0.00     0.150 C 
BRANCH  16  17
HETATM   17  C   UNL     1       7.536  31.156  62.742  1.00  0.00     0.253 C 
BRANCH  17  18
HETATM   18  N   UNL     1       6.941  32.488  63.155  1.00  0.00    -0.077 N 
HETATM   19  H   UNL     1       5.957  32.305  63.434  1.00  0.00     0.279 HD
HETATM   20  C   UNL     1       7.593  33.119  64.354  1.00  0.00     0.269 C 
HETATM   21  C   UNL     1       6.879  33.459  62.008  1.00  0.00     0.269 C 
ENDBRANCH  17  18
ENDBRANCH  16  17
ENDBRANCH  13  16
ENDBRANCH  11  12
ENDBRANCH   6  11
BRANCH   7  22
HETATM   22  C   UNL     1       6.614  26.266  56.406  1.00  0.00    -0.030 C 
HETATM   23  C   UNL     1       7.735  25.937  57.193  1.00  0.00     0.010 C 
HETATM   24  C   UNL     1       8.436  24.748  56.971  1.00  0.00     0.008 C 
HETATM   25  C   UNL     1       8.011  23.841  55.994  1.00  0.00    -0.055 C 
HETATM   26  C   UNL     1       6.792  24.080  55.352  1.00  0.00     0.008 C 
HETATM   27  C   UNL     1       6.093  25.270  55.564  1.00  0.00     0.010 C 
BRANCH  25  28
HETATM   28  C   UNL     1       8.909  22.683  55.587  1.00  0.00     0.010 C 
HETATM   29  C   UNL     1       8.648  21.416  56.398  1.00  0.00     0.015 C 
HETATM   30  C   UNL     1       8.767  22.406  54.084  1.00  0.00     0.015 C 
ENDBRANCH  25  28
ENDBRANCH   7  22
BRANCH  10  31
HETATM   31  C   UNL     1       4.173  28.648  55.160  1.00  0.00     0.294 C 
HETATM   32  O   UNL     1       3.422  28.587  54.193  1.00  0.00    -0.259 OA
BRANCH  31  33
HETATM   33  O   UNL     1       4.018  29.290  56.325  1.00  0.00    -0.313 OA
BRANCH  33  34
HETATM   34  C   UNL     1       3.156  30.440  56.293  1.00  0.00     0.217 C 
BRANCH  34  35
HETATM   35  C   UNL     1       3.674  31.488  57.235  1.00  0.00    -0.034 A 
HETATM   36  C   UNL     1       3.522  31.326  58.619  1.00  0.00     0.009 A 
HETATM   37  C   UNL     1       4.008  32.292  59.501  1.00  0.00     0.001 A 
HETATM   38  C   UNL     1       4.642  33.431  59.008  1.00  0.00     0.000 A 
HETATM   39  C   UNL     1       4.789  33.607  57.633  1.00  0.00     0.001 A 
HETATM   40  C   UNL     1       4.304  32.642  56.749  1.00  0.00     0.009 A 
ENDBRANCH  34  35
ENDBRANCH  33  34
ENDBRANCH  31  33
ENDBRANCH  10  31
TORSDOF 11
ENDMDL
MODEL 2
REMARK VINA RESULT:      -8.3      2.726      5.551
REMARK  11 active torsions:
REMARK  status: ('A' for Active; 'I' for Inactive)
REMARK    1  A    between atoms: C_6  and  C_7 
REMARK    2  A    between atoms: C_7  and  C_8 
REMARK       I    between atoms: C_8  and  N_9 
REMARK    3  A    between atoms: N_9  and  C_10 
REMARK    4  A    between atoms: C_10  and  C_11 
REMARK    5  A    between atoms: C_11  and  N_12 
REMARK    6  A    between atoms: C_17  and  C_18 
REMARK    7  A    between atoms: C_21  and  C_22 
REMARK    8  A    between atoms: C_29  and  C_30 
REMARK    9  A    between atoms: C_30  and  O_31 
REMARK   10  A    between atoms: O_31  and  C_32 
REMARK   11  A    between atoms: C_32  and  C_33 
ROOT
HETATM    1  C   UNL     1       6.379  28.864  51.569  1.00  0.00     0.071 C 
HETATM    2  C   UNL     1       6.617  28.021  52.795  1.00  0.00     0.048 C 
HETATM    3  N   UNL     1       7.762  28.371  53.515  1.00  0.00    -0.229 NA
HETATM    4  C   UNL     1       7.742  28.094  54.777  1.00  0.00     0.170 C 
HETATM    5  N   UNL     1       6.575  27.310  55.433  1.00  0.00    -0.319 N 
HETATM    6  C   UNL     1       6.280  27.831  56.570  1.00  0.00     0.011 C 
HETATM    7  C   UNL     1       6.036  26.304  54.499  1.00  0.00     0.166 C 
HETATM    8  S   UNL     1       8.760  28.794  55.982  1.00  0.00    -0.086 SA
HETATM    9  C   UNL     1       7.401  28.637  57.207  1.00  0.00     0.135 C 
HETATM   10  C   UNL     1       5.760  27.078  53.248  1.00  0.00     0.069 C 
ENDROOT
BRANCH   6  11
HETATM   11  C   UNL     1       4.881  27.765  57.107  1.00  0.00     0.156 C 
BRANCH  11  12
HETATM   12  C   UNL     1       4.275  29.157  57.075  1.00  0.00     0.223 C 
HETATM   13  N   UNL     1       4.350  29.884  58.233  1.00  0.00    -0.359 N 
HETATM   14  H   UNL     1       4.963  29.580  58.995  1.00  0.00     0.162 HD
HETATM   15  O   UNL     1       3.615  29.540  56.112  1.00  0.00    -0.273 OA
BRANCH  13  16
HETATM   16  C   UNL     1       3.452  31.010  58.535  1.00  0.00     0.150 C 
BRANCH  16  17
HETATM   17  C   UNL     1       4.063  32.233  59.262  1.00  0.00     0.253 C 
BRANCH  17  18
HETATM   18  N   UNL     1       5.036  31.858  60.363  1.00  0.00    -0.077 N 
HETATM   19  H   UNL     1       5.057  30.820  60.406  1.00  0.00     0.279 HD
HETATM   20  C   UNL     1       6.456  32.283  60.114  1.00  0.00     0.269 C 
HETATM   21  C   UNL     1       4.567  32.325  61.714  1.00  0.00     0.269 C 
ENDBRANCH  17  18
ENDBRANCH  16  17
ENDBRANCH  13  16
ENDBRANCH  11  12
ENDBRANCH   6  11
BRANCH   7  22
HETATM   22  C   UNL     1       7.099  25.199  54.364  1.00  0.00    -0.030 C 
HETATM   23  C   UNL     1       7.335  24.608  53.107  1.00  0.00     0.010 C 
HETATM   24  C   UNL     1       7.961  23.363  53.012  1.00  0.00     0.008 C 
HETATM   25  C   UNL     1       8.406  22.698  54.160  1.00  0.00    -0.055 C 
HETATM   26  C   UNL     1       8.344  23.372  55.384  1.00  0.00     0.008 C 
HETATM   27  C   UNL     1       7.712  24.614  55.485  1.00  0.00     0.010 C 
BRANCH  25  28
HETATM   28  C   UNL     1       8.853  21.247  54.076  1.00  0.00     0.010 C 
HETATM   29  C   UNL     1       8.535  20.453  55.342  1.00  0.00     0.015 C 
HETATM   30  C   UNL     1       8.238  20.573  52.842  1.00  0.00     0.015 C 
ENDBRANCH  25  28
ENDBRANCH   7  22
BRANCH  10  31
HETATM   31  C   UNL     1       4.353  27.026  52.846  1.00  0.00     0.294 C 
HETATM   32  O   UNL     1       3.556  27.784  53.387  1.00  0.00    -0.259 OA
BRANCH  31  33
HETATM   33  O   UNL     1       4.128  25.981  52.038  1.00  0.00    -0.313 OA
BRANCH  33  34
HETATM   34  C   UNL     1       4.991  25.884  50.893  1.00  0.00     0.217 C 
BRANCH  34  35
HETATM   35  C   UNL     1       4.221  26.223  49.649  1.00  0.00    -0.034 A 
HETATM   36  C   UNL     1       3.983  27.563  49.313  1.00  0.00     0.009 A 
HETATM   37  C   UNL     1       3.276  27.885  48.154  1.00  0.00     0.001 A 
HETATM   38  C   UNL     1       2.794  26.874  47.326  1.00  0.00     0.000 A 
HETATM   39  C   UNL     1       3.017  25.538  47.656  1.00  0.00     0.001 A 
HETATM   40  C   UNL     1       3.724  25.213  48.814  1.00  0.00     0.009 A 
ENDBRANCH  34  35
ENDBRANCH  33  34
ENDBRANCH  31  33
ENDBRANCH  10  31
TORSDOF 11
ENDMDL
MODEL 3
REMARK VINA RESULT:      -8.2      2.881      7.832
REMARK  11 active torsions:
REMARK  status: ('A' for Active; 'I' for Inactive)
REMARK    1  A    between atoms: C_6  and  C_7 
REMARK    2  A    between atoms: C_7  and  C_8 
REMARK       I    between atoms: C_8  and  N_9 
REMARK    3  A    between atoms: N_9  and  C_10 
REMARK    4  A    between atoms: C_10  and  C_11 
REMARK    5  A    between atoms: C_11  and  N_12 
REMARK    6  A    between atoms: C_17  and  C_18 
REMARK    7  A    between atoms: C_21  and  C_22 
REMARK    8  A    between atoms: C_29  and  C_30 
REMARK    9  A    between atoms: C_30  and  O_31 
REMARK   10  A    between atoms: O_31  and  C_32 
REMARK   11  A    between atoms: C_32  and  C_33 
ROOT
HETATM    1  C   UNL     1       9.626  29.360  55.526  1.00  0.00     0.071 C 
HETATM    2  C   UNL     1       8.184  28.949  55.373  1.00  0.00     0.048 C 
HETATM    3  N   UNL     1       7.822  28.613  54.066  1.00  0.00    -0.229 NA
HETATM    4  C   UNL     1       6.840  27.782  53.948  1.00  0.00     0.170 C 
HETATM    5  N   UNL     1       6.029  27.283  55.172  1.00  0.00    -0.319 N 
HETATM    6  C   UNL     1       5.786  26.025  55.055  1.00  0.00     0.011 C 
HETATM    7  C   UNL     1       5.913  28.345  56.187  1.00  0.00     0.166 C 
HETATM    8  S   UNL     1       6.473  26.842  52.548  1.00  0.00    -0.086 SA
HETATM    9  C   UNL     1       5.831  25.502  53.627  1.00  0.00     0.135 C 
HETATM   10  C   UNL     1       7.322  28.799  56.405  1.00  0.00     0.069 C 
ENDROOT
BRANCH   6  11
HETATM   11  C   UNL     1       5.642  25.153  56.267  1.00  0.00     0.156 C 
BRANCH  11  12
HETATM   12  C   UNL     1       6.897  24.313  56.421  1.00  0.00     0.223 C 
HETATM   13  N   UNL     1       7.023  23.240  55.579  1.00  0.00    -0.359 N 
HETATM   14  H   UNL     1       6.409  23.149  54.764  1.00  0.00     0.162 HD
HETATM   15  O   UNL     1       7.671  24.496  57.357  1.00  0.00    -0.273 OA
BRANCH  13  16
HETATM   16  C   UNL     1       7.890  22.088  55.870  1.00  0.00     0.150 C 
BRANCH  16  17
HETATM   17  C   UNL     1       9.183  21.939  55.030  1.00  0.00     0.253 C 
BRANCH  17  18
HETATM   18  N   UNL     1       8.923  21.679  53.560  1.00  0.00    -0.077 N 
HETATM   19  H   UNL     1       9.850  21.534  53.111  1.00  0.00     0.279 HD
HETATM   20  C   UNL     1       8.135  20.430  53.276  1.00  0.00     0.269 C 
HETATM   21  C   UNL     1       8.306  22.867  52.875  1.00  0.00     0.269 C 
ENDBRANCH  17  18
ENDBRANCH  16  17
ENDBRANCH  13  16
ENDBRANCH  11  12
ENDBRANCH   6  11
BRANCH   7  22
HETATM   22  C   UNL     1       4.961  29.413  55.615  1.00  0.00    -0.030 C 
HETATM   23  C   UNL     1       4.031  29.055  54.619  1.00  0.00     0.010 C 
HETATM   24  C   UNL     1       3.457  30.029  53.798  1.00  0.00     0.008 C 
HETATM   25  C   UNL     1       3.759  31.383  53.979  1.00  0.00    -0.055 C 
HETATM   26  C   UNL     1       4.529  31.749  55.088  1.00  0.00     0.008 C 
HETATM   27  C   UNL     1       5.112  30.779  55.906  1.00  0.00     0.010 C 
BRANCH  25  28
HETATM   28  C   UNL     1       3.335  32.405  52.936  1.00  0.00     0.010 C 
HETATM   29  C   UNL     1       2.797  33.695  53.553  1.00  0.00     0.015 C 
HETATM   30  C   UNL     1       4.499  32.703  51.981  1.00  0.00     0.015 C 
ENDBRANCH  25  28
ENDBRANCH   7  22
BRANCH  10  31
HETATM   31  C   UNL     1       7.763  28.639  57.791  1.00  0.00     0.294 C 
HETATM   32  O   UNL     1       8.064  27.520  58.189  1.00  0.00    -0.259 OA
BRANCH  31  33
HETATM   33  O   UNL     1       7.586  29.775  58.480  1.00  0.00    -0.313 OA
BRANCH  33  34
HETATM   34  C   UNL     1       8.739  30.257  59.190  1.00  0.00     0.217 C 
BRANCH  34  35
HETATM   35  C   UNL     1       8.303  31.146  60.320  1.00  0.00    -0.034 A 
HETATM   36  C   UNL     1       7.184  31.978  60.169  1.00  0.00     0.009 A 
HETATM   37  C   UNL     1       6.769  32.799  61.217  1.00  0.00     0.001 A 
HETATM   38  C   UNL     1       7.471  32.804  62.420  1.00  0.00     0.000 A 
HETATM   39  C   UNL     1       8.590  31.988  62.578  1.00  0.00     0.001 A 
HETATM   40  C   UNL     1       9.007  31.165  61.532  1.00  0.00     0.009 A 
ENDBRANCH  34  35
ENDBRANCH  33  34
ENDBRANCH  31  33
ENDBRANCH  10  31
TORSDOF 11
ENDMDL
MODEL 4
REMARK VINA RESULT:      -8.1      3.662      7.262
REMARK  11 active torsions:
REMARK  status: ('A' for Active; 'I' for Inactive)
REMARK    1  A    between atoms: C_6  and  C_7 
REMARK    2  A    between atoms: C_7  and  C_8 
REMARK       I    between atoms: C_8  and  N_9 
REMARK    3  A    between atoms: N_9  and  C_10 
REMARK    4  A    between atoms: C_10  and  C_11 
REMARK    5  A    between atoms: C_11  and  N_12 
REMARK    6  A    between atoms: C_17  and  C_18 
REMARK    7  A    between atoms: C_21  and  C_22 
REMARK    8  A    between atoms: C_29  and  C_30 
REMARK    9  A    between atoms: C_30  and  O_31 
REMARK   10  A    between atoms: O_31  and  C_32 
REMARK   11  A    between atoms: C_32  and  C_33 
ROOT
HETATM    1  C   UNL     1       4.920  32.735  54.400  1.00  0.00     0.071 C 
HETATM    2  C   UNL     1       4.712  33.214  55.813  1.00  0.00     0.048 C 
HETATM    3  N   UNL     1       5.200  34.500  56.057  1.00  0.00    -0.229 NA
HETATM    4  C   UNL     1       4.616  35.156  57.005  1.00  0.00     0.170 C 
HETATM    5  N   UNL     1       3.525  34.514  57.902  1.00  0.00    -0.319 N 
HETATM    6  C   UNL     1       2.571  35.354  58.103  1.00  0.00     0.011 C 
HETATM    7  C   UNL     1       3.811  33.086  58.128  1.00  0.00     0.166 C 
HETATM    8  S   UNL     1       4.664  36.866  57.231  1.00  0.00    -0.086 SA
HETATM    9  C   UNL     1       2.965  36.812  57.926  1.00  0.00     0.135 C 
HETATM   10  C   UNL     1       4.019  32.532  56.754  1.00  0.00     0.069 C 
ENDROOT
BRANCH   6  11
HETATM   11  C   UNL     1       1.165  34.883  58.324  1.00  0.00     0.156 C 
BRANCH  11  12
HETATM   12  C   UNL     1       0.782  35.140  59.771  1.00  0.00     0.223 C 
HETATM   13  N   UNL     1       1.751  34.910  60.711  1.00  0.00    -0.359 N 
HETATM   14  H   UNL     1       2.726  34.781  60.426  1.00  0.00     0.162 HD
HETATM   15  O   UNL     1      -0.381  35.381  60.086  1.00  0.00    -0.273 OA
BRANCH  13  16
HETATM   16  C   UNL     1       1.452  34.658  62.129  1.00  0.00     0.150 C 
BRANCH  16  17
HETATM   17  C   UNL     1       2.557  33.987  62.982  1.00  0.00     0.253 C 
BRANCH  17  18
HETATM   18  N   UNL     1       3.109  34.885  64.071  1.00  0.00    -0.077 N 
HETATM   19  H   UNL     1       2.316  35.113  64.704  1.00  0.00     0.279 HD
HETATM   20  C   UNL     1       4.151  34.242  64.944  1.00  0.00     0.269 C 
HETATM   21  C   UNL     1       3.603  36.197  63.527  1.00  0.00     0.269 C 
ENDBRANCH  17  18
ENDBRANCH  16  17
ENDBRANCH  13  16
ENDBRANCH  11  12
ENDBRANCH   6  11
BRANCH   7  22
HETATM   22  C   UNL     1       5.039  33.015  59.056  1.00  0.00    -0.030 C 
HETATM   23  C   UNL     1       6.105  32.151  58.735  1.00  0.00     0.010 C 
HETATM   24  C   UNL     1       7.015  31.749  59.716  1.00  0.00     0.008 C 
HETATM   25  C   UNL     1       6.912  32.232  61.025  1.00  0.00    -0.055 C 
HETATM   26  C   UNL     1       5.974  33.235  61.292  1.00  0.00     0.008 C 
HETATM   27  C   UNL     1       5.057  33.634  60.317  1.00  0.00     0.010 C 
BRANCH  25  28
HETATM   28  C   UNL     1       7.740  31.606  62.137  1.00  0.00     0.010 C 
HETATM   29  C   UNL     1       9.123  31.158  61.668  1.00  0.00     0.015 C 
HETATM   30  C   UNL     1       7.855  32.574  63.322  1.00  0.00     0.015 C 
ENDBRANCH  25  28
ENDBRANCH   7  22
BRANCH  10  31
HETATM   31  C   UNL     1       3.077  31.461  56.424  1.00  0.00     0.294 C 
HETATM   32  O   UNL     1       1.998  31.756  55.924  1.00  0.00    -0.259 OA
BRANCH  31  33
HETATM   33  O   UNL     1       3.503  30.288  56.913  1.00  0.00    -0.313 OA
BRANCH  33  34
HETATM   34  C   UNL     1       4.099  29.395  55.957  1.00  0.00     0.217 C 
BRANCH  34  35
HETATM   35  C   UNL     1       5.494  29.047  56.391  1.00  0.00    -0.034 A 
HETATM   36  C   UNL     1       5.724  27.901  57.164  1.00  0.00     0.009 A 
HETATM   37  C   UNL     1       7.018  27.567  57.563  1.00  0.00     0.001 A 
HETATM   38  C   UNL     1       8.092  28.378  57.201  1.00  0.00     0.000 A 
HETATM   39  C   UNL     1       7.873  29.525  56.441  1.00  0.00     0.001 A 
HETATM   40  C   UNL     1       6.580  29.862  56.040  1.00  0.00     0.009 A 
ENDBRANCH  34  35
ENDBRANCH  33  34
ENDBRANCH  31  33
ENDBRANCH  10  31
TORSDOF 11
ENDMDL
MODEL 5
REMARK VINA RESULT:      -8.0      1.610      2.216
REMARK  11 active torsions:
REMARK  status: ('A' for Active; 'I' for Inactive)
REMARK    1  A    between atoms: C_6  and  C_7 
REMARK    2  A    between atoms: C_7  and  C_8 
REMARK       I    between atoms: C_8  and  N_9 
REMARK    3  A    between atoms: N_9  and  C_10 
REMARK    4  A    between atoms: C_10  and  C_11 
REMARK    5  A    between atoms: C_11  and  N_12 
REMARK    6  A    between atoms: C_17  and  C_18 
REMARK    7  A    between atoms: C_21  and  C_22 
REMARK    8  A    between atoms: C_29  and  C_30 
REMARK    9  A    between atoms: C_30  and  O_31 
REMARK   10  A    between atoms: O_31  and  C_32 
REMARK   11  A    between atoms: C_32  and  C_33 
ROOT
HETATM    1  C   UNL     1       5.695  29.140  51.538  1.00  0.00     0.071 C 
HETATM    2  C   UNL     1       5.890  28.542  52.907  1.00  0.00     0.048 C 
HETATM    3  N   UNL     1       7.228  28.399  53.281  1.00  0.00    -0.229 NA
HETATM    4  C   UNL     1       7.464  28.415  54.551  1.00  0.00     0.170 C 
HETATM    5  N   UNL     1       6.325  28.464  55.603  1.00  0.00    -0.319 N 
HETATM    6  C   UNL     1       6.640  29.269  56.555  1.00  0.00     0.011 C 
HETATM    7  C   UNL     1       5.150  27.710  55.131  1.00  0.00     0.166 C 
HETATM    8  S   UNL     1       8.992  28.723  55.293  1.00  0.00    -0.086 SA
HETATM    9  C   UNL     1       8.134  29.506  56.714  1.00  0.00     0.135 C 
HETATM   10  C   UNL     1       4.883  28.263  53.766  1.00  0.00     0.069 C 
ENDROOT
BRANCH   6  11
HETATM   11  C   UNL     1       5.583  30.018  57.311  1.00  0.00     0.156 C 
BRANCH  11  12
HETATM   12  C   UNL     1       6.228  31.193  58.024  1.00  0.00     0.223 C 
HETATM   13  N   UNL     1       6.724  30.951  59.278  1.00  0.00    -0.359 N 
HETATM   14  H   UNL     1       6.838  29.990  59.611  1.00  0.00     0.162 HD
HETATM   15  O   UNL     1       6.159  32.331  57.564  1.00  0.00    -0.273 OA
BRANCH  13  16
HETATM   16  C   UNL     1       6.951  32.012  60.271  1.00  0.00     0.150 C 
BRANCH  16  17
HETATM   17  C   UNL     1       8.417  32.418  60.559  1.00  0.00     0.253 C 
BRANCH  17  18
HETATM   18  N   UNL     1       8.942  31.893  61.880  1.00  0.00    -0.077 N 
HETATM   19  H   UNL     1       9.821  32.412  62.083  1.00  0.00     0.279 HD
HETATM   20  C   UNL     1       8.041  32.148  63.057  1.00  0.00     0.269 C 
HETATM   21  C   UNL     1       9.320  30.440  61.801  1.00  0.00     0.269 C 
ENDBRANCH  17  18
ENDBRANCH  16  17
ENDBRANCH  13  16
ENDBRANCH  11  12
ENDBRANCH   6  11
BRANCH   7  22
HETATM   22  C   UNL     1       5.527  26.218  55.171  1.00  0.00    -0.030 C 
HETATM   23  C   UNL     1       6.210  25.701  56.289  1.00  0.00     0.010 C 
HETATM   24  C   UNL     1       6.919  24.501  56.199  1.00  0.00     0.008 C 
HETATM   25  C   UNL     1       6.928  23.765  55.009  1.00  0.00    -0.055 C 
HETATM   26  C   UNL     1       6.094  24.180  53.965  1.00  0.00     0.008 C 
HETATM   27  C   UNL     1       5.390  25.384  54.048  1.00  0.00     0.010 C 
BRANCH  25  28
HETATM   28  C   UNL     1       7.894  22.603  54.837  1.00  0.00     0.010 C 
HETATM   29  C   UNL     1       8.360  22.428  53.393  1.00  0.00     0.015 C 
HETATM   30  C   UNL     1       9.093  22.767  55.780  1.00  0.00     0.015 C 
ENDBRANCH  25  28
ENDBRANCH   7  22
BRANCH  10  31
HETATM   31  C   UNL     1       3.548  28.850  53.641  1.00  0.00     0.294 C 
HETATM   32  O   UNL     1       2.771  28.380  52.818  1.00  0.00    -0.259 OA
BRANCH  31  33
HETATM   33  O   UNL     1       3.454  29.975  54.362  1.00  0.00    -0.313 OA
BRANCH  33  34
HETATM   34  C   UNL     1       3.449  31.199  53.608  1.00  0.00     0.217 C 
BRANCH  34  35
HETATM   35  C   UNL     1       3.633  32.366  54.534  1.00  0.00    -0.034 A 
HETATM   36  C   UNL     1       4.592  33.348  54.247  1.00  0.00     0.009 A 
HETATM   37  C   UNL     1       4.762  34.439  55.099  1.00  0.00     0.001 A 
HETATM   38  C   UNL     1       3.984  34.555  56.249  1.00  0.00     0.000 A 
HETATM   39  C   UNL     1       3.036  33.580  56.549  1.00  0.00     0.001 A 
HETATM   40  C   UNL     1       2.862  32.488  55.699  1.00  0.00     0.009 A 
ENDBRANCH  34  35
ENDBRANCH  33  34
ENDBRANCH  31  33
ENDBRANCH  10  31
TORSDOF 11
ENDMDL
MODEL 6
REMARK VINA RESULT:      -8.0      2.516      5.137
REMARK  11 active torsions:
REMARK  status: ('A' for Active; 'I' for Inactive)
REMARK    1  A    between atoms: C_6  and  C_7 
REMARK    2  A    between atoms: C_7  and  C_8 
REMARK       I    between atoms: C_8  and  N_9 
REMARK    3  A    between atoms: N_9  and  C_10 
REMARK    4  A    between atoms: C_10  and  C_11 
REMARK    5  A    between atoms: C_11  and  N_12 
REMARK    6  A    between atoms: C_17  and  C_18 
REMARK    7  A    between atoms: C_21  and  C_22 
REMARK    8  A    between atoms: C_29  and  C_30 
REMARK    9  A    between atoms: C_30  and  O_31 
REMARK   10  A    between atoms: O_31  and  C_32 
REMARK   11  A    between atoms: C_32  and  C_33 
ROOT
HETATM    1  C   UNL     1       6.044  29.479  51.315  1.00  0.00     0.071 C 
HETATM    2  C   UNL     1       5.985  28.646  52.569  1.00  0.00     0.048 C 
HETATM    3  N   UNL     1       7.202  28.551  53.249  1.00  0.00    -0.229 NA
HETATM    4  C   UNL     1       7.122  28.341  54.521  1.00  0.00     0.170 C 
HETATM    5  N   UNL     1       5.768  28.083  55.233  1.00  0.00    -0.319 N 
HETATM    6  C   UNL     1       5.734  28.711  56.355  1.00  0.00     0.011 C 
HETATM    7  C   UNL     1       4.853  27.333  54.353  1.00  0.00     0.166 C 
HETATM    8  S   UNL     1       8.372  28.632  55.675  1.00  0.00    -0.086 SA
HETATM    9  C   UNL     1       7.101  29.044  56.934  1.00  0.00     0.135 C 
HETATM   10  C   UNL     1       4.849  28.116  53.078  1.00  0.00     0.069 C 
ENDROOT
BRANCH   6  11
HETATM   11  C   UNL     1       4.436  29.201  56.923  1.00  0.00     0.156 C 
BRANCH  11  12
HETATM   12  C   UNL     1       4.637  30.604  57.469  1.00  0.00     0.223 C 
HETATM   13  N   UNL     1       4.419  30.776  58.810  1.00  0.00    -0.359 N 
HETATM   14  H   UNL     1       4.337  29.964  59.428  1.00  0.00     0.162 HD
HETATM   15  O   UNL     1       4.824  31.557  56.716  1.00  0.00    -0.273 OA
BRANCH  13  16
HETATM   16  C   UNL     1       4.115  32.082  59.414  1.00  0.00     0.150 C 
BRANCH  16  17
HETATM   17  C   UNL     1       5.222  32.747  60.270  1.00  0.00     0.253 C 
BRANCH  17  18
HETATM   18  N   UNL     1       6.376  31.819  60.593  1.00  0.00    -0.077 N 
HETATM   19  H   UNL     1       6.057  30.854  60.372  1.00  0.00     0.279 HD
HETATM   20  C   UNL     1       7.608  32.039  59.759  1.00  0.00     0.269 C 
HETATM   21  C   UNL     1       6.715  31.826  62.058  1.00  0.00     0.269 C 
ENDBRANCH  17  18
ENDBRANCH  16  17
ENDBRANCH  13  16
ENDBRANCH  11  12
ENDBRANCH   6  11
BRANCH   7  22
HETATM   22  C   UNL     1       5.408  25.901  54.241  1.00  0.00    -0.030 C 
HETATM   23  C   UNL     1       5.935  25.267  55.384  1.00  0.00     0.010 C 
HETATM   24  C   UNL     1       6.799  24.176  55.258  1.00  0.00     0.008 C 
HETATM   25  C   UNL     1       7.122  23.664  53.996  1.00  0.00    -0.055 C 
HETATM   26  C   UNL     1       6.448  24.172  52.881  1.00  0.00     0.008 C 
HETATM   27  C   UNL     1       5.590  25.267  53.001  1.00  0.00     0.010 C 
BRANCH  25  28
HETATM   28  C   UNL     1       8.247  22.651  53.849  1.00  0.00     0.010 C 
HETATM   29  C   UNL     1       8.858  22.243  55.189  1.00  0.00     0.015 C 
HETATM   30  C   UNL     1       7.753  21.419  53.079  1.00  0.00     0.015 C 
ENDBRANCH  25  28
ENDBRANCH   7  22
BRANCH  10  31
HETATM   31  C   UNL     1       3.515  28.595  52.709  1.00  0.00     0.294 C 
HETATM   32  O   UNL     1       2.975  29.439  53.415  1.00  0.00    -0.259 OA
BRANCH  31  33
HETATM   33  O   UNL     1       3.008  27.863  51.708  1.00  0.00    -0.313 OA
BRANCH  33  34
HETATM   34  C   UNL     1       2.583  28.602  50.551  1.00  0.00     0.217 C 
BRANCH  34  35
HETATM   35  C   UNL     1       3.498  28.306  49.397  1.00  0.00    -0.034 A 
HETATM   36  C   UNL     1       3.826  29.317  48.482  1.00  0.00     0.009 A 
HETATM   37  C   UNL     1       4.681  29.050  47.413  1.00  0.00     0.001 A 
HETATM   38  C   UNL     1       5.209  27.772  47.243  1.00  0.00     0.000 A 
HETATM   39  C   UNL     1       4.881  26.758  48.140  1.00  0.00     0.001 A 
HETATM   40  C   UNL     1       4.027  27.021  49.211  1.00  0.00     0.009 A 
ENDBRANCH  34  35
ENDBRANCH  33  34
ENDBRANCH  31  33
ENDBRANCH  10  31
TORSDOF 11
ENDMDL
MODEL 7
REMARK VINA RESULT:      -7.9      2.793      7.837
REMARK  11 active torsions:
REMARK  status: ('A' for Active; 'I' for Inactive)
REMARK    1  A    between atoms: C_6  and  C_7 
REMARK    2  A    between atoms: C_7  and  C_8 
REMARK       I    between atoms: C_8  and  N_9 
REMARK    3  A    between atoms: N_9  and  C_10 
REMARK    4  A    between atoms: C_10  and  C_11 
REMARK    5  A    between atoms: C_11  and  N_12 
REMARK    6  A    between atoms: C_17  and  C_18 
REMARK    7  A    between atoms: C_21  and  C_22 
REMARK    8  A    between atoms: C_29  and  C_30 
REMARK    9  A    between atoms: C_30  and  O_31 
REMARK   10  A    between atoms: O_31  and  C_32 
REMARK   11  A    between atoms: C_32  and  C_33 
ROOT
HETATM    1  C   UNL     1       9.721  28.991  55.052  1.00  0.00     0.071 C 
HETATM    2  C   UNL     1       8.231  28.804  55.168  1.00  0.00     0.048 C 
HETATM    3  N   UNL     1       7.556  28.827  53.946  1.00  0.00    -0.229 NA
HETATM    4  C   UNL     1       6.444  28.171  53.902  1.00  0.00     0.170 C 
HETATM    5  N   UNL     1       5.830  27.501  55.159  1.00  0.00    -0.319 N 
HETATM    6  C   UNL     1       5.358  26.344  54.855  1.00  0.00     0.011 C 
HETATM    7  C   UNL     1       6.108  28.304  56.364  1.00  0.00     0.166 C 
HETATM    8  S   UNL     1       5.642  27.634  52.472  1.00  0.00    -0.086 SA
HETATM    9  C   UNL     1       5.018  26.167  53.383  1.00  0.00     0.135 C 
HETATM   10  C   UNL     1       7.588  28.523  56.325  1.00  0.00     0.069 C 
ENDROOT
BRANCH   6  11
HETATM   11  C   UNL     1       5.321  25.238  55.867  1.00  0.00     0.156 C 
BRANCH  11  12
HETATM   12  C   UNL     1       6.559  24.374  55.697  1.00  0.00     0.223 C 
HETATM   13  N   UNL     1       6.782  23.864  54.446  1.00  0.00    -0.359 N 
HETATM   14  H   UNL     1       6.261  24.224  53.641  1.00  0.00     0.162 HD
HETATM   15  O   UNL     1       7.226  24.024  56.668  1.00  0.00    -0.273 OA
BRANCH  13  16
HETATM   16  C   UNL     1       7.621  22.681  54.198  1.00  0.00     0.150 C 
BRANCH  16  17
HETATM   17  C   UNL     1       8.930  22.552  55.015  1.00  0.00     0.253 C 
BRANCH  17  18
HETATM   18  N   UNL     1       9.172  21.157  55.554  1.00  0.00    -0.077 N 
HETATM   19  H   UNL     1      10.195  21.072  55.724  1.00  0.00     0.279 HD
HETATM   20  C   UNL     1       8.518  20.877  56.879  1.00  0.00     0.269 C 
HETATM   21  C   UNL     1       8.823  20.094  54.550  1.00  0.00     0.269 C 
ENDBRANCH  17  18
ENDBRANCH  16  17
ENDBRANCH  13  16
ENDBRANCH  11  12
ENDBRANCH   6  11
BRANCH   7  22
HETATM   22  C   UNL     1       5.254  29.582  56.260  1.00  0.00    -0.030 C 
HETATM   23  C   UNL     1       5.879  30.844  56.309  1.00  0.00     0.010 C 
HETATM   24  C   UNL     1       5.146  31.989  56.631  1.00  0.00     0.008 C 
HETATM   25  C   UNL     1       3.769  31.913  56.865  1.00  0.00    -0.055 C 
HETATM   26  C   UNL     1       3.121  30.696  56.626  1.00  0.00     0.008 C 
HETATM   27  C   UNL     1       3.850  29.547  56.313  1.00  0.00     0.010 C 
BRANCH  25  28
HETATM   28  C   UNL     1       3.028  33.103  57.455  1.00  0.00     0.010 C 
HETATM   29  C   UNL     1       3.797  33.779  58.588  1.00  0.00     0.015 C 
HETATM   30  C   UNL     1       2.685  34.113  56.352  1.00  0.00     0.015 C 
ENDBRANCH  25  28
ENDBRANCH   7  22
BRANCH  10  31
HETATM   31  C   UNL     1       8.272  27.992  57.505  1.00  0.00     0.294 C 
HETATM   32  O   UNL     1       8.747  26.863  57.455  1.00  0.00    -0.259 OA
BRANCH  31  33
HETATM   33  O   UNL     1       8.101  28.803  58.558  1.00  0.00    -0.313 OA
BRANCH  33  34
HETATM   34  C   UNL     1       8.825  30.045  58.509  1.00  0.00     0.217 C 
BRANCH  34  35
HETATM   35  C   UNL     1       8.447  30.897  59.687  1.00  0.00    -0.034 A 
HETATM   36  C   UNL     1       9.246  30.900  60.839  1.00  0.00     0.009 A 
HETATM   37  C   UNL     1       8.905  31.696  61.932  1.00  0.00     0.001 A 
HETATM   38  C   UNL     1       7.760  32.489  61.889  1.00  0.00     0.000 A 
HETATM   39  C   UNL     1       6.953  32.486  60.752  1.00  0.00     0.001 A 
HETATM   40  C   UNL     1       7.292  31.692  59.657  1.00  0.00     0.009 A 
ENDBRANCH  34  35
ENDBRANCH  33  34
ENDBRANCH  31  33
ENDBRANCH  10  31
TORSDOF 11
ENDMDL
MODEL 8
REMARK VINA RESULT:      -7.8      5.137      9.351
REMARK  11 active torsions:
REMARK  status: ('A' for Active; 'I' for Inactive)
REMARK    1  A    between atoms: C_6  and  C_7 
REMARK    2  A    between atoms: C_7  and  C_8 
REMARK       I    between atoms: C_8  and  N_9 
REMARK    3  A    between atoms: N_9  and  C_10 
REMARK    4  A    between atoms: C_10  and  C_11 
REMARK    5  A    between atoms: C_11  and  N_12 
REMARK    6  A    between atoms: C_17  and  C_18 
REMARK    7  A    between atoms: C_21  and  C_22 
REMARK    8  A    between atoms: C_29  and  C_30 
REMARK    9  A    between atoms: C_30  and  O_31 
REMARK   10  A    between atoms: O_31  and  C_32 
REMARK   11  A    between atoms: C_32  and  C_33 
ROOT
HETATM    1  C   UNL     1       1.653  27.217  48.145  1.00  0.00     0.071 C 
HETATM    2  C   UNL     1       2.561  28.349  48.549  1.00  0.00     0.048 C 
HETATM    3  N   UNL     1       1.898  29.434  49.126  1.00  0.00    -0.229 NA
HETATM    4  C   UNL     1       2.595  30.151  49.944  1.00  0.00     0.170 C 
HETATM    5  N   UNL     1       4.108  29.903  50.179  1.00  0.00    -0.319 N 
HETATM    6  C   UNL     1       4.384  30.017  51.429  1.00  0.00     0.011 C 
HETATM    7  C   UNL     1       4.758  29.449  48.936  1.00  0.00     0.166 C 
HETATM    8  S   UNL     1       1.964  31.232  51.132  1.00  0.00    -0.086 SA
HETATM    9  C   UNL     1       3.392  30.855  52.222  1.00  0.00     0.135 C 
HETATM   10  C   UNL     1       3.911  28.304  48.477  1.00  0.00     0.069 C 
ENDROOT
BRANCH   6  11
HETATM   11  C   UNL     1       5.505  29.233  52.045  1.00  0.00     0.156 C 
BRANCH  11  12
HETATM   12  C   UNL     1       5.090  28.790  53.436  1.00  0.00     0.223 C 
HETATM   13  N   UNL     1       5.957  29.081  54.456  1.00  0.00    -0.359 N 
HETATM   14  H   UNL     1       6.725  29.741  54.307  1.00  0.00     0.162 HD
HETATM   15  O   UNL     1       4.110  28.068  53.606  1.00  0.00    -0.273 OA
BRANCH  13  16
HETATM   16  C   UNL     1       5.963  28.359  55.737  1.00  0.00     0.150 C 
BRANCH  16  17
HETATM   17  C   UNL     1       6.240  29.183  57.019  1.00  0.00     0.253 C 
BRANCH  17  18
HETATM   18  N   UNL     1       7.372  28.629  57.861  1.00  0.00    -0.077 N 
HETATM   19  H   UNL     1       6.941  28.004  58.572  1.00  0.00     0.279 HD
HETATM   20  C   UNL     1       8.350  27.770  57.107  1.00  0.00     0.269 C 
HETATM   21  C   UNL     1       8.088  29.707  58.627  1.00  0.00     0.269 C 
ENDBRANCH  17  18
ENDBRANCH  16  17
ENDBRANCH  13  16
ENDBRANCH  11  12
ENDBRANCH   6  11
BRANCH   7  22
HETATM   22  C   UNL     1       4.800  30.657  47.982  1.00  0.00    -0.030 C 
HETATM   23  C   UNL     1       4.521  30.474  46.613  1.00  0.00     0.010 C 
HETATM   24  C   UNL     1       4.938  31.416  45.669  1.00  0.00     0.008 C 
HETATM   25  C   UNL     1       5.601  32.581  46.070  1.00  0.00    -0.055 C 
HETATM   26  C   UNL     1       5.704  32.850  47.438  1.00  0.00     0.008 C 
HETATM   27  C   UNL     1       5.295  31.908  48.385  1.00  0.00     0.010 C 
BRANCH  25  28
HETATM   28  C   UNL     1       6.271  33.472  45.034  1.00  0.00     0.010 C 
HETATM   29  C   UNL     1       5.387  34.637  44.593  1.00  0.00     0.015 C 
HETATM   30  C   UNL     1       7.618  33.981  45.565  1.00  0.00     0.015 C 
ENDBRANCH  25  28
ENDBRANCH   7  22
BRANCH  10  31
HETATM   31  C   UNL     1       4.659  27.049  48.372  1.00  0.00     0.294 C 
HETATM   32  O   UNL     1       4.528  26.367  47.362  1.00  0.00    -0.259 OA
BRANCH  31  33
HETATM   33  O   UNL     1       5.257  26.755  49.534  1.00  0.00    -0.313 OA
BRANCH  33  34
HETATM   34  C   UNL     1       4.568  25.806  50.365  1.00  0.00     0.217 C 
BRANCH  34  35
HETATM   35  C   UNL     1       5.405  25.487  51.571  1.00  0.00    -0.034 A 
HETATM   36  C   UNL     1       4.801  24.996  52.736  1.00  0.00     0.009 A 
HETATM   37  C   UNL     1       5.574  24.689  53.856  1.00  0.00     0.001 A 
HETATM   38  C   UNL     1       6.954  24.879  53.826  1.00  0.00     0.000 A 
HETATM   39  C   UNL     1       7.563  25.377  52.675  1.00  0.00     0.001 A 
HETATM   40  C   UNL     1       6.794  25.683  51.553  1.00  0.00     0.009 A 
ENDBRANCH  34  35
ENDBRANCH  33  34
ENDBRANCH  31  33
ENDBRANCH  10  31
TORSDOF 11
ENDMDL
MODEL 9
REMARK VINA RESULT:      -7.7      3.187      6.130
REMARK  11 active torsions:
REMARK  status: ('A' for Active; 'I' for Inactive)
REMARK    1  A    between atoms: C_6  and  C_7 
REMARK    2  A    between atoms: C_7  and  C_8 
REMARK       I    between atoms: C_8  and  N_9 
REMARK    3  A    between atoms: N_9  and  C_10 
REMARK    4  A    between atoms: C_10  and  C_11 
REMARK    5  A    between atoms: C_11  and  N_12 
REMARK    6  A    between atoms: C_17  and  C_18 
REMARK    7  A    between atoms: C_21  and  C_22 
REMARK    8  A    between atoms: C_29  and  C_30 
REMARK    9  A    between atoms: C_30  and  O_31 
REMARK   10  A    between atoms: O_31  and  C_32 
REMARK   11  A    between atoms: C_32  and  C_33 
ROOT
HETATM    1  C   UNL     1       6.039  29.313  51.274  1.00  0.00     0.071 C 
HETATM    2  C   UNL     1       5.989  28.562  52.579  1.00  0.00     0.048 C 
HETATM    3  N   UNL     1       7.217  28.481  53.240  1.00  0.00    -0.229 NA
HETATM    4  C   UNL     1       7.161  28.353  54.524  1.00  0.00     0.170 C 
HETATM    5  N   UNL     1       5.817  28.172  55.278  1.00  0.00    -0.319 N 
HETATM    6  C   UNL     1       5.822  28.870  56.358  1.00  0.00     0.011 C 
HETATM    7  C   UNL     1       4.867  27.391  54.465  1.00  0.00     0.166 C 
HETATM    8  S   UNL     1       8.442  28.686  55.631  1.00  0.00    -0.086 SA
HETATM    9  C   UNL     1       7.208  29.207  56.887  1.00  0.00     0.135 C 
HETATM   10  C   UNL     1       4.852  28.093  53.143  1.00  0.00     0.069 C 
ENDROOT
BRANCH   6  11
HETATM   11  C   UNL     1       4.548  29.426  56.920  1.00  0.00     0.156 C 
BRANCH  11  12
HETATM   12  C   UNL     1       4.254  30.757  56.251  1.00  0.00     0.223 C 
HETATM   13  N   UNL     1       2.947  31.167  56.252  1.00  0.00    -0.359 N 
HETATM   14  H   UNL     1       2.261  30.703  56.854  1.00  0.00     0.162 HD
HETATM   15  O   UNL     1       5.117  31.346  55.604  1.00  0.00    -0.273 OA
BRANCH  13  16
HETATM   16  C   UNL     1       2.411  32.145  55.293  1.00  0.00     0.150 C 
BRANCH  16  17
HETATM   17  C   UNL     1       2.543  33.645  55.654  1.00  0.00     0.253 C 
BRANCH  17  18
HETATM   18  N   UNL     1       3.916  34.219  55.362  1.00  0.00    -0.077 N 
HETATM   19  H   UNL     1       4.494  33.440  54.987  1.00  0.00     0.279 HD
HETATM   20  C   UNL     1       3.935  35.286  54.302  1.00  0.00     0.269 C 
HETATM   21  C   UNL     1       4.607  34.693  56.610  1.00  0.00     0.269 C 
ENDBRANCH  17  18
ENDBRANCH  16  17
ENDBRANCH  13  16
ENDBRANCH  11  12
ENDBRANCH   6  11
BRANCH   7  22
HETATM   22  C   UNL     1       5.387  25.942  54.433  1.00  0.00    -0.030 C 
HETATM   23  C   UNL     1       5.886  25.355  55.612  1.00  0.00     0.010 C 
HETATM   24  C   UNL     1       6.724  24.238  55.551  1.00  0.00     0.008 C 
HETATM   25  C   UNL     1       7.047  23.654  54.322  1.00  0.00    -0.055 C 
HETATM   26  C   UNL     1       6.396  24.120  53.174  1.00  0.00     0.008 C 
HETATM   27  C   UNL     1       5.565  25.241  53.229  1.00  0.00     0.010 C 
BRANCH  25  28
HETATM   28  C   UNL     1       8.147  22.608  54.239  1.00  0.00     0.010 C 
HETATM   29  C   UNL     1       8.339  21.843  55.547  1.00  0.00     0.015 C 
HETATM   30  C   UNL     1       7.873  21.641  53.079  1.00  0.00     0.015 C 
ENDBRANCH  25  28
ENDBRANCH   7  22
BRANCH  10  31
HETATM   31  C   UNL     1       3.523  28.579  52.772  1.00  0.00     0.294 C 
HETATM   32  O   UNL     1       2.950  29.363  53.521  1.00  0.00    -0.259 OA
BRANCH  31  33
HETATM   33  O   UNL     1       3.054  27.915  51.707  1.00  0.00    -0.313 OA
BRANCH  33  34
HETATM   34  C   UNL     1       2.690  28.726  50.579  1.00  0.00     0.217 C 
BRANCH  34  35
HETATM   35  C   UNL     1       2.649  27.881  49.338  1.00  0.00    -0.034 A 
HETATM   36  C   UNL     1       3.789  27.172  48.933  1.00  0.00     0.009 A 
HETATM   37  C   UNL     1       3.756  26.378  47.786  1.00  0.00     0.001 A 
HETATM   38  C   UNL     1       2.588  26.292  47.031  1.00  0.00     0.000 A 
HETATM   39  C   UNL     1       1.453  27.000  47.419  1.00  0.00     0.001 A 
HETATM   40  C   UNL     1       1.483  27.794  48.565  1.00  0.00     0.009 A 
ENDBRANCH  34  35
ENDBRANCH  33  34
ENDBRANCH  31  33
ENDBRANCH  10  31
TORSDOF 11
ENDMDL
MODEL 10
REMARK VINA RESULT:      -7.5      4.918      9.427
REMARK  11 active torsions:
REMARK  status: ('A' for Active; 'I' for Inactive)
REMARK    1  A    between atoms: C_6  and  C_7 
REMARK    2  A    between atoms: C_7  and  C_8 
REMARK       I    between atoms: C_8  and  N_9 
REMARK    3  A    between atoms: N_9  and  C_10 
REMARK    4  A    between atoms: C_10  and  C_11 
REMARK    5  A    between atoms: C_11  and  N_12 
REMARK    6  A    between atoms: C_17  and  C_18 
REMARK    7  A    between atoms: C_21  and  C_22 
REMARK    8  A    between atoms: C_29  and  C_30 
REMARK    9  A    between atoms: C_30  and  O_31 
REMARK   10  A    between atoms: O_31  and  C_32 
REMARK   11  A    between atoms: C_32  and  C_33 
ROOT
HETATM    1  C   UNL     1       6.531  29.212  48.555  1.00  0.00     0.071 C 
HETATM    2  C   UNL     1       5.743  29.512  49.803  1.00  0.00     0.048 C 
HETATM    3  N   UNL     1       5.830  30.839  50.229  1.00  0.00    -0.229 NA
HETATM    4  C   UNL     1       4.825  31.281  50.910  1.00  0.00     0.170 C 
HETATM    5  N   UNL     1       3.650  30.364  51.339  1.00  0.00    -0.319 N 
HETATM    6  C   UNL     1       2.533  30.983  51.193  1.00  0.00     0.011 C 
HETATM    7  C   UNL     1       4.134  29.002  51.631  1.00  0.00     0.166 C 
HETATM    8  S   UNL     1       4.428  32.941  51.166  1.00  0.00    -0.086 SA
HETATM    9  C   UNL     1       2.646  32.500  51.195  1.00  0.00     0.135 C 
HETATM   10  C   UNL     1       4.924  28.626  50.417  1.00  0.00     0.069 C 
ENDROOT
BRANCH   6  11
HETATM   11  C   UNL     1       1.272  30.233  50.881  1.00  0.00     0.156 C 
BRANCH  11  12
HETATM   12  C   UNL     1       0.940  30.419  49.412  1.00  0.00     0.223 C 
HETATM   13  N   UNL     1       1.552  29.566  48.533  1.00  0.00    -0.359 N 
HETATM   14  H   UNL     1       2.031  28.728  48.876  1.00  0.00     0.162 HD
HETATM   15  O   UNL     1       0.286  31.386  49.026  1.00  0.00    -0.273 OA
BRANCH  13  16
HETATM   16  C   UNL     1       1.721  29.869  47.103  1.00  0.00     0.150 C 
BRANCH  16  17
HETATM   17  C   UNL     1       3.169  29.992  46.567  1.00  0.00     0.253 C 
BRANCH  17  18
HETATM   18  N   UNL     1       3.588  31.419  46.277  1.00  0.00    -0.077 N 
HETATM   19  H   UNL     1       2.857  31.828  45.661  1.00  0.00     0.279 HD
HETATM   20  C   UNL     1       3.645  32.312  47.486  1.00  0.00     0.269 C 
HETATM   21  C   UNL     1       4.875  31.485  45.502  1.00  0.00     0.269 C 
ENDBRANCH  17  18
ENDBRANCH  16  17
ENDBRANCH  13  16
ENDBRANCH  11  12
ENDBRANCH   6  11
BRANCH   7  22
HETATM   22  C   UNL     1       4.942  29.082  52.939  1.00  0.00    -0.030 C 
HETATM   23  C   UNL     1       6.217  28.487  53.009  1.00  0.00     0.010 C 
HETATM   24  C   UNL     1       6.792  28.176  54.244  1.00  0.00     0.008 C 
HETATM   25  C   UNL     1       6.133  28.492  55.437  1.00  0.00    -0.055 C 
HETATM   26  C   UNL     1       4.962  29.254  55.367  1.00  0.00     0.008 C 
HETATM   27  C   UNL     1       4.379  29.559  54.135  1.00  0.00     0.010 C 
BRANCH  25  28
HETATM   28  C   UNL     1       6.637  27.932  56.758  1.00  0.00     0.010 C 
HETATM   29  C   UNL     1       7.894  27.080  56.601  1.00  0.00     0.015 C 
HETATM   30  C   UNL     1       6.873  29.071  57.760  1.00  0.00     0.015 C 
ENDBRANCH  25  28
ENDBRANCH   7  22
BRANCH  10  31
HETATM   31  C   UNL     1       4.408  27.429  49.751  1.00  0.00     0.294 C 
HETATM   32  O   UNL     1       3.329  27.493  49.174  1.00  0.00    -0.259 OA
BRANCH  31  33
HETATM   33  O   UNL     1       5.158  26.359  50.049  1.00  0.00    -0.313 OA
BRANCH  33  34
HETATM   34  C   UNL     1       4.622  25.486  51.056  1.00  0.00     0.217 C 
BRANCH  34  35
HETATM   35  C   UNL     1       5.689  25.154  52.060  1.00  0.00    -0.034 A 
HETATM   36  C   UNL     1       5.340  24.845  53.382  1.00  0.00     0.009 A 
HETATM   37  C   UNL     1       6.326  24.528  54.316  1.00  0.00     0.001 A 
HETATM   38  C   UNL     1       7.668  24.524  53.941  1.00  0.00     0.000 A 
HETATM   39  C   UNL     1       8.026  24.839  52.632  1.00  0.00     0.001 A 
HETATM   40  C   UNL     1       7.043  25.156  51.695  1.00  0.00     0.009 A 
ENDBRANCH  34  35
ENDBRANCH  33  34
ENDBRANCH  31  33
ENDBRANCH  10  31
TORSDOF 11
ENDMDL
