MODEL 1
REMARK VINA RESULT:      -9.9      0.000      0.000
REMARK  7 active torsions:
REMARK  status: ('A' for Active; 'I' for Inactive)
REMARK    1  A    between atoms: C_2  and  O_3 
REMARK    2  A    between atoms: O_3  and  C_4 
REMARK    3  A    between atoms: C_4  and  C_5 
REMARK    4  A    between atoms: C_8  and  N_9 
REMARK    5  A    between atoms: C_12  and  N_13 
REMARK    6  A    between atoms: C_17  and  O_18 
REMARK    7  A    between atoms: C_17  and  C_19 
ROOT
HETATM    1  N   UNL     1       8.234  30.197  58.210  1.00  0.00    -0.251 N 
HETATM    2  C   UNL     1       7.226  29.456  57.638  1.00  0.00     0.262 C 
HETATM    3  O   UNL     1       6.021  29.440  57.840  1.00  0.00    -0.270 OA
HETATM    4  C   UNL     1       7.855  28.568  56.590  1.00  0.00     0.289 C 
HETATM    5  C   UNL     1       9.124  29.296  56.227  1.00  0.00     0.146 C 
HETATM    6  C   UNL     1       9.400  30.076  57.479  1.00  0.00     0.233 C 
HETATM    7  O   UNL     1      10.521  30.498  57.716  1.00  0.00    -0.273 OA
ENDROOT
BRANCH   4   8
HETATM    8  N   UNL     1       6.954  28.214  55.392  1.00  0.00    -0.058 N 
HETATM    9  H   UNL     1       6.429  29.089  55.212  1.00  0.00     0.281 HD
HETATM   10  C   UNL     1       7.682  27.939  54.093  1.00  0.00     0.239 C 
HETATM   11  C   UNL     1       6.698  27.585  52.988  1.00  0.00     0.071 C 
HETATM   12  C   UNL     1       5.803  26.389  53.371  1.00  0.00     0.088 C 
HETATM   13  C   UNL     1       5.016  26.850  54.613  1.00  0.00     0.071 C 
HETATM   14  C   UNL     1       5.940  27.161  55.776  1.00  0.00     0.239 C 
BRANCH  12  15
HETATM   15  O   UNL     1       4.851  26.233  52.320  1.00  0.00    -0.385 OA
HETATM   16  H   UNL     1       4.127  25.650  52.613  1.00  0.00     0.211 HD
ENDBRANCH  12  15
BRANCH  12  17
HETATM   17  C   UNL     1       6.543  25.057  53.549  1.00  0.00    -0.024 A 
HETATM   18  C   UNL     1       7.269  24.473  52.491  1.00  0.00     0.011 A 
HETATM   19  C   UNL     1       7.900  23.231  52.634  1.00  0.00     0.020 A 
HETATM   20  C   UNL     1       7.847  22.565  53.851  1.00  0.00     0.011 A 
HETATM   21 BR   UNL     1       8.678  20.880  54.040  1.00  0.00    -0.051 Br
HETATM   22  C   UNL     1       7.197  23.144  54.933  1.00  0.00     0.020 A 
HETATM   23  C   UNL     1       6.565  24.385  54.786  1.00  0.00     0.011 A 
ENDBRANCH  12  17
ENDBRANCH   4   8
BRANCH   1  24
HETATM   24  C   UNL     1       8.119  30.930  59.431  1.00  0.00     0.045 A 
HETATM   25  C   UNL     1       7.251  32.028  59.545  1.00  0.00     0.031 A 
HETATM   26  C   UNL     1       7.038  32.663  60.779  1.00  0.00     0.020 A 
HETATM   27  C   UNL     1       7.700  32.225  61.929  1.00  0.00     0.039 A 
HETATM   28  C   UNL     1       8.616  31.179  61.817  1.00  0.00     0.020 A 
HETATM   29  C   UNL     1       8.820  30.544  60.585  1.00  0.00     0.031 A 
BRANCH  27  30
HETATM   30  C   UNL     1       7.358  32.854  63.233  1.00  0.00     0.293 C 
HETATM   31  O   UNL     1       8.187  33.096  64.095  1.00  0.00    -0.259 OA
BRANCH  30  32
HETATM   32  O   UNL     1       6.040  33.165  63.270  1.00  0.00    -0.318 OA
BRANCH  32  33
HETATM   33  C   UNL     1       5.704  34.440  63.838  1.00  0.00     0.174 C 
HETATM   34  C   UNL     1       5.793  35.505  62.759  1.00  0.00     0.034 C 
ENDBRANCH  32  33
ENDBRANCH  30  32
ENDBRANCH  27  30
ENDBRANCH   1  24
TORSDOF 7
ENDMDL
MODEL 2
REMARK VINA RESULT:      -9.1      3.867      9.986
REMARK  7 active torsions:
REMARK  status: ('A' for Active; 'I' for Inactive)
REMARK    1  A    between atoms: C_2  and  O_3 
REMARK    2  A    between atoms: O_3  and  C_4 
REMARK    3  A    between atoms: C_4  and  C_5 
REMARK    4  A    between atoms: C_8  and  N_9 
REMARK    5  A    between atoms: C_12  and  N_13 
REMARK    6  A    between atoms: C_17  and  O_18 
REMARK    7  A    between atoms: C_17  and  C_19 
ROOT
HETATM    1  N   UNL     1       7.013  27.473  56.058  1.00  0.00    -0.251 N 
HETATM    2  C   UNL     1       5.971  28.339  55.817  1.00  0.00     0.262 C 
HETATM    3  O   UNL     1       4.873  28.160  55.311  1.00  0.00    -0.270 OA
HETATM    4  C   UNL     1       6.385  29.699  56.327  1.00  0.00     0.289 C 
HETATM    5  C   UNL     1       7.426  29.383  57.370  1.00  0.00     0.146 C 
HETATM    6  C   UNL     1       7.945  28.058  56.893  1.00  0.00     0.233 C 
HETATM    7  O   UNL     1       9.039  27.651  57.254  1.00  0.00    -0.273 OA
ENDROOT
BRANCH   4   8
HETATM    8  N   UNL     1       5.237  30.600  56.821  1.00  0.00    -0.058 N 
HETATM    9  H   UNL     1       4.564  30.595  56.034  1.00  0.00     0.281 HD
HETATM   10  C   UNL     1       4.448  30.059  57.995  1.00  0.00     0.239 C 
HETATM   11  C   UNL     1       3.356  31.035  58.407  1.00  0.00     0.071 C 
HETATM   12  C   UNL     1       3.921  32.432  58.732  1.00  0.00     0.088 C 
HETATM   13  C   UNL     1       4.567  32.926  57.423  1.00  0.00     0.071 C 
HETATM   14  C   UNL     1       5.708  32.026  56.989  1.00  0.00     0.239 C 
BRANCH  12  15
HETATM   15  O   UNL     1       2.803  33.282  58.982  1.00  0.00    -0.385 OA
HETATM   16  H   UNL     1       3.043  33.960  59.640  1.00  0.00     0.211 HD
ENDBRANCH  12  15
BRANCH  12  17
HETATM   17  C   UNL     1       4.847  32.487  59.955  1.00  0.00    -0.024 A 
HETATM   18  C   UNL     1       4.332  32.493  61.267  1.00  0.00     0.011 A 
HETATM   19  C   UNL     1       5.171  32.598  62.382  1.00  0.00     0.020 A 
HETATM   20  C   UNL     1       6.547  32.664  62.209  1.00  0.00     0.011 A 
HETATM   21 BR   UNL     1       7.680  32.829  63.710  1.00  0.00    -0.051 Br
HETATM   22  C   UNL     1       7.091  32.594  60.933  1.00  0.00     0.020 A 
HETATM   23  C   UNL     1       6.249  32.491  59.819  1.00  0.00     0.011 A 
ENDBRANCH  12  17
ENDBRANCH   4   8
BRANCH   1  24
HETATM   24  C   UNL     1       7.154  26.179  55.471  1.00  0.00     0.045 A 
HETATM   25  C   UNL     1       7.576  26.023  54.140  1.00  0.00     0.031 A 
HETATM   26  C   UNL     1       7.843  24.753  53.605  1.00  0.00     0.020 A 
HETATM   27  C   UNL     1       7.680  23.603  54.384  1.00  0.00     0.039 A 
HETATM   28  C   UNL     1       7.198  23.738  55.685  1.00  0.00     0.020 A 
HETATM   29  C   UNL     1       6.940  25.010  56.217  1.00  0.00     0.031 A 
BRANCH  27  30
HETATM   30  C   UNL     1       8.084  22.290  53.811  1.00  0.00     0.293 C 
HETATM   31  O   UNL     1       7.629  21.849  52.769  1.00  0.00    -0.259 OA
BRANCH  30  32
HETATM   32  O   UNL     1       9.052  21.727  54.573  1.00  0.00    -0.318 OA
BRANCH  32  33
HETATM   33  C   UNL     1       8.865  20.346  54.919  1.00  0.00     0.174 C 
HETATM   34  C   UNL     1       7.909  20.252  56.094  1.00  0.00     0.034 C 
ENDBRANCH  32  33
ENDBRANCH  30  32
ENDBRANCH  27  30
ENDBRANCH   1  24
TORSDOF 7
ENDMDL
MODEL 3
REMARK VINA RESULT:      -8.9      6.926     10.014
REMARK  7 active torsions:
REMARK  status: ('A' for Active; 'I' for Inactive)
REMARK    1  A    between atoms: C_2  and  O_3 
REMARK    2  A    between atoms: O_3  and  C_4 
REMARK    3  A    between atoms: C_4  and  C_5 
REMARK    4  A    between atoms: C_8  and  N_9 
REMARK    5  A    between atoms: C_12  and  N_13 
REMARK    6  A    between atoms: C_17  and  O_18 
REMARK    7  A    between atoms: C_17  and  C_19 
ROOT
HETATM    1  N   UNL     1       6.160  26.417  53.136  1.00  0.00    -0.251 N 
HETATM    2  C   UNL     1       5.364  26.193  52.035  1.00  0.00     0.262 C 
HETATM    3  O   UNL     1       4.832  25.175  51.618  1.00  0.00    -0.270 OA
HETATM    4  C   UNL     1       5.188  27.516  51.327  1.00  0.00     0.289 C 
HETATM    5  C   UNL     1       5.422  28.532  52.415  1.00  0.00     0.146 C 
HETATM    6  C   UNL     1       6.305  27.772  53.360  1.00  0.00     0.233 C 
HETATM    7  O   UNL     1       7.004  28.362  54.170  1.00  0.00    -0.273 OA
ENDROOT
BRANCH   4   8
HETATM    8  N   UNL     1       3.860  27.688  50.564  1.00  0.00    -0.058 N 
HETATM    9  H   UNL     1       3.263  26.928  50.935  1.00  0.00     0.281 HD
HETATM   10  C   UNL     1       3.093  28.956  50.877  1.00  0.00     0.239 C 
HETATM   11  C   UNL     1       1.814  29.027  50.057  1.00  0.00     0.071 C 
HETATM   12  C   UNL     1       2.089  28.921  48.544  1.00  0.00     0.088 C 
HETATM   13  C   UNL     1       2.735  27.536  48.343  1.00  0.00     0.071 C 
HETATM   14  C   UNL     1       4.051  27.420  49.089  1.00  0.00     0.239 C 
BRANCH  12  15
HETATM   15  O   UNL     1       0.819  28.877  47.895  1.00  0.00    -0.385 OA
HETATM   16  H   UNL     1       0.894  28.389  47.054  1.00  0.00     0.211 HD
ENDBRANCH  12  15
BRANCH  12  17
HETATM   17  C   UNL     1       2.891  30.086  47.948  1.00  0.00    -0.024 A 
HETATM   18  C   UNL     1       3.806  29.885  46.895  1.00  0.00     0.011 A 
HETATM   19  C   UNL     1       4.578  30.936  46.385  1.00  0.00     0.020 A 
HETATM   20  C   UNL     1       4.424  32.218  46.897  1.00  0.00     0.011 A 
HETATM   21 BR   UNL     1       5.481  33.632  46.228  1.00  0.00    -0.051 Br
HETATM   22  C   UNL     1       3.485  32.462  47.890  1.00  0.00     0.020 A 
HETATM   23  C   UNL     1       2.715  31.408  48.398  1.00  0.00     0.011 A 
ENDBRANCH  12  17
ENDBRANCH   4   8
BRANCH   1  24
HETATM   24  C   UNL     1       6.809  25.398  53.897  1.00  0.00     0.045 A 
HETATM   25  C   UNL     1       6.275  24.943  55.114  1.00  0.00     0.031 A 
HETATM   26  C   UNL     1       6.839  23.851  55.793  1.00  0.00     0.020 A 
HETATM   27  C   UNL     1       7.961  23.195  55.280  1.00  0.00     0.039 A 
HETATM   28  C   UNL     1       8.542  23.678  54.108  1.00  0.00     0.020 A 
HETATM   29  C   UNL     1       7.971  24.764  53.429  1.00  0.00     0.031 A 
BRANCH  27  30
HETATM   30  C   UNL     1       8.454  21.975  55.974  1.00  0.00     0.293 C 
HETATM   31  O   UNL     1       8.353  21.805  57.178  1.00  0.00    -0.259 OA
BRANCH  30  32
HETATM   32  O   UNL     1       8.947  21.092  55.072  1.00  0.00    -0.318 OA
BRANCH  32  33
HETATM   33  C   UNL     1       7.978  20.347  54.319  1.00  0.00     0.174 C 
HETATM   34  C   UNL     1       8.366  20.366  52.852  1.00  0.00     0.034 C 
ENDBRANCH  32  33
ENDBRANCH  30  32
ENDBRANCH  27  30
ENDBRANCH   1  24
TORSDOF 7
ENDMDL
MODEL 4
REMARK VINA RESULT:      -8.9      3.858     10.262
REMARK  7 active torsions:
REMARK  status: ('A' for Active; 'I' for Inactive)
REMARK    1  A    between atoms: C_2  and  O_3 
REMARK    2  A    between atoms: O_3  and  C_4 
REMARK    3  A    between atoms: C_4  and  C_5 
REMARK    4  A    between atoms: C_8  and  N_9 
REMARK    5  A    between atoms: C_12  and  N_13 
REMARK    6  A    between atoms: C_17  and  O_18 
REMARK    7  A    between atoms: C_17  and  C_19 
ROOT
HETATM    1  N   UNL     1       6.949  28.835  56.563  1.00  0.00    -0.251 N 
HETATM    2  C   UNL     1       5.823  29.621  56.470  1.00  0.00     0.262 C 
HETATM    3  O   UNL     1       4.759  29.441  55.896  1.00  0.00    -0.270 OA
HETATM    4  C   UNL     1       6.078  30.876  57.271  1.00  0.00     0.289 C 
HETATM    5  C   UNL     1       7.132  30.453  58.263  1.00  0.00     0.146 C 
HETATM    6  C   UNL     1       7.799  29.321  57.537  1.00  0.00     0.233 C 
HETATM    7  O   UNL     1       8.925  28.961  57.845  1.00  0.00    -0.273 OA
ENDROOT
BRANCH   4   8
HETATM    8  N   UNL     1       4.832  31.527  57.900  1.00  0.00    -0.058 N 
HETATM    9  H   UNL     1       4.115  31.456  57.156  1.00  0.00     0.281 HD
HETATM   10  C   UNL     1       4.231  30.779  59.072  1.00  0.00     0.239 C 
HETATM   11  C   UNL     1       3.021  31.519  59.621  1.00  0.00     0.071 C 
HETATM   12  C   UNL     1       3.362  32.969  60.021  1.00  0.00     0.088 C 
HETATM   13  C   UNL     1       3.820  33.655  58.720  1.00  0.00     0.071 C 
HETATM   14  C   UNL     1       5.064  32.999  58.151  1.00  0.00     0.239 C 
BRANCH  12  15
HETATM   15  O   UNL     1       2.136  33.591  60.401  1.00  0.00    -0.385 OA
HETATM   16  H   UNL     1       1.499  32.915  60.696  1.00  0.00     0.211 HD
ENDBRANCH  12  15
BRANCH  12  17
HETATM   17  C   UNL     1       4.349  33.103  61.189  1.00  0.00    -0.024 A 
HETATM   18  C   UNL     1       4.504  32.077  62.142  1.00  0.00     0.011 A 
HETATM   19  C   UNL     1       5.363  32.219  63.238  1.00  0.00     0.020 A 
HETATM   20  C   UNL     1       6.113  33.378  63.383  1.00  0.00     0.011 A 
HETATM   21 BR   UNL     1       7.255  33.582  64.872  1.00  0.00    -0.051 Br
HETATM   22  C   UNL     1       6.034  34.382  62.426  1.00  0.00     0.020 A 
HETATM   23  C   UNL     1       5.171  34.237  61.332  1.00  0.00     0.011 A 
ENDBRANCH  12  17
ENDBRANCH   4   8
BRANCH   1  24
HETATM   24  C   UNL     1       7.239  27.719  55.722  1.00  0.00     0.045 A 
HETATM   25  C   UNL     1       7.145  26.401  56.198  1.00  0.00     0.031 A 
HETATM   26  C   UNL     1       7.299  25.302  55.337  1.00  0.00     0.020 A 
HETATM   27  C   UNL     1       7.566  25.494  53.979  1.00  0.00     0.039 A 
HETATM   28  C   UNL     1       7.729  26.796  53.505  1.00  0.00     0.020 A 
HETATM   29  C   UNL     1       7.567  27.889  54.367  1.00  0.00     0.031 A 
BRANCH  27  30
HETATM   30  C   UNL     1       7.609  24.305  53.085  1.00  0.00     0.293 C 
HETATM   31  O   UNL     1       7.763  24.384  51.877  1.00  0.00    -0.259 OA
BRANCH  30  32
HETATM   32  O   UNL     1       7.524  23.168  53.817  1.00  0.00    -0.318 OA
BRANCH  32  33
HETATM   33  C   UNL     1       8.627  22.256  53.701  1.00  0.00     0.174 C 
HETATM   34  C   UNL     1       8.141  20.964  53.069  1.00  0.00     0.034 C 
ENDBRANCH  32  33
ENDBRANCH  30  32
ENDBRANCH  27  30
ENDBRANCH   1  24
TORSDOF 7
ENDMDL
MODEL 5
REMARK VINA RESULT:      -8.5      3.482      9.546
REMARK  7 active torsions:
REMARK  status: ('A' for Active; 'I' for Inactive)
REMARK    1  A    between atoms: C_2  and  O_3 
REMARK    2  A    between atoms: O_3  and  C_4 
REMARK    3  A    between atoms: C_4  and  C_5 
REMARK    4  A    between atoms: C_8  and  N_9 
REMARK    5  A    between atoms: C_12  and  N_13 
REMARK    6  A    between atoms: C_17  and  O_18 
REMARK    7  A    between atoms: C_17  and  C_19 
ROOT
HETATM    1  N   UNL     1       5.369  27.540  55.424  1.00  0.00    -0.251 N 
HETATM    2  C   UNL     1       5.176  28.435  56.452  1.00  0.00     0.262 C 
HETATM    3  O   UNL     1       5.817  28.645  57.470  1.00  0.00    -0.270 OA
HETATM    4  C   UNL     1       3.939  29.239  56.125  1.00  0.00     0.289 C 
HETATM    5  C   UNL     1       3.840  29.140  54.625  1.00  0.00     0.146 C 
HETATM    6  C   UNL     1       4.550  27.846  54.355  1.00  0.00     0.233 C 
HETATM    7  O   UNL     1       4.363  27.238  53.312  1.00  0.00    -0.273 OA
ENDROOT
BRANCH   4   8
HETATM    8  N   UNL     1       3.919  30.678  56.675  1.00  0.00    -0.058 N 
HETATM    9  H   UNL     1       3.164  31.137  56.136  1.00  0.00     0.281 HD
HETATM   10  C   UNL     1       3.485  30.813  58.120  1.00  0.00     0.239 C 
HETATM   11  C   UNL     1       3.519  32.269  58.559  1.00  0.00     0.071 C 
HETATM   12  C   UNL     1       4.909  32.905  58.349  1.00  0.00     0.088 C 
HETATM   13  C   UNL     1       5.165  32.833  56.831  1.00  0.00     0.071 C 
HETATM   14  C   UNL     1       5.204  31.399  56.338  1.00  0.00     0.239 C 
BRANCH  12  15
HETATM   15  O   UNL     1       4.784  34.288  58.677  1.00  0.00    -0.385 OA
HETATM   16  H   UNL     1       4.307  34.386  59.521  1.00  0.00     0.211 HD
ENDBRANCH  12  15
BRANCH  12  17
HETATM   17  C   UNL     1       6.031  32.307  59.209  1.00  0.00    -0.024 A 
HETATM   18  C   UNL     1       7.090  31.578  58.633  1.00  0.00     0.011 A 
HETATM   19  C   UNL     1       8.085  30.987  59.419  1.00  0.00     0.020 A 
HETATM   20  C   UNL     1       8.060  31.143  60.799  1.00  0.00     0.011 A 
HETATM   21 BR   UNL     1       9.387  30.326  61.864  1.00  0.00    -0.051 Br
HETATM   22  C   UNL     1       7.067  31.910  61.393  1.00  0.00     0.020 A 
HETATM   23  C   UNL     1       6.072  32.499  60.603  1.00  0.00     0.011 A 
ENDBRANCH  12  17
ENDBRANCH   4   8
BRANCH   1  24
HETATM   24  C   UNL     1       6.236  26.407  55.479  1.00  0.00     0.045 A 
HETATM   25  C   UNL     1       6.080  25.413  56.459  1.00  0.00     0.031 A 
HETATM   26  C   UNL     1       6.844  24.236  56.432  1.00  0.00     0.020 A 
HETATM   27  C   UNL     1       7.797  24.029  55.431  1.00  0.00     0.039 A 
HETATM   28  C   UNL     1       8.011  25.036  54.490  1.00  0.00     0.020 A 
HETATM   29  C   UNL     1       7.239  26.206  54.517  1.00  0.00     0.031 A 
BRANCH  27  30
HETATM   30  C   UNL     1       8.503  22.719  55.376  1.00  0.00     0.293 C 
HETATM   31  O   UNL     1       8.597  21.972  56.336  1.00  0.00    -0.259 OA
BRANCH  30  32
HETATM   32  O   UNL     1       8.939  22.477  54.117  1.00  0.00    -0.318 OA
BRANCH  32  33
HETATM   33  C   UNL     1       8.006  21.835  53.234  1.00  0.00     0.174 C 
HETATM   34  C   UNL     1       8.471  20.416  52.965  1.00  0.00     0.034 C 
ENDBRANCH  32  33
ENDBRANCH  30  32
ENDBRANCH  27  30
ENDBRANCH   1  24
TORSDOF 7
ENDMDL
MODEL 6
REMARK VINA RESULT:      -8.5      5.871     10.842
REMARK  7 active torsions:
REMARK  status: ('A' for Active; 'I' for Inactive)
REMARK    1  A    between atoms: C_2  and  O_3 
REMARK    2  A    between atoms: O_3  and  C_4 
REMARK    3  A    between atoms: C_4  and  C_5 
REMARK    4  A    between atoms: C_8  and  N_9 
REMARK    5  A    between atoms: C_12  and  N_13 
REMARK    6  A    between atoms: C_17  and  O_18 
REMARK    7  A    between atoms: C_17  and  C_19 
ROOT
HETATM    1  N   UNL     1       3.976  27.907  49.717  1.00  0.00    -0.251 N 
HETATM    2  C   UNL     1       4.453  28.373  50.921  1.00  0.00     0.262 C 
HETATM    3  O   UNL     1       4.101  29.313  51.619  1.00  0.00    -0.270 OA
HETATM    4  C   UNL     1       5.587  27.468  51.340  1.00  0.00     0.289 C 
HETATM    5  C   UNL     1       5.294  26.178  50.617  1.00  0.00     0.146 C 
HETATM    6  C   UNL     1       4.501  26.661  49.438  1.00  0.00     0.233 C 
HETATM    7  O   UNL     1       4.395  25.973  48.435  1.00  0.00    -0.273 OA
ENDROOT
BRANCH   4   8
HETATM    8  N   UNL     1       5.789  27.318  52.861  1.00  0.00    -0.058 N 
HETATM    9  H   UNL     1       5.445  28.216  53.244  1.00  0.00     0.281 HD
HETATM   10  C   UNL     1       4.926  26.268  53.529  1.00  0.00     0.239 C 
HETATM   11  C   UNL     1       5.222  26.197  55.019  1.00  0.00     0.071 C 
HETATM   12  C   UNL     1       6.714  25.930  55.301  1.00  0.00     0.088 C 
HETATM   13  C   UNL     1       7.465  27.134  54.699  1.00  0.00     0.071 C 
HETATM   14  C   UNL     1       7.259  27.227  53.199  1.00  0.00     0.239 C 
BRANCH  12  15
HETATM   15  O   UNL     1       6.888  26.007  56.715  1.00  0.00    -0.385 OA
HETATM   16  H   UNL     1       7.548  25.350  57.004  1.00  0.00     0.211 HD
ENDBRANCH  12  15
BRANCH  12  17
HETATM   17  C   UNL     1       7.229  24.563  54.829  1.00  0.00    -0.024 A 
HETATM   18  C   UNL     1       7.811  24.397  53.556  1.00  0.00     0.011 A 
HETATM   19  C   UNL     1       8.232  23.142  53.102  1.00  0.00     0.020 A 
HETATM   20  C   UNL     1       8.110  22.032  53.927  1.00  0.00     0.011 A 
HETATM   21 BR   UNL     1       8.655  20.333  53.308  1.00  0.00    -0.051 Br
HETATM   22  C   UNL     1       7.602  22.172  55.211  1.00  0.00     0.020 A 
HETATM   23  C   UNL     1       7.180  23.430  55.662  1.00  0.00     0.011 A 
ENDBRANCH  12  17
ENDBRANCH   4   8
BRANCH   1  24
HETATM   24  C   UNL     1       3.119  28.638  48.839  1.00  0.00     0.045 A 
HETATM   25  C   UNL     1       3.596  29.726  48.090  1.00  0.00     0.031 A 
HETATM   26  C   UNL     1       2.791  30.358  47.129  1.00  0.00     0.020 A 
HETATM   27  C   UNL     1       1.481  29.927  46.903  1.00  0.00     0.039 A 
HETATM   28  C   UNL     1       0.971  28.892  47.686  1.00  0.00     0.020 A 
HETATM   29  C   UNL     1       1.782  28.259  48.639  1.00  0.00     0.031 A 
BRANCH  27  30
HETATM   30  C   UNL     1       0.705  30.552  45.797  1.00  0.00     0.293 C 
HETATM   31  O   UNL     1       1.039  31.590  45.251  1.00  0.00    -0.259 OA
BRANCH  30  32
HETATM   32  O   UNL     1      -0.350  29.768  45.467  1.00  0.00    -0.318 OA
BRANCH  32  33
HETATM   33  C   UNL     1      -1.625  30.422  45.384  1.00  0.00     0.174 C 
HETATM   34  C   UNL     1      -2.656  29.601  46.136  1.00  0.00     0.034 C 
ENDBRANCH  32  33
ENDBRANCH  30  32
ENDBRANCH  27  30
ENDBRANCH   1  24
TORSDOF 7
ENDMDL
MODEL 7
REMARK VINA RESULT:      -8.4      2.440      3.058
REMARK  7 active torsions:
REMARK  status: ('A' for Active; 'I' for Inactive)
REMARK    1  A    between atoms: C_2  and  O_3 
REMARK    2  A    between atoms: O_3  and  C_4 
REMARK    3  A    between atoms: C_4  and  C_5 
REMARK    4  A    between atoms: C_8  and  N_9 
REMARK    5  A    between atoms: C_12  and  N_13 
REMARK    6  A    between atoms: C_17  and  O_18 
REMARK    7  A    between atoms: C_17  and  C_19 
ROOT
HETATM    1  N   UNL     1       5.732  30.091  57.463  1.00  0.00    -0.251 N 
HETATM    2  C   UNL     1       5.248  29.398  56.377  1.00  0.00     0.262 C 
HETATM    3  O   UNL     1       4.327  29.638  55.611  1.00  0.00    -0.270 OA
HETATM    4  C   UNL     1       6.104  28.164  56.209  1.00  0.00     0.289 C 
HETATM    5  C   UNL     1       7.403  28.544  56.872  1.00  0.00     0.146 C 
HETATM    6  C   UNL     1       6.953  29.582  57.857  1.00  0.00     0.233 C 
HETATM    7  O   UNL     1       7.642  29.862  58.826  1.00  0.00    -0.273 OA
ENDROOT
BRANCH   4   8
HETATM    8  N   UNL     1       6.248  27.647  54.765  1.00  0.00    -0.058 N 
HETATM    9  H   UNL     1       5.964  28.456  54.185  1.00  0.00     0.281 HD
HETATM   10  C   UNL     1       7.666  27.347  54.323  1.00  0.00     0.239 C 
HETATM   11  C   UNL     1       7.686  26.830  52.893  1.00  0.00     0.071 C 
HETATM   12  C   UNL     1       6.788  25.589  52.714  1.00  0.00     0.088 C 
HETATM   13  C   UNL     1       5.363  26.064  53.054  1.00  0.00     0.071 C 
HETATM   14  C   UNL     1       5.260  26.538  54.491  1.00  0.00     0.239 C 
BRANCH  12  15
HETATM   15  O   UNL     1       6.793  25.274  51.322  1.00  0.00    -0.385 OA
HETATM   16  H   UNL     1       7.307  24.460  51.169  1.00  0.00     0.211 HD
ENDBRANCH  12  15
BRANCH  12  17
HETATM   17  C   UNL     1       7.242  24.344  53.488  1.00  0.00    -0.024 A 
HETATM   18  C   UNL     1       6.826  24.111  54.813  1.00  0.00     0.011 A 
HETATM   19  C   UNL     1       7.281  23.004  55.540  1.00  0.00     0.020 A 
HETATM   20  C   UNL     1       8.136  22.088  54.942  1.00  0.00     0.011 A 
HETATM   21 BR   UNL     1       8.770  20.608  55.927  1.00  0.00    -0.051 Br
HETATM   22  C   UNL     1       8.514  22.253  53.616  1.00  0.00     0.020 A 
HETATM   23  C   UNL     1       8.058  23.362  52.892  1.00  0.00     0.011 A 
ENDBRANCH  12  17
ENDBRANCH   4   8
BRANCH   1  24
HETATM   24  C   UNL     1       5.037  31.141  58.138  1.00  0.00     0.045 A 
HETATM   25  C   UNL     1       3.835  30.899  58.823  1.00  0.00     0.031 A 
HETATM   26  C   UNL     1       3.225  31.898  59.597  1.00  0.00     0.020 A 
HETATM   27  C   UNL     1       3.793  33.172  59.694  1.00  0.00     0.039 A 
HETATM   28  C   UNL     1       4.950  33.446  58.965  1.00  0.00     0.020 A 
HETATM   29  C   UNL     1       5.560  32.442  58.199  1.00  0.00     0.031 A 
BRANCH  27  30
HETATM   30  C   UNL     1       3.173  34.162  60.615  1.00  0.00     0.293 C 
HETATM   31  O   UNL     1       2.949  35.319  60.297  1.00  0.00    -0.259 OA
BRANCH  30  32
HETATM   32  O   UNL     1       2.847  33.568  61.788  1.00  0.00    -0.318 OA
BRANCH  32  33
HETATM   33  C   UNL     1       3.830  33.644  62.832  1.00  0.00     0.174 C 
HETATM   34  C   UNL     1       3.428  34.727  63.817  1.00  0.00     0.034 C 
ENDBRANCH  32  33
ENDBRANCH  30  32
ENDBRANCH  27  30
ENDBRANCH   1  24
TORSDOF 7
ENDMDL
MODEL 8
REMARK VINA RESULT:      -8.3      7.232     10.117
REMARK  7 active torsions:
REMARK  status: ('A' for Active; 'I' for Inactive)
REMARK    1  A    between atoms: C_2  and  O_3 
REMARK    2  A    between atoms: O_3  and  C_4 
REMARK    3  A    between atoms: C_4  and  C_5 
REMARK    4  A    between atoms: C_8  and  N_9 
REMARK    5  A    between atoms: C_12  and  N_13 
REMARK    6  A    between atoms: C_17  and  O_18 
REMARK    7  A    between atoms: C_17  and  C_19 
ROOT
HETATM    1  N   UNL     1       5.981  26.297  52.684  1.00  0.00    -0.251 N 
HETATM    2  C   UNL     1       6.071  27.666  52.786  1.00  0.00     0.262 C 
HETATM    3  O   UNL     1       6.881  28.381  53.356  1.00  0.00    -0.270 OA
HETATM    4  C   UNL     1       4.923  28.256  52.000  1.00  0.00     0.289 C 
HETATM    5  C   UNL     1       4.587  27.176  51.004  1.00  0.00     0.146 C 
HETATM    6  C   UNL     1       5.061  25.943  51.715  1.00  0.00     0.233 C 
HETATM    7  O   UNL     1       4.637  24.841  51.404  1.00  0.00    -0.273 OA
ENDROOT
BRANCH   4   8
HETATM    8  N   UNL     1       5.187  29.641  51.378  1.00  0.00    -0.058 N 
HETATM    9  H   UNL     1       5.957  30.026  51.954  1.00  0.00     0.281 HD
HETATM   10  C   UNL     1       5.744  29.623  49.969  1.00  0.00     0.239 C 
HETATM   11  C   UNL     1       5.948  31.039  49.453  1.00  0.00     0.071 C 
HETATM   12  C   UNL     1       4.649  31.870  49.513  1.00  0.00     0.088 C 
HETATM   13  C   UNL     1       4.271  31.930  51.005  1.00  0.00     0.071 C 
HETATM   14  C   UNL     1       3.995  30.549  51.568  1.00  0.00     0.239 C 
BRANCH  12  15
HETATM   15  O   UNL     1       4.991  33.199  49.123  1.00  0.00    -0.385 OA
HETATM   16  H   UNL     1       5.539  33.177  48.317  1.00  0.00     0.211 HD
ENDBRANCH  12  15
BRANCH  12  17
HETATM   17  C   UNL     1       3.523  31.376  48.594  1.00  0.00    -0.024 A 
HETATM   18  C   UNL     1       2.182  31.756  48.807  1.00  0.00     0.011 A 
HETATM   19  C   UNL     1       1.146  31.265  48.004  1.00  0.00     0.020 A 
HETATM   20  C   UNL     1       1.435  30.411  46.948  1.00  0.00     0.011 A 
HETATM   21 BR   UNL     1       0.037  29.728  45.878  1.00  0.00    -0.051 Br
HETATM   22  C   UNL     1       2.752  30.069  46.671  1.00  0.00     0.020 A 
HETATM   23  C   UNL     1       3.786  30.561  47.477  1.00  0.00     0.011 A 
ENDBRANCH  12  17
ENDBRANCH   4   8
BRANCH   1  24
HETATM   24  C   UNL     1       6.680  25.367  53.512  1.00  0.00     0.045 A 
HETATM   25  C   UNL     1       6.219  25.044  54.798  1.00  0.00     0.031 A 
HETATM   26  C   UNL     1       6.829  24.033  55.558  1.00  0.00     0.020 A 
HETATM   27  C   UNL     1       7.927  23.329  55.056  1.00  0.00     0.039 A 
HETATM   28  C   UNL     1       8.438  23.685  53.807  1.00  0.00     0.020 A 
HETATM   29  C   UNL     1       7.820  24.689  53.049  1.00  0.00     0.031 A 
BRANCH  27  30
HETATM   30  C   UNL     1       8.469  22.191  55.848  1.00  0.00     0.293 C 
HETATM   31  O   UNL     1       8.361  22.111  57.060  1.00  0.00    -0.259 OA
BRANCH  30  32
HETATM   32  O   UNL     1       9.014  21.266  55.022  1.00  0.00    -0.318 OA
BRANCH  32  33
HETATM   33  C   UNL     1       8.099  20.345  54.409  1.00  0.00     0.174 C 
HETATM   34  C   UNL     1       8.346  20.320  52.911  1.00  0.00     0.034 C 
ENDBRANCH  32  33
ENDBRANCH  30  32
ENDBRANCH  27  30
ENDBRANCH   1  24
TORSDOF 7
ENDMDL
MODEL 9
REMARK VINA RESULT:      -8.2      4.109      6.318
REMARK  7 active torsions:
REMARK  status: ('A' for Active; 'I' for Inactive)
REMARK    1  A    between atoms: C_2  and  O_3 
REMARK    2  A    between atoms: O_3  and  C_4 
REMARK    3  A    between atoms: C_4  and  C_5 
REMARK    4  A    between atoms: C_8  and  N_9 
REMARK    5  A    between atoms: C_12  and  N_13 
REMARK    6  A    between atoms: C_17  and  O_18 
REMARK    7  A    between atoms: C_17  and  C_19 
ROOT
HETATM    1  N   UNL     1       6.708  27.836  55.237  1.00  0.00    -0.251 N 
HETATM    2  C   UNL     1       5.660  28.360  54.514  1.00  0.00     0.262 C 
HETATM    3  O   UNL     1       5.313  29.515  54.320  1.00  0.00    -0.270 OA
HETATM    4  C   UNL     1       4.909  27.202  53.901  1.00  0.00     0.289 C 
HETATM    5  C   UNL     1       5.941  26.106  53.838  1.00  0.00     0.146 C 
HETATM    6  C   UNL     1       6.869  26.494  54.951  1.00  0.00     0.233 C 
HETATM    7  O   UNL     1       7.617  25.671  55.455  1.00  0.00    -0.273 OA
ENDROOT
BRANCH   4   8
HETATM    8  N   UNL     1       4.209  27.501  52.561  1.00  0.00    -0.058 N 
HETATM    9  H   UNL     1       3.712  26.619  52.341  1.00  0.00     0.281 HD
HETATM   10  C   UNL     1       3.113  28.545  52.621  1.00  0.00     0.239 C 
HETATM   11  C   UNL     1       2.507  28.769  51.244  1.00  0.00     0.071 C 
HETATM   12  C   UNL     1       3.572  29.161  50.200  1.00  0.00     0.088 C 
HETATM   13  C   UNL     1       4.538  27.962  50.132  1.00  0.00     0.071 C 
HETATM   14  C   UNL     1       5.224  27.722  51.463  1.00  0.00     0.239 C 
BRANCH  12  15
HETATM   15  O   UNL     1       2.910  29.223  48.937  1.00  0.00    -0.385 OA
HETATM   16  H   UNL     1       3.535  28.995  48.224  1.00  0.00     0.211 HD
ENDBRANCH  12  15
BRANCH  12  17
HETATM   17  C   UNL     1       4.257  30.512  50.448  1.00  0.00    -0.024 A 
HETATM   18  C   UNL     1       3.794  31.399  51.441  1.00  0.00     0.011 A 
HETATM   19  C   UNL     1       4.382  32.654  51.633  1.00  0.00     0.020 A 
HETATM   20  C   UNL     1       5.470  33.034  50.859  1.00  0.00     0.011 A 
HETATM   21 BR   UNL     1       6.251  34.736  51.100  1.00  0.00    -0.051 Br
HETATM   22  C   UNL     1       5.993  32.157  49.917  1.00  0.00     0.020 A 
HETATM   23  C   UNL     1       5.401  30.903  49.726  1.00  0.00     0.011 A 
ENDBRANCH  12  17
ENDBRANCH   4   8
BRANCH   1  24
HETATM   24  C   UNL     1       7.475  28.554  56.203  1.00  0.00     0.045 A 
HETATM   25  C   UNL     1       8.756  29.046  55.902  1.00  0.00     0.031 A 
HETATM   26  C   UNL     1       9.453  29.865  56.804  1.00  0.00     0.020 A 
HETATM   27  C   UNL     1       8.893  30.202  58.039  1.00  0.00     0.039 A 
HETATM   28  C   UNL     1       7.651  29.666  58.380  1.00  0.00     0.020 A 
HETATM   29  C   UNL     1       6.956  28.855  57.473  1.00  0.00     0.031 A 
BRANCH  27  30
HETATM   30  C   UNL     1       9.618  31.163  58.913  1.00  0.00     0.293 C 
HETATM   31  O   UNL     1      10.216  32.136  58.484  1.00  0.00    -0.259 OA
BRANCH  30  32
HETATM   32  O   UNL     1       9.448  30.829  60.215  1.00  0.00    -0.318 OA
BRANCH  32  33
HETATM   33  C   UNL     1       9.581  31.896  61.167  1.00  0.00     0.174 C 
HETATM   34  C   UNL     1       8.586  31.686  62.293  1.00  0.00     0.034 C 
ENDBRANCH  32  33
ENDBRANCH  30  32
ENDBRANCH  27  30
ENDBRANCH   1  24
TORSDOF 7
ENDMDL
MODEL 10
REMARK VINA RESULT:      -8.2      4.195     10.830
REMARK  7 active torsions:
REMARK  status: ('A' for Active; 'I' for Inactive)
REMARK    1  A    between atoms: C_2  and  O_3 
REMARK    2  A    between atoms: O_3  and  C_4 
REMARK    3  A    between atoms: C_4  and  C_5 
REMARK    4  A    between atoms: C_8  and  N_9 
REMARK    5  A    between atoms: C_12  and  N_13 
REMARK    6  A    between atoms: C_17  and  O_18 
REMARK    7  A    between atoms: C_17  and  C_19 
ROOT
HETATM    1  N   UNL     1       6.851  29.797  57.691  1.00  0.00    -0.251 N 
HETATM    2  C   UNL     1       5.630  30.376  57.953  1.00  0.00     0.262 C 
HETATM    3  O   UNL     1       4.496  30.048  57.635  1.00  0.00    -0.270 OA
HETATM    4  C   UNL     1       5.882  31.602  58.799  1.00  0.00     0.289 C 
HETATM    5  C   UNL     1       7.205  31.309  59.459  1.00  0.00     0.146 C 
HETATM    6  C   UNL     1       7.834  30.362  58.480  1.00  0.00     0.233 C 
HETATM    7  O   UNL     1       9.042  30.188  58.470  1.00  0.00    -0.273 OA
ENDROOT
BRANCH   4   8
HETATM    8  N   UNL     1       4.749  31.981  59.773  1.00  0.00    -0.058 N 
HETATM    9  H   UNL     1       4.156  31.132  59.803  1.00  0.00     0.281 HD
HETATM   10  C   UNL     1       5.176  32.192  61.211  1.00  0.00     0.239 C 
HETATM   11  C   UNL     1       3.984  32.576  62.075  1.00  0.00     0.071 C 
HETATM   12  C   UNL     1       3.258  33.826  61.536  1.00  0.00     0.088 C 
HETATM   13  C   UNL     1       2.753  33.432  60.134  1.00  0.00     0.071 C 
HETATM   14  C   UNL     1       3.901  33.093  59.202  1.00  0.00     0.239 C 
BRANCH  12  15
HETATM   15  O   UNL     1       2.100  34.013  62.349  1.00  0.00    -0.385 OA
HETATM   16  H   UNL     1       1.296  33.847  61.823  1.00  0.00     0.211 HD
ENDBRANCH  12  15
BRANCH  12  17
HETATM   17  C   UNL     1       4.082  35.120  61.571  1.00  0.00    -0.024 A 
HETATM   18  C   UNL     1       5.116  35.307  62.510  1.00  0.00     0.011 A 
HETATM   19  C   UNL     1       5.833  36.507  62.580  1.00  0.00     0.020 A 
HETATM   20  C   UNL     1       5.554  37.532  61.687  1.00  0.00     0.011 A 
HETATM   21 BR   UNL     1       6.504  39.160  61.794  1.00  0.00    -0.051 Br
HETATM   22  C   UNL     1       4.586  37.356  60.707  1.00  0.00     0.020 A 
HETATM   23  C   UNL     1       3.869  36.155  60.641  1.00  0.00     0.011 A 
ENDBRANCH  12  17
ENDBRANCH   4   8
BRANCH   1  24
HETATM   24  C   UNL     1       7.088  28.806  56.691  1.00  0.00     0.045 A 
HETATM   25  C   UNL     1       6.602  27.496  56.830  1.00  0.00     0.031 A 
HETATM   26  C   UNL     1       6.719  26.561  55.790  1.00  0.00     0.020 A 
HETATM   27  C   UNL     1       7.339  26.908  54.586  1.00  0.00     0.039 A 
HETATM   28  C   UNL     1       7.886  28.185  54.458  1.00  0.00     0.020 A 
HETATM   29  C   UNL     1       7.760  29.117  55.498  1.00  0.00     0.031 A 
BRANCH  27  30
HETATM   30  C   UNL     1       7.339  25.921  53.472  1.00  0.00     0.293 C 
HETATM   31  O   UNL     1       6.910  26.173  52.359  1.00  0.00    -0.259 OA
BRANCH  30  32
HETATM   32  O   UNL     1       7.937  24.772  53.867  1.00  0.00    -0.318 OA
BRANCH  32  33
HETATM   33  C   UNL     1       7.148  23.577  53.762  1.00  0.00     0.174 C 
HETATM   34  C   UNL     1       7.958  22.506  53.055  1.00  0.00     0.034 C 
ENDBRANCH  32  33
ENDBRANCH  30  32
ENDBRANCH  27  30
ENDBRANCH   1  24
TORSDOF 7
ENDMDL
