MODEL 1
REMARK VINA RESULT:     -11.3      0.000      0.000
REMARK  6 active torsions:
REMARK  status: ('A' for Active; 'I' for Inactive)
REMARK    1  A    between atoms: C_4  and  C_5 
REMARK    2  A    between atoms: C_9  and  C_10 
REMARK       I    between atoms: C_10  and  N_11 
REMARK    3  A    between atoms: N_11  and  N_12 
REMARK       I    between atoms: N_12  and  C_13 
REMARK    4  A    between atoms: C_13  and  C_14 
REMARK    5  A    between atoms: C_14  and  O_15 
REMARK    6  A    between atoms: O_15  and  C_16 
ROOT
HETATM    1  C   UNL     1       9.797  29.648  56.871  1.00  0.00     0.288 C 
HETATM    2  N   UNL     1       8.819  29.040  56.105  1.00  0.00    -0.262 N 
HETATM    3  O   UNL     1      10.968  29.324  56.670  1.00  0.00    -0.264 OA
HETATM    4  H   UNL     1       9.159  28.422  55.373  1.00  0.00     0.190 HD
ENDROOT
BRANCH   2   5
HETATM    5  N   UNL     1       7.465  29.351  56.109  1.00  0.00    -0.265 N 
HETATM    6  C   UNL     1       6.574  28.845  55.184  1.00  0.00     0.260 C 
HETATM    7  O   UNL     1       5.502  29.430  55.028  1.00  0.00    -0.269 OA
HETATM    8  H   UNL     1       7.193  30.238  56.527  1.00  0.00     0.190 HD
BRANCH   6   9
HETATM    9  C   UNL     1       6.956  27.550  54.454  1.00  0.00     0.280 C 
BRANCH   9  10
HETATM   10  O   UNL     1       7.271  26.454  55.308  1.00  0.00    -0.342 OA
BRANCH  10  11
HETATM   11  C   UNL     1       7.417  25.261  54.652  1.00  0.00     0.070 A 
HETATM   12  C   UNL     1       7.464  24.109  55.438  1.00  0.00     0.049 A 
HETATM   13  C   UNL     1       7.683  22.850  54.854  1.00  0.00    -0.023 A 
HETATM   14  C   UNL     1       7.876  22.759  53.457  1.00  0.00    -0.026 A 
HETATM   15  C   UNL     1       7.727  21.678  55.630  1.00  0.00     0.012 A 
HETATM   16  C   UNL     1       7.835  23.929  52.682  1.00  0.00     0.015 A 
HETATM   17  C   UNL     1       8.120  21.504  52.876  1.00  0.00     0.012 A 
HETATM   18  C   UNL     1       7.614  25.174  53.277  1.00  0.00     0.037 A 
HETATM   19  C   UNL     1       8.167  20.352  53.661  1.00  0.00     0.001 A 
HETATM   20  C   UNL     1       7.967  20.437  55.035  1.00  0.00     0.001 A 
ENDBRANCH  10  11
ENDBRANCH   9  10
ENDBRANCH   6   9
ENDBRANCH   2   5
BRANCH   1  21
HETATM   21  C   UNL     1       9.444  30.561  57.925  1.00  0.00     0.121 A 
HETATM   22  N   UNL     1      10.231  31.648  58.196  1.00  0.00    -0.272 N 
HETATM   23  N   UNL     1       9.888  32.315  59.305  1.00  0.00    -0.174 NA
HETATM   24  H   UNL     1      11.061  31.940  57.687  1.00  0.00     0.189 HD
HETATM   25  C   UNL     1       8.770  31.707  59.728  1.00  0.00     0.089 A 
HETATM   26  C   UNL     1       8.424  30.641  58.853  1.00  0.00     0.071 A 
BRANCH  25  27
HETATM   27  C   UNL     1       8.093  32.098  60.960  1.00  0.00    -0.006 A 
HETATM   28  C   UNL     1       8.768  32.092  62.188  1.00  0.00     0.014 A 
HETATM   29  C   UNL     1       8.121  32.517  63.351  1.00  0.00     0.001 A 
HETATM   30  C   UNL     1       6.799  32.957  63.296  1.00  0.00     0.000 A 
HETATM   31  C   UNL     1       6.118  32.963  62.080  1.00  0.00     0.001 A 
HETATM   32  C   UNL     1       6.760  32.530  60.918  1.00  0.00     0.014 A 
ENDBRANCH  25  27
ENDBRANCH   1  21
TORSDOF 6
ENDMDL
MODEL 2
REMARK VINA RESULT:     -11.3      1.492     10.351
REMARK  6 active torsions:
REMARK  status: ('A' for Active; 'I' for Inactive)
REMARK    1  A    between atoms: C_4  and  C_5 
REMARK    2  A    between atoms: C_9  and  C_10 
REMARK       I    between atoms: C_10  and  N_11 
REMARK    3  A    between atoms: N_11  and  N_12 
REMARK       I    between atoms: N_12  and  C_13 
REMARK    4  A    between atoms: C_13  and  C_14 
REMARK    5  A    between atoms: C_14  and  O_15 
REMARK    6  A    between atoms: O_15  and  C_16 
ROOT
HETATM    1  C   UNL     1       6.562  28.219  55.109  1.00  0.00     0.288 C 
HETATM    2  N   UNL     1       7.405  29.216  55.566  1.00  0.00    -0.262 N 
HETATM    3  O   UNL     1       5.350  28.431  55.144  1.00  0.00    -0.264 OA
HETATM    4  H   UNL     1       6.951  30.087  55.825  1.00  0.00     0.190 HD
ENDROOT
BRANCH   2   5
HETATM    5  N   UNL     1       8.793  29.205  55.505  1.00  0.00    -0.265 N 
HETATM    6  C   UNL     1       9.595  29.654  56.536  1.00  0.00     0.260 C 
HETATM    7  O   UNL     1      10.762  29.949  56.279  1.00  0.00    -0.269 OA
HETATM    8  H   UNL     1       9.219  29.245  54.581  1.00  0.00     0.190 HD
BRANCH   6   9
HETATM    9  C   UNL     1       8.992  29.697  57.947  1.00  0.00     0.280 C 
BRANCH   9  10
HETATM   10  O   UNL     1       8.249  30.877  58.242  1.00  0.00    -0.342 OA
BRANCH  10  11
HETATM   11  C   UNL     1       8.219  31.197  59.573  1.00  0.00     0.070 A 
HETATM   12  C   UNL     1       7.295  32.163  59.970  1.00  0.00     0.049 A 
HETATM   13  C   UNL     1       7.244  32.603  61.304  1.00  0.00    -0.023 A 
HETATM   14  C   UNL     1       8.155  32.071  62.243  1.00  0.00    -0.026 A 
HETATM   15  C   UNL     1       6.315  33.571  61.722  1.00  0.00     0.012 A 
HETATM   16  C   UNL     1       9.086  31.106  61.825  1.00  0.00     0.015 A 
HETATM   17  C   UNL     1       8.122  32.529  63.571  1.00  0.00     0.012 A 
HETATM   18  C   UNL     1       9.122  30.677  60.496  1.00  0.00     0.037 A 
HETATM   19  C   UNL     1       7.197  33.496  63.968  1.00  0.00     0.001 A 
HETATM   20  C   UNL     1       6.292  34.013  63.047  1.00  0.00     0.001 A 
ENDBRANCH  10  11
ENDBRANCH   9  10
ENDBRANCH   6   9
ENDBRANCH   2   5
BRANCH   1  21
HETATM   21  C   UNL     1       7.087  26.946  54.693  1.00  0.00     0.121 A 
HETATM   22  N   UNL     1       7.628  26.792  53.443  1.00  0.00    -0.272 N 
HETATM   23  N   UNL     1       7.919  25.526  53.121  1.00  0.00    -0.174 NA
HETATM   24  H   UNL     1       7.758  27.518  52.744  1.00  0.00     0.189 HD
HETATM   25  C   UNL     1       7.655  24.828  54.235  1.00  0.00     0.089 A 
HETATM   26  C   UNL     1       7.191  25.693  55.264  1.00  0.00     0.071 A 
BRANCH  25  27
HETATM   27  C   UNL     1       7.788  23.376  54.290  1.00  0.00    -0.006 A 
HETATM   28  C   UNL     1       7.664  22.685  55.503  1.00  0.00     0.014 A 
HETATM   29  C   UNL     1       7.744  21.291  55.532  1.00  0.00     0.001 A 
HETATM   30  C   UNL     1       7.941  20.576  54.352  1.00  0.00     0.000 A 
HETATM   31  C   UNL     1       8.069  21.254  53.141  1.00  0.00     0.001 A 
HETATM   32  C   UNL     1       7.998  22.648  53.111  1.00  0.00     0.014 A 
ENDBRANCH  25  27
ENDBRANCH   1  21
TORSDOF 6
ENDMDL
MODEL 3
REMARK VINA RESULT:     -11.2      1.566      2.389
REMARK  6 active torsions:
REMARK  status: ('A' for Active; 'I' for Inactive)
REMARK    1  A    between atoms: C_4  and  C_5 
REMARK    2  A    between atoms: C_9  and  C_10 
REMARK       I    between atoms: C_10  and  N_11 
REMARK    3  A    between atoms: N_11  and  N_12 
REMARK       I    between atoms: N_12  and  C_13 
REMARK    4  A    between atoms: C_13  and  C_14 
REMARK    5  A    between atoms: C_14  and  O_15 
REMARK    6  A    between atoms: O_15  and  C_16 
ROOT
HETATM    1  C   UNL     1       9.602  30.869  58.320  1.00  0.00     0.288 C 
HETATM    2  N   UNL     1       8.829  29.968  57.611  1.00  0.00    -0.262 N 
HETATM    3  O   UNL     1      10.660  31.242  57.813  1.00  0.00    -0.264 OA
HETATM    4  H   UNL     1       9.166  29.742  56.679  1.00  0.00     0.190 HD
ENDROOT
BRANCH   2   5
HETATM    5  N   UNL     1       7.563  29.518  57.966  1.00  0.00    -0.265 N 
HETATM    6  C   UNL     1       6.993  28.378  57.435  1.00  0.00     0.260 C 
HETATM    7  O   UNL     1       5.771  28.248  57.513  1.00  0.00    -0.269 OA
HETATM    8  H   UNL     1       6.900  30.213  58.302  1.00  0.00     0.190 HD
BRANCH   6   9
HETATM    9  C   UNL     1       7.930  27.320  56.836  1.00  0.00     0.280 C 
BRANCH   9  10
HETATM   10  O   UNL     1       7.405  26.629  55.706  1.00  0.00    -0.342 OA
BRANCH  10  11
HETATM   11  C   UNL     1       7.675  25.286  55.700  1.00  0.00     0.070 A 
HETATM   12  C   UNL     1       7.641  24.641  54.465  1.00  0.00     0.049 A 
HETATM   13  C   UNL     1       7.836  23.252  54.374  1.00  0.00    -0.023 A 
HETATM   14  C   UNL     1       8.050  22.505  55.555  1.00  0.00    -0.026 A 
HETATM   15  C   UNL     1       7.811  22.585  53.137  1.00  0.00     0.012 A 
HETATM   16  C   UNL     1       8.072  23.169  56.792  1.00  0.00     0.015 A 
HETATM   17  C   UNL     1       8.219  21.113  55.468  1.00  0.00     0.012 A 
HETATM   18  C   UNL     1       7.879  24.551  56.865  1.00  0.00     0.037 A 
HETATM   19  C   UNL     1       8.185  20.466  54.232  1.00  0.00     0.001 A 
HETATM   20  C   UNL     1       7.985  21.201  53.068  1.00  0.00     0.001 A 
ENDBRANCH  10  11
ENDBRANCH   9  10
ENDBRANCH   6   9
ENDBRANCH   2   5
BRANCH   1  21
HETATM   21  C   UNL     1       9.219  31.283  59.644  1.00  0.00     0.121 A 
HETATM   22  N   UNL     1       9.348  30.426  60.705  1.00  0.00    -0.272 N 
HETATM   23  N   UNL     1       8.798  30.870  61.842  1.00  0.00    -0.174 NA
HETATM   24  H   UNL     1       9.748  29.492  60.687  1.00  0.00     0.189 HD
HETATM   25  C   UNL     1       8.379  32.110  61.549  1.00  0.00     0.089 A 
HETATM   26  C   UNL     1       8.682  32.429  60.197  1.00  0.00     0.071 A 
BRANCH  25  27
HETATM   27  C   UNL     1       7.661  32.935  62.515  1.00  0.00    -0.006 A 
HETATM   28  C   UNL     1       6.675  33.839  62.101  1.00  0.00     0.014 A 
HETATM   29  C   UNL     1       5.962  34.586  63.042  1.00  0.00     0.001 A 
HETATM   30  C   UNL     1       6.222  34.430  64.403  1.00  0.00     0.000 A 
HETATM   31  C   UNL     1       7.203  33.534  64.825  1.00  0.00     0.001 A 
HETATM   32  C   UNL     1       7.924  32.794  63.885  1.00  0.00     0.014 A 
ENDBRANCH  25  27
ENDBRANCH   1  21
TORSDOF 6
ENDMDL
MODEL 4
REMARK VINA RESULT:     -10.9      2.200      3.275
REMARK  6 active torsions:
REMARK  status: ('A' for Active; 'I' for Inactive)
REMARK    1  A    between atoms: C_4  and  C_5 
REMARK    2  A    between atoms: C_9  and  C_10 
REMARK       I    between atoms: C_10  and  N_11 
REMARK    3  A    between atoms: N_11  and  N_12 
REMARK       I    between atoms: N_12  and  C_13 
REMARK    4  A    between atoms: C_13  and  C_14 
REMARK    5  A    between atoms: C_14  and  O_15 
REMARK    6  A    between atoms: O_15  and  C_16 
ROOT
HETATM    1  C   UNL     1       5.562  26.583  56.148  1.00  0.00     0.288 C 
HETATM    2  N   UNL     1       4.873  26.766  54.963  1.00  0.00    -0.262 N 
HETATM    3  O   UNL     1       5.321  25.568  56.802  1.00  0.00    -0.264 OA
HETATM    4  H   UNL     1       4.270  25.996  54.685  1.00  0.00     0.190 HD
ENDROOT
BRANCH   2   5
HETATM    5  N   UNL     1       5.085  27.784  54.041  1.00  0.00    -0.265 N 
HETATM    6  C   UNL     1       6.088  27.744  53.093  1.00  0.00     0.260 C 
HETATM    7  O   UNL     1       6.438  28.803  52.572  1.00  0.00    -0.269 OA
HETATM    8  H   UNL     1       4.776  28.718  54.301  1.00  0.00     0.190 HD
BRANCH   6   9
HETATM    9  C   UNL     1       6.660  26.372  52.711  1.00  0.00     0.280 C 
BRANCH   9  10
HETATM   10  O   UNL     1       7.750  25.933  53.516  1.00  0.00    -0.342 OA
BRANCH  10  11
HETATM   11  C   UNL     1       7.787  24.579  53.714  1.00  0.00     0.070 A 
HETATM   12  C   UNL     1       8.000  24.137  55.020  1.00  0.00     0.049 A 
HETATM   13  C   UNL     1       8.122  22.766  55.303  1.00  0.00    -0.023 A 
HETATM   14  C   UNL     1       8.046  21.832  54.245  1.00  0.00    -0.026 A 
HETATM   15  C   UNL     1       8.332  22.303  56.614  1.00  0.00     0.012 A 
HETATM   16  C   UNL     1       7.840  22.294  52.936  1.00  0.00     0.015 A 
HETATM   17  C   UNL     1       8.194  20.463  54.524  1.00  0.00     0.012 A 
HETATM   18  C   UNL     1       7.718  23.660  52.670  1.00  0.00     0.037 A 
HETATM   19  C   UNL     1       8.408  20.020  55.830  1.00  0.00     0.001 A 
HETATM   20  C   UNL     1       8.473  20.938  56.874  1.00  0.00     0.001 A 
ENDBRANCH  10  11
ENDBRANCH   9  10
ENDBRANCH   6   9
ENDBRANCH   2   5
BRANCH   1  21
HETATM   21  C   UNL     1       6.464  27.592  56.637  1.00  0.00     0.121 A 
HETATM   22  N   UNL     1       7.810  27.496  56.399  1.00  0.00    -0.272 N 
HETATM   23  N   UNL     1       8.551  28.399  57.052  1.00  0.00    -0.174 NA
HETATM   24  H   UNL     1       8.280  26.784  55.846  1.00  0.00     0.189 HD
HETATM   25  C   UNL     1       7.655  29.186  57.665  1.00  0.00     0.089 A 
HETATM   26  C   UNL     1       6.332  28.749  57.378  1.00  0.00     0.071 A 
BRANCH  25  27
HETATM   27  C   UNL     1       8.056  30.280  58.543  1.00  0.00    -0.006 A 
HETATM   28  C   UNL     1       9.408  30.586  58.745  1.00  0.00     0.014 A 
HETATM   29  C   UNL     1       9.775  31.668  59.548  1.00  0.00     0.001 A 
HETATM   30  C   UNL     1       8.796  32.457  60.150  1.00  0.00     0.000 A 
HETATM   31  C   UNL     1       7.448  32.160  59.957  1.00  0.00     0.001 A 
HETATM   32  C   UNL     1       7.079  31.073  59.163  1.00  0.00     0.014 A 
ENDBRANCH  25  27
ENDBRANCH   1  21
TORSDOF 6
ENDMDL
MODEL 5
REMARK VINA RESULT:     -10.7      1.896      2.833
REMARK  6 active torsions:
REMARK  status: ('A' for Active; 'I' for Inactive)
REMARK    1  A    between atoms: C_4  and  C_5 
REMARK    2  A    between atoms: C_9  and  C_10 
REMARK       I    between atoms: C_10  and  N_11 
REMARK    3  A    between atoms: N_11  and  N_12 
REMARK       I    between atoms: N_12  and  C_13 
REMARK    4  A    between atoms: C_13  and  C_14 
REMARK    5  A    between atoms: C_14  and  O_15 
REMARK    6  A    between atoms: O_15  and  C_16 
ROOT
HETATM    1  C   UNL     1       5.190  29.579  55.667  1.00  0.00     0.288 C 
HETATM    2  N   UNL     1       4.538  28.361  55.732  1.00  0.00    -0.262 N 
HETATM    3  O   UNL     1       4.981  30.290  54.684  1.00  0.00    -0.264 OA
HETATM    4  H   UNL     1       3.868  28.184  54.988  1.00  0.00     0.190 HD
ENDROOT
BRANCH   2   5
HETATM    5  N   UNL     1       4.560  27.477  56.804  1.00  0.00    -0.265 N 
HETATM    6  C   UNL     1       5.300  26.311  56.803  1.00  0.00     0.260 C 
HETATM    7  O   UNL     1       4.995  25.428  57.604  1.00  0.00    -0.269 OA
HETATM    8  H   UNL     1       3.748  27.470  57.418  1.00  0.00     0.190 HD
BRANCH   6   9
HETATM    9  C   UNL     1       6.493  26.220  55.842  1.00  0.00     0.280 C 
BRANCH   9  10
HETATM   10  O   UNL     1       6.164  25.809  54.518  1.00  0.00    -0.342 OA
BRANCH  10  11
HETATM   11  C   UNL     1       6.709  24.606  54.157  1.00  0.00     0.070 A 
HETATM   12  C   UNL     1       6.921  23.678  55.177  1.00  0.00     0.049 A 
HETATM   13  C   UNL     1       7.541  22.445  54.909  1.00  0.00    -0.023 A 
HETATM   14  C   UNL     1       7.969  22.158  53.593  1.00  0.00    -0.026 A 
HETATM   15  C   UNL     1       7.756  21.496  55.923  1.00  0.00     0.012 A 
HETATM   16  C   UNL     1       7.757  23.107  52.581  1.00  0.00     0.015 A 
HETATM   17  C   UNL     1       8.612  20.937  53.329  1.00  0.00     0.012 A 
HETATM   18  C   UNL     1       7.137  24.327  52.862  1.00  0.00     0.037 A 
HETATM   19  C   UNL     1       8.824  20.008  54.349  1.00  0.00     0.001 A 
HETATM   20  C   UNL     1       8.394  20.285  55.643  1.00  0.00     0.001 A 
ENDBRANCH  10  11
ENDBRANCH   9  10
ENDBRANCH   6   9
ENDBRANCH   2   5
BRANCH   1  21
HETATM   21  C   UNL     1       6.146  29.955  56.673  1.00  0.00     0.121 A 
HETATM   22  N   UNL     1       7.421  29.455  56.643  1.00  0.00    -0.272 N 
HETATM   23  N   UNL     1       8.153  29.745  57.725  1.00  0.00    -0.174 NA
HETATM   24  H   UNL     1       7.820  28.851  55.929  1.00  0.00     0.189 HD
HETATM   25  C   UNL     1       7.368  30.551  58.454  1.00  0.00     0.089 A 
HETATM   26  C   UNL     1       6.124  30.758  57.797  1.00  0.00     0.071 A 
BRANCH  25  27
HETATM   27  C   UNL     1       7.775  31.056  59.761  1.00  0.00    -0.006 A 
HETATM   28  C   UNL     1       6.970  31.958  60.469  1.00  0.00     0.014 A 
HETATM   29  C   UNL     1       7.349  32.394  61.741  1.00  0.00     0.001 A 
HETATM   30  C   UNL     1       8.530  31.928  62.318  1.00  0.00     0.000 A 
HETATM   31  C   UNL     1       9.339  31.033  61.620  1.00  0.00     0.001 A 
HETATM   32  C   UNL     1       8.966  30.603  60.345  1.00  0.00     0.014 A 
ENDBRANCH  25  27
ENDBRANCH   1  21
TORSDOF 6
ENDMDL
MODEL 6
REMARK VINA RESULT:     -10.2      1.652      2.355
REMARK  6 active torsions:
REMARK  status: ('A' for Active; 'I' for Inactive)
REMARK    1  A    between atoms: C_4  and  C_5 
REMARK    2  A    between atoms: C_9  and  C_10 
REMARK       I    between atoms: C_10  and  N_11 
REMARK    3  A    between atoms: N_11  and  N_12 
REMARK       I    between atoms: N_12  and  C_13 
REMARK    4  A    between atoms: C_13  and  C_14 
REMARK    5  A    between atoms: C_14  and  O_15 
REMARK    6  A    between atoms: O_15  and  C_16 
ROOT
HETATM    1  C   UNL     1       8.601  29.032  55.003  1.00  0.00     0.288 C 
HETATM    2  N   UNL     1       7.648  28.623  54.088  1.00  0.00    -0.262 N 
HETATM    3  O   UNL     1       9.783  28.987  54.660  1.00  0.00    -0.264 OA
HETATM    4  H   UNL     1       8.001  28.389  53.164  1.00  0.00     0.190 HD
ENDROOT
BRANCH   2   5
HETATM    5  N   UNL     1       6.270  28.705  54.250  1.00  0.00    -0.265 N 
HETATM    6  C   UNL     1       5.425  27.629  54.061  1.00  0.00     0.260 C 
HETATM    7  O   UNL     1       4.231  27.854  53.867  1.00  0.00    -0.269 OA
HETATM    8  H   UNL     1       5.839  29.617  54.119  1.00  0.00     0.190 HD
BRANCH   6   9
HETATM    9  C   UNL     1       6.025  26.219  54.165  1.00  0.00     0.280 C 
BRANCH   9  10
HETATM   10  O   UNL     1       6.945  26.039  55.238  1.00  0.00    -0.342 OA
BRANCH  10  11
HETATM   11  C   UNL     1       7.453  24.771  55.328  1.00  0.00     0.070 A 
HETATM   12  C   UNL     1       7.445  24.004  54.163  1.00  0.00     0.049 A 
HETATM   13  C   UNL     1       7.882  22.668  54.180  1.00  0.00    -0.023 A 
HETATM   14  C   UNL     1       8.315  22.097  55.398  1.00  0.00    -0.026 A 
HETATM   15  C   UNL     1       7.886  21.882  53.015  1.00  0.00     0.012 A 
HETATM   16  C   UNL     1       8.308  22.881  56.563  1.00  0.00     0.015 A 
HETATM   17  C   UNL     1       8.727  20.754  55.422  1.00  0.00     0.012 A 
HETATM   18  C   UNL     1       7.873  24.208  56.530  1.00  0.00     0.037 A 
HETATM   19  C   UNL     1       8.719  19.986  54.257  1.00  0.00     0.001 A 
HETATM   20  C   UNL     1       8.303  20.549  53.055  1.00  0.00     0.001 A 
ENDBRANCH  10  11
ENDBRANCH   9  10
ENDBRANCH   6   9
ENDBRANCH   2   5
BRANCH   1  21
HETATM   21  C   UNL     1       8.223  29.411  56.338  1.00  0.00     0.121 A 
HETATM   22  N   UNL     1       6.905  29.423  56.711  1.00  0.00    -0.272 N 
HETATM   23  N   UNL     1       6.678  29.958  57.917  1.00  0.00    -0.174 NA
HETATM   24  H   UNL     1       6.111  29.135  56.145  1.00  0.00     0.189 HD
HETATM   25  C   UNL     1       7.900  30.217  58.403  1.00  0.00     0.089 A 
HETATM   26  C   UNL     1       8.898  29.829  57.467  1.00  0.00     0.071 A 
BRANCH  25  27
HETATM   27  C   UNL     1       8.100  30.867  59.694  1.00  0.00    -0.006 A 
HETATM   28  C   UNL     1       9.182  30.526  60.515  1.00  0.00     0.014 A 
HETATM   29  C   UNL     1       9.388  31.192  61.725  1.00  0.00     0.001 A 
HETATM   30  C   UNL     1       8.519  32.209  62.122  1.00  0.00     0.000 A 
HETATM   31  C   UNL     1       7.438  32.554  61.313  1.00  0.00     0.001 A 
HETATM   32  C   UNL     1       7.226  31.882  60.108  1.00  0.00     0.014 A 
ENDBRANCH  25  27
ENDBRANCH   1  21
TORSDOF 6
ENDMDL
MODEL 7
REMARK VINA RESULT:     -10.1      1.927      9.597
REMARK  6 active torsions:
REMARK  status: ('A' for Active; 'I' for Inactive)
REMARK    1  A    between atoms: C_4  and  C_5 
REMARK    2  A    between atoms: C_9  and  C_10 
REMARK       I    between atoms: C_10  and  N_11 
REMARK    3  A    between atoms: N_11  and  N_12 
REMARK       I    between atoms: N_12  and  C_13 
REMARK    4  A    between atoms: C_13  and  C_14 
REMARK    5  A    between atoms: C_14  and  O_15 
REMARK    6  A    between atoms: O_15  and  C_16 
ROOT
HETATM    1  C   UNL     1       7.972  28.092  56.102  1.00  0.00     0.288 C 
HETATM    2  N   UNL     1       7.256  29.134  55.542  1.00  0.00    -0.262 N 
HETATM    3  O   UNL     1       8.985  28.372  56.744  1.00  0.00    -0.264 OA
HETATM    4  H   UNL     1       7.586  30.067  55.776  1.00  0.00     0.190 HD
ENDROOT
BRANCH   2   5
HETATM    5  N   UNL     1       6.037  29.028  54.882  1.00  0.00    -0.265 N 
HETATM    6  C   UNL     1       4.822  29.228  55.507  1.00  0.00     0.260 C 
HETATM    7  O   UNL     1       3.811  28.772  54.973  1.00  0.00    -0.269 OA
HETATM    8  H   UNL     1       6.004  28.427  54.061  1.00  0.00     0.190 HD
BRANCH   6   9
HETATM    9  C   UNL     1       4.809  30.059  56.798  1.00  0.00     0.280 C 
BRANCH   9  10
HETATM   10  O   UNL     1       5.676  31.189  56.790  1.00  0.00    -0.342 OA
BRANCH  10  11
HETATM   11  C   UNL     1       6.061  31.604  58.037  1.00  0.00     0.070 A 
HETATM   12  C   UNL     1       7.262  31.095  58.529  1.00  0.00     0.049 A 
HETATM   13  C   UNL     1       7.698  31.412  59.828  1.00  0.00    -0.023 A 
HETATM   14  C   UNL     1       6.895  32.239  60.644  1.00  0.00    -0.026 A 
HETATM   15  C   UNL     1       8.910  30.913  60.338  1.00  0.00     0.012 A 
HETATM   16  C   UNL     1       5.684  32.735  60.137  1.00  0.00     0.015 A 
HETATM   17  C   UNL     1       7.317  32.535  61.951  1.00  0.00     0.012 A 
HETATM   18  C   UNL     1       5.265  32.414  58.843  1.00  0.00     0.037 A 
HETATM   19  C   UNL     1       8.520  32.026  62.444  1.00  0.00     0.001 A 
HETATM   20  C   UNL     1       9.317  31.220  61.638  1.00  0.00     0.001 A 
ENDBRANCH  10  11
ENDBRANCH   9  10
ENDBRANCH   6   9
ENDBRANCH   2   5
BRANCH   1  21
HETATM   21  C   UNL     1       7.591  26.726  55.864  1.00  0.00     0.121 A 
HETATM   22  N   UNL     1       6.705  26.096  56.698  1.00  0.00    -0.272 N 
HETATM   23  N   UNL     1       6.570  24.784  56.468  1.00  0.00    -0.174 NA
HETATM   24  H   UNL     1       6.214  26.508  57.486  1.00  0.00     0.189 HD
HETATM   25  C   UNL     1       7.317  24.557  55.378  1.00  0.00     0.089 A 
HETATM   26  C   UNL     1       7.923  25.763  54.932  1.00  0.00     0.071 A 
BRANCH  25  27
HETATM   27  C   UNL     1       7.489  23.219  54.821  1.00  0.00    -0.006 A 
HETATM   28  C   UNL     1       7.583  23.020  53.437  1.00  0.00     0.014 A 
HETATM   29  C   UNL     1       7.797  21.739  52.921  1.00  0.00     0.001 A 
HETATM   30  C   UNL     1       7.926  20.650  53.782  1.00  0.00     0.000 A 
HETATM   31  C   UNL     1       7.832  20.837  55.160  1.00  0.00     0.001 A 
HETATM   32  C   UNL     1       7.608  22.115  55.677  1.00  0.00     0.014 A 
ENDBRANCH  25  27
ENDBRANCH   1  21
TORSDOF 6
ENDMDL
MODEL 8
REMARK VINA RESULT:     -10.0      6.367     10.124
REMARK  6 active torsions:
REMARK  status: ('A' for Active; 'I' for Inactive)
REMARK    1  A    between atoms: C_4  and  C_5 
REMARK    2  A    between atoms: C_9  and  C_10 
REMARK       I    between atoms: C_10  and  N_11 
REMARK    3  A    between atoms: N_11  and  N_12 
REMARK       I    between atoms: N_12  and  C_13 
REMARK    4  A    between atoms: C_13  and  C_14 
REMARK    5  A    between atoms: C_14  and  O_15 
REMARK    6  A    between atoms: O_15  and  C_16 
ROOT
HETATM    1  C   UNL     1       5.276  28.821  50.607  1.00  0.00     0.288 C 
HETATM    2  N   UNL     1       5.312  28.097  51.785  1.00  0.00    -0.262 N 
HETATM    3  O   UNL     1       5.992  29.819  50.524  1.00  0.00    -0.264 OA
HETATM    4  H   UNL     1       5.996  28.410  52.469  1.00  0.00     0.190 HD
ENDROOT
BRANCH   2   5
HETATM    5  N   UNL     1       4.665  26.891  52.025  1.00  0.00    -0.265 N 
HETATM    6  C   UNL     1       5.252  25.663  51.796  1.00  0.00     0.260 C 
HETATM    7  O   UNL     1       4.520  24.680  51.684  1.00  0.00    -0.269 OA
HETATM    8  H   UNL     1       3.648  26.895  51.990  1.00  0.00     0.190 HD
BRANCH   6   9
HETATM    9  C   UNL     1       6.786  25.598  51.755  1.00  0.00     0.280 C 
BRANCH   9  10
HETATM   10  O   UNL     1       7.430  25.903  52.989  1.00  0.00    -0.342 OA
BRANCH  10  11
HETATM   11  C   UNL     1       7.613  24.818  53.803  1.00  0.00     0.070 A 
HETATM   12  C   UNL     1       8.009  23.629  53.191  1.00  0.00     0.049 A 
HETATM   13  C   UNL     1       8.152  22.448  53.941  1.00  0.00    -0.023 A 
HETATM   14  C   UNL     1       7.870  22.470  55.326  1.00  0.00    -0.026 A 
HETATM   15  C   UNL     1       8.556  21.242  53.342  1.00  0.00     0.012 A 
HETATM   16  C   UNL     1       7.463  23.673  55.924  1.00  0.00     0.015 A 
HETATM   17  C   UNL     1       7.987  21.284  56.071  1.00  0.00     0.012 A 
HETATM   18  C   UNL     1       7.328  24.839  55.166  1.00  0.00     0.037 A 
HETATM   19  C   UNL     1       8.384  20.094  55.459  1.00  0.00     0.001 A 
HETATM   20  C   UNL     1       8.671  20.074  54.098  1.00  0.00     0.001 A 
ENDBRANCH  10  11
ENDBRANCH   9  10
ENDBRANCH   6   9
ENDBRANCH   2   5
BRANCH   1  21
HETATM   21  C   UNL     1       4.365  28.464  49.553  1.00  0.00     0.121 A 
HETATM   22  N   UNL     1       4.770  27.645  48.532  1.00  0.00    -0.272 N 
HETATM   23  N   UNL     1       3.886  27.532  47.532  1.00  0.00    -0.174 NA
HETATM   24  H   UNL     1       5.673  27.189  48.440  1.00  0.00     0.189 HD
HETATM   25  C   UNL     1       2.816  28.221  47.953  1.00  0.00     0.089 A 
HETATM   26  C   UNL     1       3.054  28.768  49.244  1.00  0.00     0.071 A 
BRANCH  25  27
HETATM   27  C   UNL     1       1.630  28.397  47.121  1.00  0.00    -0.006 A 
HETATM   28  C   UNL     1       1.211  29.673  46.722  1.00  0.00     0.014 A 
HETATM   29  C   UNL     1       0.103  29.822  45.884  1.00  0.00     0.001 A 
HETATM   30  C   UNL     1      -0.589  28.699  45.432  1.00  0.00     0.000 A 
HETATM   31  C   UNL     1      -0.181  27.425  45.825  1.00  0.00     0.001 A 
HETATM   32  C   UNL     1       0.920  27.275  46.670  1.00  0.00     0.014 A 
ENDBRANCH  25  27
ENDBRANCH   1  21
TORSDOF 6
ENDMDL
MODEL 9
REMARK VINA RESULT:      -9.7      4.914      8.461
REMARK  6 active torsions:
REMARK  status: ('A' for Active; 'I' for Inactive)
REMARK    1  A    between atoms: C_4  and  C_5 
REMARK    2  A    between atoms: C_9  and  C_10 
REMARK       I    between atoms: C_10  and  N_11 
REMARK    3  A    between atoms: N_11  and  N_12 
REMARK       I    between atoms: N_12  and  C_13 
REMARK    4  A    between atoms: C_13  and  C_14 
REMARK    5  A    between atoms: C_14  and  O_15 
REMARK    6  A    between atoms: O_15  and  C_16 
ROOT
HETATM    1  C   UNL     1       4.119  29.597  54.248  1.00  0.00     0.288 C 
HETATM    2  N   UNL     1       5.375  29.288  54.738  1.00  0.00    -0.262 N 
HETATM    3  O   UNL     1       3.271  29.993  55.049  1.00  0.00    -0.264 OA
HETATM    4  H   UNL     1       5.521  29.490  55.724  1.00  0.00     0.190 HD
ENDROOT
BRANCH   2   5
HETATM    5  N   UNL     1       6.485  28.935  53.981  1.00  0.00    -0.265 N 
HETATM    6  C   UNL     1       7.423  28.014  54.404  1.00  0.00     0.260 C 
HETATM    7  O   UNL     1       8.531  28.024  53.868  1.00  0.00    -0.269 OA
HETATM    8  H   UNL     1       6.827  29.619  53.309  1.00  0.00     0.190 HD
BRANCH   6   9
HETATM    9  C   UNL     1       7.000  27.001  55.477  1.00  0.00     0.280 C 
BRANCH   9  10
HETATM   10  O   UNL     1       5.985  26.087  55.068  1.00  0.00    -0.342 OA
BRANCH  10  11
HETATM   11  C   UNL     1       6.468  24.919  54.542  1.00  0.00     0.070 A 
HETATM   12  C   UNL     1       6.884  23.943  55.447  1.00  0.00     0.049 A 
HETATM   13  C   UNL     1       7.458  22.742  54.995  1.00  0.00    -0.023 A 
HETATM   14  C   UNL     1       7.629  22.537  53.607  1.00  0.00    -0.026 A 
HETATM   15  C   UNL     1       7.877  21.746  55.893  1.00  0.00     0.012 A 
HETATM   16  C   UNL     1       7.214  23.534  52.711  1.00  0.00     0.015 A 
HETATM   17  C   UNL     1       8.227  21.348  53.156  1.00  0.00     0.012 A 
HETATM   18  C   UNL     1       6.642  24.721  53.175  1.00  0.00     0.037 A 
HETATM   19  C   UNL     1       8.643  20.371  54.061  1.00  0.00     0.001 A 
HETATM   20  C   UNL     1       8.466  20.567  55.427  1.00  0.00     0.001 A 
ENDBRANCH  10  11
ENDBRANCH   9  10
ENDBRANCH   6   9
ENDBRANCH   2   5
BRANCH   1  21
HETATM   21  C   UNL     1       3.795  29.376  52.864  1.00  0.00     0.121 A 
HETATM   22  N   UNL     1       2.900  30.190  52.221  1.00  0.00    -0.272 N 
HETATM   23  N   UNL     1       2.559  29.774  50.996  1.00  0.00    -0.174 NA
HETATM   24  H   UNL     1       2.440  31.011  52.605  1.00  0.00     0.189 HD
HETATM   25  C   UNL     1       3.332  28.700  50.779  1.00  0.00     0.089 A 
HETATM   26  C   UNL     1       4.168  28.456  51.904  1.00  0.00     0.071 A 
BRANCH  25  27
HETATM   27  C   UNL     1       3.231  27.904  49.561  1.00  0.00    -0.006 A 
HETATM   28  C   UNL     1       2.096  27.978  48.742  1.00  0.00     0.014 A 
HETATM   29  C   UNL     1       2.034  27.247  47.554  1.00  0.00     0.001 A 
HETATM   30  C   UNL     1       3.107  26.442  47.170  1.00  0.00     0.000 A 
HETATM   31  C   UNL     1       4.239  26.360  47.978  1.00  0.00     0.001 A 
HETATM   32  C   UNL     1       4.298  27.082  49.172  1.00  0.00     0.014 A 
ENDBRANCH  25  27
ENDBRANCH   1  21
TORSDOF 6
ENDMDL
MODEL 10
REMARK VINA RESULT:      -9.6      5.976      8.545
REMARK  6 active torsions:
REMARK  status: ('A' for Active; 'I' for Inactive)
REMARK    1  A    between atoms: C_4  and  C_5 
REMARK    2  A    between atoms: C_9  and  C_10 
REMARK       I    between atoms: C_10  and  N_11 
REMARK    3  A    between atoms: N_11  and  N_12 
REMARK       I    between atoms: N_12  and  C_13 
REMARK    4  A    between atoms: C_13  and  C_14 
REMARK    5  A    between atoms: C_14  and  O_15 
REMARK    6  A    between atoms: O_15  and  C_16 
ROOT
HETATM    1  C   UNL     1       4.591  26.954  50.389  1.00  0.00     0.288 C 
HETATM    2  N   UNL     1       4.450  26.645  51.730  1.00  0.00    -0.262 N 
HETATM    3  O   UNL     1       4.825  26.031  49.609  1.00  0.00    -0.264 OA
HETATM    4  H   UNL     1       4.475  25.654  51.955  1.00  0.00     0.190 HD
ENDROOT
BRANCH   2   5
HETATM    5  N   UNL     1       4.079  27.527  52.738  1.00  0.00    -0.265 N 
HETATM    6  C   UNL     1       4.845  27.747  53.865  1.00  0.00     0.260 C 
HETATM    7  O   UNL     1       4.300  28.240  54.852  1.00  0.00    -0.269 OA
HETATM    8  H   UNL     1       3.084  27.711  52.852  1.00  0.00     0.190 HD
BRANCH   6   9
HETATM    9  C   UNL     1       6.342  27.414  53.791  1.00  0.00     0.280 C 
BRANCH   9  10
HETATM   10  O   UNL     1       6.801  26.500  54.783  1.00  0.00    -0.342 OA
BRANCH  10  11
HETATM   11  C   UNL     1       7.087  25.252  54.300  1.00  0.00     0.070 A 
HETATM   12  C   UNL     1       7.165  24.217  55.231  1.00  0.00     0.049 A 
HETATM   13  C   UNL     1       7.523  22.917  54.833  1.00  0.00    -0.023 A 
HETATM   14  C   UNL     1       7.824  22.669  53.475  1.00  0.00    -0.026 A 
HETATM   15  C   UNL     1       7.601  21.861  55.757  1.00  0.00     0.012 A 
HETATM   16  C   UNL     1       7.750  23.724  52.552  1.00  0.00     0.015 A 
HETATM   17  C   UNL     1       8.208  21.376  53.080  1.00  0.00     0.012 A 
HETATM   18  C   UNL     1       7.390  25.010  52.963  1.00  0.00     0.037 A 
HETATM   19  C   UNL     1       8.286  20.340  54.011  1.00  0.00     0.001 A 
HETATM   20  C   UNL     1       7.980  20.580  55.347  1.00  0.00     0.001 A 
ENDBRANCH  10  11
ENDBRANCH   9  10
ENDBRANCH   6   9
ENDBRANCH   2   5
BRANCH   1  21
HETATM   21  C   UNL     1       4.552  28.321  49.941  1.00  0.00     0.121 A 
HETATM   22  N   UNL     1       3.353  28.952  49.738  1.00  0.00    -0.272 N 
HETATM   23  N   UNL     1       3.454  30.154  49.159  1.00  0.00    -0.174 NA
HETATM   24  H   UNL     1       2.428  28.572  49.919  1.00  0.00     0.189 HD
HETATM   25  C   UNL     1       4.774  30.371  49.068  1.00  0.00     0.089 A 
HETATM   26  C   UNL     1       5.496  29.271  49.606  1.00  0.00     0.071 A 
BRANCH  25  27
HETATM   27  C   UNL     1       5.322  31.566  48.434  1.00  0.00    -0.006 A 
HETATM   28  C   UNL     1       6.240  32.384  49.106  1.00  0.00     0.014 A 
HETATM   29  C   UNL     1       6.793  33.496  48.467  1.00  0.00     0.001 A 
HETATM   30  C   UNL     1       6.440  33.796  47.152  1.00  0.00     0.000 A 
HETATM   31  C   UNL     1       5.526  32.990  46.476  1.00  0.00     0.001 A 
HETATM   32  C   UNL     1       4.965  31.883  47.116  1.00  0.00     0.014 A 
ENDBRANCH  25  27
ENDBRANCH   1  21
TORSDOF 6
ENDMDL
