MODEL 1
REMARK VINA RESULT:     -10.1      0.000      0.000
REMARK  2 active torsions:
REMARK  status: ('A' for Active; 'I' for Inactive)
REMARK    1  A    between atoms: O_2  and  C_3 
REMARK    2  A    between atoms: C_5  and  N_6 
ROOT
HETATM    1  N   UNL     1       6.173  25.976  54.842  1.00  0.00    -0.252 N 
HETATM    2  C   UNL     1       5.410  26.566  55.830  1.00  0.00     0.239 C 
HETATM    3  O   UNL     1       5.334  26.324  57.024  1.00  0.00    -0.272 OA
HETATM    4  C   UNL     1       4.709  27.752  55.259  1.00  0.00     0.145 C 
HETATM    5  C   UNL     1       4.938  27.642  53.769  1.00  0.00     0.126 C 
HETATM    6  C   UNL     1       6.112  26.709  53.676  1.00  0.00     0.238 C 
HETATM    7  O   UNL     1       6.835  26.703  52.691  1.00  0.00    -0.272 OA
HETATM    8  C   UNL     1       5.299  29.086  55.705  1.00  0.00     0.250 A 
HETATM    9  C   UNL     1       4.529  29.627  56.959  1.00  0.00     0.264 A 
HETATM   10  O   UNL     1       3.330  29.843  57.026  1.00  0.00    -0.270 OA
HETATM   11  N   UNL     1       5.462  29.886  57.945  1.00  0.00    -0.324 N 
HETATM   12  C   UNL     1       6.749  29.611  57.510  1.00  0.00     0.044 A 
HETATM   13  C   UNL     1       6.735  29.151  56.189  1.00  0.00     0.015 A 
HETATM   14  C   UNL     1       7.910  29.788  58.231  1.00  0.00     0.030 A 
HETATM   15  C   UNL     1       9.114  29.505  57.587  1.00  0.00     0.002 A 
HETATM   16  C   UNL     1       9.126  29.064  56.254  1.00  0.00     0.001 A 
HETATM   17  C   UNL     1       7.935  28.889  55.542  1.00  0.00     0.012 A 
HETATM   18  N   UNL     1       5.136  29.958  54.446  1.00  0.00    -0.043 N 
HETATM   19  H   UNL     1       5.906  30.645  54.431  1.00  0.00     0.282 HD
HETATM   20  C   UNL     1       5.237  29.035  53.232  1.00  0.00     0.204 C 
HETATM   21  C   UNL     1       3.853  30.743  54.293  1.00  0.00     0.237 C 
HETATM   22  C   UNL     1       3.795  30.942  52.793  1.00  0.00     0.030 C 
HETATM   23  C   UNL     1       4.180  29.571  52.260  1.00  0.00     0.036 C 
HETATM   24  H   UNL     1       5.221  30.234  58.866  1.00  0.00     0.169 HD
ENDROOT
BRANCH   1  25
HETATM   25  C   UNL     1       7.011  24.839  55.061  1.00  0.00     0.048 A 
HETATM   26  C   UNL     1       6.906  23.702  54.242  1.00  0.00     0.066 A 
HETATM   27  C   UNL     1       7.744  22.588  54.401  1.00  0.00     0.070 A 
HETATM   28  C   UNL     1       8.695  22.587  55.413  1.00  0.00     0.037 A 
HETATM   29  C   UNL     1       8.819  23.701  56.241  1.00  0.00     0.005 A 
HETATM   30  C   UNL     1       7.995  24.819  56.059  1.00  0.00     0.030 A 
BRANCH  27  31
HETATM   31  O   UNL     1       7.528  21.586  53.496  1.00  0.00    -0.356 OA
HETATM   32  C   UNL     1       8.568  20.631  53.325  1.00  0.00     0.210 C 
ENDBRANCH  27  31
ENDBRANCH   1  25
TORSDOF 2
ENDMDL
MODEL 2
REMARK VINA RESULT:      -9.0      2.554      6.170
REMARK  2 active torsions:
REMARK  status: ('A' for Active; 'I' for Inactive)
REMARK    1  A    between atoms: O_2  and  C_3 
REMARK    2  A    between atoms: C_5  and  N_6 
ROOT
HETATM    1  N   UNL     1       4.991  27.490  52.625  1.00  0.00    -0.252 N 
HETATM    2  C   UNL     1       4.642  26.635  53.651  1.00  0.00     0.239 C 
HETATM    3  O   UNL     1       3.955  25.627  53.644  1.00  0.00    -0.272 OA
HETATM    4  C   UNL     1       5.382  27.031  54.885  1.00  0.00     0.145 C 
HETATM    5  C   UNL     1       6.001  28.364  54.539  1.00  0.00     0.126 C 
HETATM    6  C   UNL     1       5.964  28.376  53.038  1.00  0.00     0.238 C 
HETATM    7  O   UNL     1       6.728  29.078  52.394  1.00  0.00    -0.272 OA
HETATM    8  C   UNL     1       6.523  26.085  55.244  1.00  0.00     0.250 A 
HETATM    9  C   UNL     1       6.031  25.002  56.264  1.00  0.00     0.264 A 
HETATM   10  O   UNL     1       5.528  25.220  57.354  1.00  0.00    -0.270 OA
HETATM   11  N   UNL     1       6.339  23.761  55.739  1.00  0.00    -0.324 N 
HETATM   12  C   UNL     1       6.988  23.872  54.520  1.00  0.00     0.044 A 
HETATM   13  C   UNL     1       7.150  25.217  54.170  1.00  0.00     0.015 A 
HETATM   14  C   UNL     1       7.459  22.833  53.747  1.00  0.00     0.030 A 
HETATM   15  C   UNL     1       8.139  23.163  52.576  1.00  0.00     0.002 A 
HETATM   16  C   UNL     1       8.334  24.506  52.215  1.00  0.00     0.001 A 
HETATM   17  C   UNL     1       7.845  25.545  53.014  1.00  0.00     0.012 A 
HETATM   18  N   UNL     1       7.582  27.047  55.816  1.00  0.00    -0.043 N 
HETATM   19  H   UNL     1       8.514  26.654  55.612  1.00  0.00     0.282 HD
HETATM   20  C   UNL     1       7.416  28.389  55.102  1.00  0.00     0.204 C 
HETATM   21  C   UNL     1       7.547  27.334  57.299  1.00  0.00     0.237 C 
HETATM   22  C   UNL     1       8.250  28.673  57.368  1.00  0.00     0.030 C 
HETATM   23  C   UNL     1       7.634  29.433  56.203  1.00  0.00     0.036 C 
HETATM   24  H   UNL     1       6.112  22.887  56.200  1.00  0.00     0.169 HD
ENDROOT
BRANCH   1  25
HETATM   25  C   UNL     1       4.499  27.366  51.289  1.00  0.00     0.048 A 
HETATM   26  C   UNL     1       3.587  28.301  50.770  1.00  0.00     0.066 A 
HETATM   27  C   UNL     1       3.121  28.234  49.449  1.00  0.00     0.070 A 
HETATM   28  C   UNL     1       3.546  27.200  48.625  1.00  0.00     0.037 A 
HETATM   29  C   UNL     1       4.448  26.258  49.116  1.00  0.00     0.005 A 
HETATM   30  C   UNL     1       4.929  26.347  50.428  1.00  0.00     0.030 A 
BRANCH  27  31
HETATM   31  O   UNL     1       2.267  29.244  49.100  1.00  0.00    -0.356 OA
HETATM   32  C   UNL     1       1.562  29.891  50.153  1.00  0.00     0.210 C 
ENDBRANCH  27  31
ENDBRANCH   1  25
TORSDOF 2
ENDMDL
MODEL 3
REMARK VINA RESULT:      -8.8      1.576      2.010
REMARK  2 active torsions:
REMARK  status: ('A' for Active; 'I' for Inactive)
REMARK    1  A    between atoms: O_2  and  C_3 
REMARK    2  A    between atoms: C_5  and  N_6 
ROOT
HETATM    1  N   UNL     1       6.437  25.045  53.786  1.00  0.00    -0.252 N 
HETATM    2  C   UNL     1       5.459  25.807  54.393  1.00  0.00     0.239 C 
HETATM    3  O   UNL     1       5.107  25.862  55.560  1.00  0.00    -0.272 OA
HETATM    4  C   UNL     1       4.903  26.767  53.395  1.00  0.00     0.145 C 
HETATM    5  C   UNL     1       5.476  26.309  52.074  1.00  0.00     0.126 C 
HETATM    6  C   UNL     1       6.646  25.463  52.488  1.00  0.00     0.238 C 
HETATM    7  O   UNL     1       7.579  25.263  51.727  1.00  0.00    -0.272 OA
HETATM    8  C   UNL     1       5.361  28.206  53.608  1.00  0.00     0.250 A 
HETATM    9  C   UNL     1       4.315  28.986  54.475  1.00  0.00     0.264 A 
HETATM   10  O   UNL     1       3.132  29.131  54.213  1.00  0.00    -0.270 OA
HETATM   11  N   UNL     1       4.989  29.542  55.547  1.00  0.00    -0.324 N 
HETATM   12  C   UNL     1       6.344  29.255  55.498  1.00  0.00     0.044 A 
HETATM   13  C   UNL     1       6.643  28.484  54.369  1.00  0.00     0.015 A 
HETATM   14  C   UNL     1       7.302  29.681  56.392  1.00  0.00     0.030 A 
HETATM   15  C   UNL     1       8.625  29.329  56.129  1.00  0.00     0.002 A 
HETATM   16  C   UNL     1       8.953  28.576  54.991  1.00  0.00     0.001 A 
HETATM   17  C   UNL     1       7.963  28.152  54.097  1.00  0.00     0.012 A 
HETATM   18  N   UNL     1       5.492  28.728  52.165  1.00  0.00    -0.043 N 
HETATM   19  H   UNL     1       6.239  29.440  52.149  1.00  0.00     0.282 HD
HETATM   20  C   UNL     1       5.882  27.544  51.281  1.00  0.00     0.204 C 
HETATM   21  C   UNL     1       4.275  29.364  51.531  1.00  0.00     0.237 C 
HETATM   22  C   UNL     1       4.569  29.183  50.058  1.00  0.00     0.030 C 
HETATM   23  C   UNL     1       5.079  27.752  49.992  1.00  0.00     0.036 C 
HETATM   24  H   UNL     1       4.536  30.089  56.270  1.00  0.00     0.169 HD
ENDROOT
BRANCH   1  25
HETATM   25  C   UNL     1       7.209  24.055  54.470  1.00  0.00     0.048 A 
HETATM   26  C   UNL     1       7.851  23.028  53.759  1.00  0.00     0.066 A 
HETATM   27  C   UNL     1       8.653  22.068  54.394  1.00  0.00     0.070 A 
HETATM   28  C   UNL     1       8.803  22.109  55.774  1.00  0.00     0.037 A 
HETATM   29  C   UNL     1       8.174  23.116  56.505  1.00  0.00     0.005 A 
HETATM   30  C   UNL     1       7.396  24.085  55.858  1.00  0.00     0.030 A 
BRANCH  27  31
HETATM   31  O   UNL     1       9.230  21.164  53.546  1.00  0.00    -0.356 OA
HETATM   32  C   UNL     1       8.360  20.281  52.848  1.00  0.00     0.210 C 
ENDBRANCH  27  31
ENDBRANCH   1  25
TORSDOF 2
ENDMDL
MODEL 4
REMARK VINA RESULT:      -8.6      5.529      8.356
REMARK  2 active torsions:
REMARK  status: ('A' for Active; 'I' for Inactive)
REMARK    1  A    between atoms: O_2  and  C_3 
REMARK    2  A    between atoms: C_5  and  N_6 
ROOT
HETATM    1  N   UNL     1       4.056  32.495  59.097  1.00  0.00    -0.252 N 
HETATM    2  C   UNL     1       3.555  32.326  60.372  1.00  0.00     0.239 C 
HETATM    3  O   UNL     1       3.419  31.315  61.043  1.00  0.00    -0.272 OA
HETATM    4  C   UNL     1       3.293  33.666  60.973  1.00  0.00     0.145 C 
HETATM    5  C   UNL     1       3.449  34.630  59.820  1.00  0.00     0.126 C 
HETATM    6  C   UNL     1       4.232  33.834  58.816  1.00  0.00     0.238 C 
HETATM    7  O   UNL     1       4.894  34.386  57.952  1.00  0.00    -0.272 OA
HETATM    8  C   UNL     1       4.310  34.070  62.036  1.00  0.00     0.250 A 
HETATM    9  C   UNL     1       3.790  33.677  63.461  1.00  0.00     0.264 A 
HETATM   10  O   UNL     1       2.738  34.036  63.965  1.00  0.00    -0.270 OA
HETATM   11  N   UNL     1       4.770  32.916  64.070  1.00  0.00    -0.324 N 
HETATM   12  C   UNL     1       5.879  32.768  63.252  1.00  0.00     0.044 A 
HETATM   13  C   UNL     1       5.689  33.438  62.039  1.00  0.00     0.015 A 
HETATM   14  C   UNL     1       7.041  32.096  63.565  1.00  0.00     0.030 A 
HETATM   15  C   UNL     1       8.066  32.114  62.619  1.00  0.00     0.002 A 
HETATM   16  C   UNL     1       7.907  32.800  61.405  1.00  0.00     0.001 A 
HETATM   17  C   UNL     1       6.717  33.473  61.107  1.00  0.00     0.012 A 
HETATM   18  N   UNL     1       4.436  35.589  61.812  1.00  0.00    -0.043 N 
HETATM   19  H   UNL     1       5.395  35.871  62.071  1.00  0.00     0.282 HD
HETATM   20  C   UNL     1       4.198  35.856  60.326  1.00  0.00     0.204 C 
HETATM   21  C   UNL     1       3.497  36.495  62.575  1.00  0.00     0.237 C 
HETATM   22  C   UNL     1       3.488  37.730  61.701  1.00  0.00     0.030 C 
HETATM   23  C   UNL     1       3.373  37.148  60.301  1.00  0.00     0.036 C 
HETATM   24  H   UNL     1       4.676  32.522  65.000  1.00  0.00     0.169 HD
ENDROOT
BRANCH   1  25
HETATM   25  C   UNL     1       4.458  31.413  58.253  1.00  0.00     0.048 A 
HETATM   26  C   UNL     1       5.778  30.934  58.281  1.00  0.00     0.066 A 
HETATM   27  C   UNL     1       6.194  29.846  57.500  1.00  0.00     0.070 A 
HETATM   28  C   UNL     1       5.286  29.231  56.647  1.00  0.00     0.037 A 
HETATM   29  C   UNL     1       3.970  29.688  56.598  1.00  0.00     0.005 A 
HETATM   30  C   UNL     1       3.558  30.759  57.401  1.00  0.00     0.030 A 
BRANCH  27  31
HETATM   31  O   UNL     1       7.502  29.490  57.677  1.00  0.00    -0.356 OA
HETATM   32  C   UNL     1       8.141  29.940  58.866  1.00  0.00     0.210 C 
ENDBRANCH  27  31
ENDBRANCH   1  25
TORSDOF 2
ENDMDL
MODEL 5
REMARK VINA RESULT:      -8.6      7.945     11.902
REMARK  2 active torsions:
REMARK  status: ('A' for Active; 'I' for Inactive)
REMARK    1  A    between atoms: O_2  and  C_3 
REMARK    2  A    between atoms: C_5  and  N_6 
ROOT
HETATM    1  N   UNL     1       5.515  33.248  64.458  1.00  0.00    -0.252 N 
HETATM    2  C   UNL     1       4.410  33.082  63.648  1.00  0.00     0.239 C 
HETATM    3  O   UNL     1       3.243  33.395  63.823  1.00  0.00    -0.272 OA
HETATM    4  C   UNL     1       4.851  32.541  62.329  1.00  0.00     0.145 C 
HETATM    5  C   UNL     1       6.299  32.166  62.543  1.00  0.00     0.126 C 
HETATM    6  C   UNL     1       6.673  32.946  63.772  1.00  0.00     0.238 C 
HETATM    7  O   UNL     1       7.837  33.225  64.010  1.00  0.00    -0.272 OA
HETATM    8  C   UNL     1       4.816  33.570  61.204  1.00  0.00     0.250 A 
HETATM    9  C   UNL     1       3.456  33.484  60.430  1.00  0.00     0.264 A 
HETATM   10  O   UNL     1       3.005  32.491  59.883  1.00  0.00    -0.270 OA
HETATM   11  N   UNL     1       2.900  34.749  60.417  1.00  0.00    -0.324 N 
HETATM   12  C   UNL     1       3.715  35.669  61.057  1.00  0.00     0.044 A 
HETATM   13  C   UNL     1       4.876  35.050  61.532  1.00  0.00     0.015 A 
HETATM   14  C   UNL     1       3.473  37.018  61.193  1.00  0.00     0.030 A 
HETATM   15  C   UNL     1       4.453  37.784  61.824  1.00  0.00     0.002 A 
HETATM   16  C   UNL     1       5.637  37.189  62.289  1.00  0.00     0.001 A 
HETATM   17  C   UNL     1       5.860  35.816  62.141  1.00  0.00     0.012 A 
HETATM   18  N   UNL     1       6.043  33.177  60.358  1.00  0.00    -0.043 N 
HETATM   19  H   UNL     1       6.415  34.033  59.918  1.00  0.00     0.282 HD
HETATM   20  C   UNL     1       7.084  32.585  61.307  1.00  0.00     0.204 C 
HETATM   21  C   UNL     1       5.841  32.171  59.248  1.00  0.00     0.237 C 
HETATM   22  C   UNL     1       7.239  31.614  59.084  1.00  0.00     0.030 C 
HETATM   23  C   UNL     1       7.688  31.414  60.524  1.00  0.00     0.036 C 
HETATM   24  H   UNL     1       2.006  34.962  59.988  1.00  0.00     0.169 HD
ENDROOT
BRANCH   1  25
HETATM   25  C   UNL     1       5.455  33.792  65.778  1.00  0.00     0.048 A 
HETATM   26  C   UNL     1       6.620  33.928  66.552  1.00  0.00     0.066 A 
HETATM   27  C   UNL     1       6.603  34.499  67.833  1.00  0.00     0.070 A 
HETATM   28  C   UNL     1       5.397  34.924  68.375  1.00  0.00     0.037 A 
HETATM   29  C   UNL     1       4.225  34.799  67.630  1.00  0.00     0.005 A 
HETATM   30  C   UNL     1       4.257  34.251  66.342  1.00  0.00     0.030 A 
BRANCH  27  31
HETATM   31  O   UNL     1       7.830  34.585  68.429  1.00  0.00    -0.356 OA
HETATM   32  C   UNL     1       7.900  35.271  69.674  1.00  0.00     0.210 C 
ENDBRANCH  27  31
ENDBRANCH   1  25
TORSDOF 2
ENDMDL
MODEL 6
REMARK VINA RESULT:      -8.6      2.400      5.601
REMARK  2 active torsions:
REMARK  status: ('A' for Active; 'I' for Inactive)
REMARK    1  A    between atoms: O_2  and  C_3 
REMARK    2  A    between atoms: C_5  and  N_6 
ROOT
HETATM    1  N   UNL     1       5.974  26.874  52.880  1.00  0.00    -0.252 N 
HETATM    2  C   UNL     1       6.983  27.625  53.449  1.00  0.00     0.239 C 
HETATM    3  O   UNL     1       7.311  28.785  53.260  1.00  0.00    -0.272 OA
HETATM    4  C   UNL     1       7.624  26.831  54.538  1.00  0.00     0.145 C 
HETATM    5  C   UNL     1       7.054  25.442  54.374  1.00  0.00     0.126 C 
HETATM    6  C   UNL     1       5.822  25.676  53.547  1.00  0.00     0.238 C 
HETATM    7  O   UNL     1       4.897  24.880  53.556  1.00  0.00    -0.272 OA
HETATM    8  C   UNL     1       7.254  27.306  55.939  1.00  0.00     0.250 A 
HETATM    9  C   UNL     1       8.327  28.317  56.472  1.00  0.00     0.264 A 
HETATM   10  O   UNL     1       9.522  28.100  56.583  1.00  0.00    -0.270 OA
HETATM   11  N   UNL     1       7.665  29.466  56.861  1.00  0.00    -0.324 N 
HETATM   12  C   UNL     1       6.295  29.348  56.680  1.00  0.00     0.044 A 
HETATM   13  C   UNL     1       5.974  28.092  56.156  1.00  0.00     0.015 A 
HETATM   14  C   UNL     1       5.346  30.296  56.995  1.00  0.00     0.030 A 
HETATM   15  C   UNL     1       4.009  29.957  56.788  1.00  0.00     0.002 A 
HETATM   16  C   UNL     1       3.661  28.693  56.285  1.00  0.00     0.001 A 
HETATM   17  C   UNL     1       4.642  27.747  55.970  1.00  0.00     0.012 A 
HETATM   18  N   UNL     1       7.191  25.986  56.730  1.00  0.00    -0.043 N 
HETATM   19  H   UNL     1       6.491  26.096  57.481  1.00  0.00     0.282 HD
HETATM   20  C   UNL     1       6.747  24.890  55.761  1.00  0.00     0.204 C 
HETATM   21  C   UNL     1       8.460  25.497  57.389  1.00  0.00     0.237 C 
HETATM   22  C   UNL     1       8.190  24.012  57.508  1.00  0.00     0.030 C 
HETATM   23  C   UNL     1       7.592  23.673  56.151  1.00  0.00     0.036 C 
HETATM   24  H   UNL     1       8.135  30.284  57.231  1.00  0.00     0.169 HD
ENDROOT
BRANCH   1  25
HETATM   25  C   UNL     1       5.124  27.351  51.834  1.00  0.00     0.048 A 
HETATM   26  C   UNL     1       5.165  26.771  50.556  1.00  0.00     0.066 A 
HETATM   27  C   UNL     1       4.313  27.184  49.521  1.00  0.00     0.070 A 
HETATM   28  C   UNL     1       3.414  28.218  49.748  1.00  0.00     0.037 A 
HETATM   29  C   UNL     1       3.354  28.813  51.007  1.00  0.00     0.005 A 
HETATM   30  C   UNL     1       4.191  28.376  52.041  1.00  0.00     0.030 A 
BRANCH  27  31
HETATM   31  O   UNL     1       4.463  26.488  48.354  1.00  0.00    -0.356 OA
HETATM   32  C   UNL     1       3.379  25.659  47.949  1.00  0.00     0.210 C 
ENDBRANCH  27  31
ENDBRANCH   1  25
TORSDOF 2
ENDMDL
MODEL 7
REMARK VINA RESULT:      -7.9      7.414     10.917
REMARK  2 active torsions:
REMARK  status: ('A' for Active; 'I' for Inactive)
REMARK    1  A    between atoms: O_2  and  C_3 
REMARK    2  A    between atoms: C_5  and  N_6 
ROOT
HETATM    1  N   UNL     1       6.092  33.173  62.270  1.00  0.00    -0.252 N 
HETATM    2  C   UNL     1       6.224  34.545  62.346  1.00  0.00     0.239 C 
HETATM    3  O   UNL     1       6.579  35.355  61.505  1.00  0.00    -0.272 OA
HETATM    4  C   UNL     1       5.702  35.011  63.663  1.00  0.00     0.145 C 
HETATM    5  C   UNL     1       5.489  33.740  64.453  1.00  0.00     0.126 C 
HETATM    6  C   UNL     1       5.450  32.682  63.388  1.00  0.00     0.238 C 
HETATM    7  O   UNL     1       4.897  31.611  63.584  1.00  0.00    -0.272 OA
HETATM    8  C   UNL     1       4.351  35.713  63.572  1.00  0.00     0.250 A 
HETATM    9  C   UNL     1       4.551  37.263  63.456  1.00  0.00     0.264 A 
HETATM   10  O   UNL     1       5.152  37.969  64.249  1.00  0.00    -0.270 OA
HETATM   11  N   UNL     1       3.861  37.693  62.339  1.00  0.00    -0.324 N 
HETATM   12  C   UNL     1       3.211  36.644  61.708  1.00  0.00     0.044 A 
HETATM   13  C   UNL     1       3.439  35.443  62.390  1.00  0.00     0.015 A 
HETATM   14  C   UNL     1       2.413  36.732  60.589  1.00  0.00     0.030 A 
HETATM   15  C   UNL     1       1.801  35.560  60.144  1.00  0.00     0.002 A 
HETATM   16  C   UNL     1       1.996  34.348  60.825  1.00  0.00     0.001 A 
HETATM   17  C   UNL     1       2.813  34.282  61.959  1.00  0.00     0.012 A 
HETATM   18  N   UNL     1       3.657  35.267  64.873  1.00  0.00    -0.043 N 
HETATM   19  H   UNL     1       2.641  35.230  64.697  1.00  0.00     0.282 HD
HETATM   20  C   UNL     1       4.177  33.871  65.215  1.00  0.00     0.204 C 
HETATM   21  C   UNL     1       3.853  36.120  66.106  1.00  0.00     0.237 C 
HETATM   22  C   UNL     1       3.585  35.123  67.212  1.00  0.00     0.030 C 
HETATM   23  C   UNL     1       4.338  33.889  66.739  1.00  0.00     0.036 C 
HETATM   24  H   UNL     1       3.841  38.659  62.031  1.00  0.00     0.169 HD
ENDROOT
BRANCH   1  25
HETATM   25  C   UNL     1       6.455  32.403  61.121  1.00  0.00     0.048 A 
HETATM   26  C   UNL     1       5.633  32.384  59.982  1.00  0.00     0.066 A 
HETATM   27  C   UNL     1       5.981  31.677  58.822  1.00  0.00     0.070 A 
HETATM   28  C   UNL     1       7.162  30.946  58.796  1.00  0.00     0.037 A 
HETATM   29  C   UNL     1       7.995  30.946  59.914  1.00  0.00     0.005 A 
HETATM   30  C   UNL     1       7.651  31.677  61.058  1.00  0.00     0.030 A 
BRANCH  27  31
HETATM   31  O   UNL     1       5.084  31.796  57.797  1.00  0.00    -0.356 OA
HETATM   32  C   UNL     1       3.770  31.298  58.023  1.00  0.00     0.210 C 
ENDBRANCH  27  31
ENDBRANCH   1  25
TORSDOF 2
ENDMDL
MODEL 8
REMARK VINA RESULT:      -7.9      5.114      8.804
REMARK  2 active torsions:
REMARK  status: ('A' for Active; 'I' for Inactive)
REMARK    1  A    between atoms: O_2  and  C_3 
REMARK    2  A    between atoms: C_5  and  N_6 
ROOT
HETATM    1  N   UNL     1       4.278  31.386  49.264  1.00  0.00    -0.252 N 
HETATM    2  C   UNL     1       5.027  30.292  48.882  1.00  0.00     0.239 C 
HETATM    3  O   UNL     1       6.176  29.983  49.155  1.00  0.00    -0.272 OA
HETATM    4  C   UNL     1       4.155  29.346  48.126  1.00  0.00     0.145 C 
HETATM    5  C   UNL     1       2.882  30.123  47.884  1.00  0.00     0.126 C 
HETATM    6  C   UNL     1       2.956  31.222  48.904  1.00  0.00     0.238 C 
HETATM    7  O   UNL     1       1.948  31.792  49.291  1.00  0.00    -0.272 OA
HETATM    8  C   UNL     1       3.776  28.099  48.916  1.00  0.00     0.250 A 
HETATM    9  C   UNL     1       4.776  26.933  48.605  1.00  0.00     0.264 A 
HETATM   10  O   UNL     1       5.018  26.472  47.501  1.00  0.00    -0.270 OA
HETATM   11  N   UNL     1       5.274  26.474  49.809  1.00  0.00    -0.324 N 
HETATM   12  C   UNL     1       4.725  27.161  50.880  1.00  0.00     0.044 A 
HETATM   13  C   UNL     1       3.816  28.125  50.433  1.00  0.00     0.015 A 
HETATM   14  C   UNL     1       4.981  26.932  52.215  1.00  0.00     0.030 A 
HETATM   15  C   UNL     1       4.277  27.699  53.143  1.00  0.00     0.002 A 
HETATM   16  C   UNL     1       3.342  28.657  52.718  1.00  0.00     0.001 A 
HETATM   17  C   UNL     1       3.100  28.874  51.357  1.00  0.00     0.012 A 
HETATM   18  N   UNL     1       2.335  27.831  48.441  1.00  0.00    -0.043 N 
HETATM   19  H   UNL     1       1.820  27.387  49.217  1.00  0.00     0.282 HD
HETATM   20  C   UNL     1       1.705  29.182  48.103  1.00  0.00     0.204 C 
HETATM   21  C   UNL     1       2.144  26.945  47.231  1.00  0.00     0.237 C 
HETATM   22  C   UNL     1       0.787  27.395  46.735  1.00  0.00     0.030 C 
HETATM   23  C   UNL     1       0.878  28.909  46.841  1.00  0.00     0.036 C 
HETATM   24  H   UNL     1       5.955  25.727  49.885  1.00  0.00     0.169 HD
ENDROOT
BRANCH   1  25
HETATM   25  C   UNL     1       4.794  32.466  50.046  1.00  0.00     0.048 A 
HETATM   26  C   UNL     1       4.559  32.526  51.430  1.00  0.00     0.066 A 
HETATM   27  C   UNL     1       5.088  33.547  52.233  1.00  0.00     0.070 A 
HETATM   28  C   UNL     1       5.849  34.551  51.649  1.00  0.00     0.037 A 
HETATM   29  C   UNL     1       6.095  34.517  50.277  1.00  0.00     0.005 A 
HETATM   30  C   UNL     1       5.584  33.479  49.488  1.00  0.00     0.030 A 
BRANCH  27  31
HETATM   31  O   UNL     1       4.790  33.431  53.563  1.00  0.00    -0.356 OA
HETATM   32  C   UNL     1       4.100  32.256  53.973  1.00  0.00     0.210 C 
ENDBRANCH  27  31
ENDBRANCH   1  25
TORSDOF 2
ENDMDL
MODEL 9
REMARK VINA RESULT:      -7.9     16.338     18.862
REMARK  2 active torsions:
REMARK  status: ('A' for Active; 'I' for Inactive)
REMARK    1  A    between atoms: O_2  and  C_3 
REMARK    2  A    between atoms: C_5  and  N_6 
ROOT
HETATM    1  N   UNL     1      11.227  10.031  54.572  1.00  0.00    -0.252 N 
HETATM    2  C   UNL     1      11.934   9.288  53.649  1.00  0.00     0.239 C 
HETATM    3  O   UNL     1      11.566   8.745  52.619  1.00  0.00    -0.272 OA
HETATM    4  C   UNL     1      13.383   9.328  54.000  1.00  0.00     0.145 C 
HETATM    5  C   UNL     1      13.419   9.960  55.371  1.00  0.00     0.126 C 
HETATM    6  C   UNL     1      12.083  10.639  55.467  1.00  0.00     0.238 C 
HETATM    7  O   UNL     1      11.905  11.575  56.230  1.00  0.00    -0.272 OA
HETATM    8  C   UNL     1      14.211  10.215  53.076  1.00  0.00     0.250 A 
HETATM    9  C   UNL     1      14.836   9.361  51.920  1.00  0.00     0.264 A 
HETATM   10  O   UNL     1      15.561   8.389  52.058  1.00  0.00    -0.270 OA
HETATM   11  N   UNL     1      14.481   9.952  50.722  1.00  0.00    -0.324 N 
HETATM   12  C   UNL     1      13.723  11.094  50.925  1.00  0.00     0.044 A 
HETATM   13  C   UNL     1      13.538  11.325  52.292  1.00  0.00     0.015 A 
HETATM   14  C   UNL     1      13.235  11.935  49.948  1.00  0.00     0.030 A 
HETATM   15  C   UNL     1      12.541  13.069  50.367  1.00  0.00     0.002 A 
HETATM   16  C   UNL     1      12.362  13.335  51.734  1.00  0.00     0.001 A 
HETATM   17  C   UNL     1      12.865  12.466  52.709  1.00  0.00     0.012 A 
HETATM   18  N   UNL     1      15.250  10.818  54.040  1.00  0.00    -0.043 N 
HETATM   19  H   UNL     1      15.503  11.756  53.692  1.00  0.00     0.282 HD
HETATM   20  C   UNL     1      14.589  10.934  55.414  1.00  0.00     0.204 C 
HETATM   21  C   UNL     1      16.546  10.067  54.241  1.00  0.00     0.237 C 
HETATM   22  C   UNL     1      16.986  10.575  55.598  1.00  0.00     0.030 C 
HETATM   23  C   UNL     1      15.695  10.542  56.400  1.00  0.00     0.036 C 
HETATM   24  H   UNL     1      14.749   9.584  49.816  1.00  0.00     0.169 HD
ENDROOT
BRANCH   1  25
HETATM   25  C   UNL     1       9.814  10.241  54.507  1.00  0.00     0.048 A 
HETATM   26  C   UNL     1       8.921   9.267  54.984  1.00  0.00     0.066 A 
HETATM   27  C   UNL     1       7.532   9.460  54.977  1.00  0.00     0.070 A 
HETATM   28  C   UNL     1       7.009  10.638  54.460  1.00  0.00     0.037 A 
HETATM   29  C   UNL     1       7.873  11.621  53.978  1.00  0.00     0.005 A 
HETATM   30  C   UNL     1       9.259  11.429  54.013  1.00  0.00     0.030 A 
BRANCH  27  31
HETATM   31  O   UNL     1       6.815   8.426  55.511  1.00  0.00    -0.356 OA
HETATM   32  C   UNL     1       5.445   8.326  55.140  1.00  0.00     0.210 C 
ENDBRANCH  27  31
ENDBRANCH   1  25
TORSDOF 2
ENDMDL
MODEL 10
REMARK VINA RESULT:      -7.6      3.703      8.222
REMARK  2 active torsions:
REMARK  status: ('A' for Active; 'I' for Inactive)
REMARK    1  A    between atoms: O_2  and  C_3 
REMARK    2  A    between atoms: C_5  and  N_6 
ROOT
HETATM    1  N   UNL     1       5.045  31.684  58.986  1.00  0.00    -0.252 N 
HETATM    2  C   UNL     1       4.206  30.861  58.262  1.00  0.00     0.239 C 
HETATM    3  O   UNL     1       2.990  30.854  58.169  1.00  0.00    -0.272 OA
HETATM    4  C   UNL     1       5.030  29.965  57.400  1.00  0.00     0.145 C 
HETATM    5  C   UNL     1       6.445  30.173  57.888  1.00  0.00     0.126 C 
HETATM    6  C   UNL     1       6.361  31.478  58.626  1.00  0.00     0.238 C 
HETATM    7  O   UNL     1       7.353  32.168  58.801  1.00  0.00    -0.272 OA
HETATM    8  C   UNL     1       5.005  30.344  55.923  1.00  0.00     0.250 A 
HETATM    9  C   UNL     1       3.898  29.529  55.172  1.00  0.00     0.264 A 
HETATM   10  O   UNL     1       3.811  28.313  55.125  1.00  0.00    -0.270 OA
HETATM   11  N   UNL     1       3.086  30.432  54.513  1.00  0.00    -0.324 N 
HETATM   12  C   UNL     1       3.515  31.736  54.706  1.00  0.00     0.044 A 
HETATM   13  C   UNL     1       4.657  31.763  55.514  1.00  0.00     0.015 A 
HETATM   14  C   UNL     1       2.951  32.870  54.165  1.00  0.00     0.030 A 
HETATM   15  C   UNL     1       3.574  34.088  54.438  1.00  0.00     0.002 A 
HETATM   16  C   UNL     1       4.734  34.138  55.227  1.00  0.00     0.001 A 
HETATM   17  C   UNL     1       5.288  32.973  55.768  1.00  0.00     0.012 A 
HETATM   18  N   UNL     1       6.441  30.013  55.472  1.00  0.00    -0.043 N 
HETATM   19  H   UNL     1       6.695  30.663  54.712  1.00  0.00     0.282 HD
HETATM   20  C   UNL     1       7.361  30.231  56.673  1.00  0.00     0.204 C 
HETATM   21  C   UNL     1       6.715  28.617  54.959  1.00  0.00     0.237 C 
HETATM   22  C   UNL     1       8.204  28.492  55.198  1.00  0.00     0.030 C 
HETATM   23  C   UNL     1       8.368  29.078  56.592  1.00  0.00     0.036 C 
HETATM   24  H   UNL     1       2.280  30.161  53.960  1.00  0.00     0.169 HD
ENDROOT
BRANCH   1  25
HETATM   25  C   UNL     1       4.583  32.699  59.881  1.00  0.00     0.048 A 
HETATM   26  C   UNL     1       4.495  32.453  61.261  1.00  0.00     0.066 A 
HETATM   27  C   UNL     1       4.089  33.441  62.170  1.00  0.00     0.070 A 
HETATM   28  C   UNL     1       3.734  34.698  61.700  1.00  0.00     0.037 A 
HETATM   29  C   UNL     1       3.809  34.968  60.334  1.00  0.00     0.005 A 
HETATM   30  C   UNL     1       4.241  33.983  59.437  1.00  0.00     0.030 A 
BRANCH  27  31
HETATM   31  O   UNL     1       4.096  33.042  63.478  1.00  0.00    -0.356 OA
HETATM   32  C   UNL     1       5.353  33.022  64.144  1.00  0.00     0.210 C 
ENDBRANCH  27  31
ENDBRANCH   1  25
TORSDOF 2
ENDMDL
