MODEL 1
REMARK VINA RESULT:      -9.1      0.000      0.000
REMARK  5 active torsions:
REMARK  status: ('A' for Active; 'I' for Inactive)
REMARK    1  A    between atoms: C_2  and  N_3 
REMARK    2  A    between atoms: C_6  and  N_7 
REMARK       I    between atoms: N_7  and  C_8 
REMARK       I    between atoms: C_8  and  N_9 
REMARK    3  A    between atoms: N_9  and  C_10 
REMARK    4  A    between atoms: C_10  and  C_11 
REMARK    5  A    between atoms: C_12  and  C_13 
ROOT
HETATM    1  N   UNL     1       6.076  27.070  56.982  1.00  0.00    -0.306 N 
HETATM    2  C   UNL     1       6.076  25.713  56.996  1.00  0.00     0.321 C 
HETATM    3  N   UNL     1       7.222  25.059  56.658  1.00  0.00    -0.339 N 
HETATM    4  O   UNL     1       5.036  25.129  57.297  1.00  0.00    -0.247 OA
HETATM    5  H   UNL     1       5.155  27.448  57.166  1.00  0.00     0.171 HD
HETATM    6  H   UNL     1       7.782  25.532  55.965  1.00  0.00     0.164 HD
ENDROOT
BRANCH   3   7
HETATM    7  C   UNL     1       7.215  23.612  56.563  1.00  0.00     0.163 C 
BRANCH   7   8
HETATM    8  C   UNL     1       7.520  23.067  55.179  1.00  0.00    -0.022 A 
HETATM    9  C   UNL     1       7.898  21.706  55.016  1.00  0.00     0.056 A 
HETATM   10  C   UNL     1       8.244  21.228  53.735  1.00  0.00     0.020 A 
HETATM   11  C   UNL     1       8.220  22.073  52.628  1.00  0.00     0.043 A 
HETATM   12  C   UNL     1       7.857  23.400  52.794  1.00  0.00     0.117 A 
HETATM   13  F   UNL     1       7.846  24.218  51.734  1.00  0.00    -0.206 F 
HETATM   14  C   UNL     1       7.517  23.902  54.048  1.00  0.00     0.052 A 
BRANCH   9  15
HETATM   15  C   UNL     1       7.977  20.756  56.198  1.00  0.00     0.418 C 
HETATM   16  F   UNL     1       8.863  19.742  55.997  1.00  0.00    -0.166 F 
HETATM   17  F   UNL     1       8.365  21.357  57.357  1.00  0.00    -0.166 F 
HETATM   18  F   UNL     1       6.781  20.165  56.468  1.00  0.00    -0.166 F 
ENDBRANCH   9  15
ENDBRANCH   7   8
ENDBRANCH   3   7
BRANCH   1  19
HETATM   19  C   UNL     1       7.091  27.991  56.828  1.00  0.00     0.072 A 
HETATM   20  C   UNL     1       7.581  28.733  55.736  1.00  0.00     0.169 A 
HETATM   21  N   UNL     1       8.599  29.533  56.072  1.00  0.00    -0.183 NA
HETATM   22  N   UNL     1       8.787  29.281  57.381  1.00  0.00    -0.275 N 
HETATM   23  C   UNL     1       7.916  28.348  57.872  1.00  0.00     0.143 A 
BRANCH  22  24
HETATM   24  C   UNL     1       9.845  29.974  58.108  1.00  0.00     0.101 C 
HETATM   25  C   UNL     1       9.372  31.341  58.601  1.00  0.00     0.034 C 
HETATM   26  C   UNL     1      11.121  30.096  57.274  1.00  0.00     0.034 C 
ENDBRANCH  22  24
ENDBRANCH   1  19
TORSDOF 5
ENDMDL
MODEL 2
REMARK VINA RESULT:      -8.9      4.099      5.972
REMARK  5 active torsions:
REMARK  status: ('A' for Active; 'I' for Inactive)
REMARK    1  A    between atoms: C_2  and  N_3 
REMARK    2  A    between atoms: C_6  and  N_7 
REMARK       I    between atoms: N_7  and  C_8 
REMARK       I    between atoms: C_8  and  N_9 
REMARK    3  A    between atoms: N_9  and  C_10 
REMARK    4  A    between atoms: C_10  and  C_11 
REMARK    5  A    between atoms: C_12  and  C_13 
ROOT
HETATM    1  N   UNL     1       4.831  25.957  52.932  1.00  0.00    -0.306 N 
HETATM    2  C   UNL     1       5.740  25.477  53.818  1.00  0.00     0.321 C 
HETATM    3  N   UNL     1       7.046  25.410  53.439  1.00  0.00    -0.339 N 
HETATM    4  O   UNL     1       5.345  25.108  54.922  1.00  0.00    -0.247 OA
HETATM    5  H   UNL     1       3.886  25.883  53.285  1.00  0.00     0.171 HD
HETATM    6  H   UNL     1       7.185  25.220  52.458  1.00  0.00     0.164 HD
ENDROOT
BRANCH   3   7
HETATM    7  C   UNL     1       8.017  24.804  54.329  1.00  0.00     0.163 C 
BRANCH   7   8
HETATM    8  C   UNL     1       8.023  23.286  54.320  1.00  0.00    -0.022 A 
HETATM    9  C   UNL     1       8.149  22.566  55.540  1.00  0.00     0.056 A 
HETATM   10  C   UNL     1       8.219  21.158  55.513  1.00  0.00     0.020 A 
HETATM   11  C   UNL     1       8.167  20.464  54.306  1.00  0.00     0.043 A 
HETATM   12  C   UNL     1       8.051  21.171  53.120  1.00  0.00     0.117 A 
HETATM   13  F   UNL     1       8.014  20.507  51.958  1.00  0.00    -0.206 F 
HETATM   14  C   UNL     1       7.985  22.562  53.115  1.00  0.00     0.052 A 
BRANCH   9  15
HETATM   15  C   UNL     1       8.248  23.279  56.877  1.00  0.00     0.418 C 
HETATM   16  F   UNL     1       9.341  24.086  56.961  1.00  0.00    -0.166 F 
HETATM   17  F   UNL     1       7.180  24.079  57.149  1.00  0.00    -0.166 F 
HETATM   18  F   UNL     1       8.338  22.411  57.921  1.00  0.00    -0.166 F 
ENDBRANCH   9  15
ENDBRANCH   7   8
ENDBRANCH   3   7
BRANCH   1  19
HETATM   19  C   UNL     1       4.974  26.563  51.702  1.00  0.00     0.072 A 
HETATM   20  C   UNL     1       5.344  27.858  51.287  1.00  0.00     0.169 A 
HETATM   21  N   UNL     1       5.359  27.988  49.956  1.00  0.00    -0.183 NA
HETATM   22  N   UNL     1       4.967  26.779  49.511  1.00  0.00    -0.275 N 
HETATM   23  C   UNL     1       4.707  25.899  50.526  1.00  0.00     0.143 A 
BRANCH  22  24
HETATM   24  C   UNL     1       4.849  26.537  48.077  1.00  0.00     0.101 C 
HETATM   25  C   UNL     1       5.022  27.831  47.283  1.00  0.00     0.034 C 
HETATM   26  C   UNL     1       3.533  25.842  47.724  1.00  0.00     0.034 C 
ENDBRANCH  22  24
ENDBRANCH   1  19
TORSDOF 5
ENDMDL
MODEL 3
REMARK VINA RESULT:      -8.8      1.527      3.448
REMARK  5 active torsions:
REMARK  status: ('A' for Active; 'I' for Inactive)
REMARK    1  A    between atoms: C_2  and  N_3 
REMARK    2  A    between atoms: C_6  and  N_7 
REMARK       I    between atoms: N_7  and  C_8 
REMARK       I    between atoms: C_8  and  N_9 
REMARK    3  A    between atoms: N_9  and  C_10 
REMARK    4  A    between atoms: C_10  and  C_11 
REMARK    5  A    between atoms: C_12  and  C_13 
ROOT
HETATM    1  N   UNL     1       6.493  28.486  55.294  1.00  0.00    -0.306 N 
HETATM    2  C   UNL     1       5.989  27.308  54.844  1.00  0.00     0.321 C 
HETATM    3  N   UNL     1       6.343  26.161  55.487  1.00  0.00    -0.339 N 
HETATM    4  O   UNL     1       5.246  27.324  53.864  1.00  0.00    -0.247 OA
HETATM    5  H   UNL     1       6.234  29.259  54.695  1.00  0.00     0.171 HD
HETATM    6  H   UNL     1       7.277  26.169  55.869  1.00  0.00     0.164 HD
ENDROOT
BRANCH   3   7
HETATM    7  C   UNL     1       5.902  24.884  54.960  1.00  0.00     0.163 C 
BRANCH   7   8
HETATM    8  C   UNL     1       7.006  23.856  54.787  1.00  0.00    -0.022 A 
HETATM    9  C   UNL     1       7.693  23.750  53.547  1.00  0.00     0.056 A 
HETATM   10  C   UNL     1       8.671  22.747  53.377  1.00  0.00     0.020 A 
HETATM   11  C   UNL     1       8.970  21.860  54.408  1.00  0.00     0.043 A 
HETATM   12  C   UNL     1       8.291  21.964  55.612  1.00  0.00     0.117 A 
HETATM   13  F   UNL     1       8.568  21.103  56.600  1.00  0.00    -0.206 F 
HETATM   14  C   UNL     1       7.317  22.939  55.807  1.00  0.00     0.052 A 
BRANCH   9  15
HETATM   15  C   UNL     1       7.376  24.668  52.381  1.00  0.00     0.418 C 
HETATM   16  F   UNL     1       7.816  25.941  52.581  1.00  0.00    -0.166 F 
HETATM   17  F   UNL     1       7.936  24.269  51.204  1.00  0.00    -0.166 F 
HETATM   18  F   UNL     1       6.040  24.763  52.144  1.00  0.00    -0.166 F 
ENDBRANCH   9  15
ENDBRANCH   7   8
ENDBRANCH   3   7
BRANCH   1  19
HETATM   19  C   UNL     1       7.219  28.807  56.422  1.00  0.00     0.072 A 
HETATM   20  C   UNL     1       6.957  28.739  57.805  1.00  0.00     0.169 A 
HETATM   21  N   UNL     1       7.991  29.156  58.545  1.00  0.00    -0.183 NA
HETATM   22  N   UNL     1       8.910  29.525  57.633  1.00  0.00    -0.275 N 
HETATM   23  C   UNL     1       8.482  29.349  56.346  1.00  0.00     0.143 A 
BRANCH  22  24
HETATM   24  C   UNL     1      10.196  30.057  58.074  1.00  0.00     0.101 C 
HETATM   25  C   UNL     1      10.091  31.544  58.411  1.00  0.00     0.034 C 
HETATM   26  C   UNL     1      11.300  29.798  57.048  1.00  0.00     0.034 C 
ENDBRANCH  22  24
ENDBRANCH   1  19
TORSDOF 5
ENDMDL
MODEL 4
REMARK VINA RESULT:      -8.8      1.683      3.175
REMARK  5 active torsions:
REMARK  status: ('A' for Active; 'I' for Inactive)
REMARK    1  A    between atoms: C_2  and  N_3 
REMARK    2  A    between atoms: C_6  and  N_7 
REMARK       I    between atoms: N_7  and  C_8 
REMARK       I    between atoms: C_8  and  N_9 
REMARK    3  A    between atoms: N_9  and  C_10 
REMARK    4  A    between atoms: C_10  and  C_11 
REMARK    5  A    between atoms: C_12  and  C_13 
ROOT
HETATM    1  N   UNL     1       6.093  26.840  55.415  1.00  0.00    -0.306 N 
HETATM    2  C   UNL     1       6.143  25.614  54.833  1.00  0.00     0.321 C 
HETATM    3  N   UNL     1       7.282  24.879  54.962  1.00  0.00    -0.339 N 
HETATM    4  O   UNL     1       5.163  25.225  54.200  1.00  0.00    -0.247 OA
HETATM    5  H   UNL     1       5.238  27.330  55.186  1.00  0.00     0.171 HD
HETATM    6  H   UNL     1       8.129  25.426  55.001  1.00  0.00     0.164 HD
ENDROOT
BRANCH   3   7
HETATM    7  C   UNL     1       7.396  23.614  54.261  1.00  0.00     0.163 C 
BRANCH   7   8
HETATM    8  C   UNL     1       7.894  22.461  55.114  1.00  0.00    -0.022 A 
HETATM    9  C   UNL     1       8.235  21.221  54.508  1.00  0.00     0.056 A 
HETATM   10  C   UNL     1       8.633  20.136  55.317  1.00  0.00     0.020 A 
HETATM   11  C   UNL     1       8.694  20.265  56.702  1.00  0.00     0.043 A 
HETATM   12  C   UNL     1       8.354  21.474  57.288  1.00  0.00     0.117 A 
HETATM   13  F   UNL     1       8.399  21.596  58.621  1.00  0.00    -0.206 F 
HETATM   14  C   UNL     1       7.952  22.560  56.516  1.00  0.00     0.052 A 
BRANCH   9  15
HETATM   15  C   UNL     1       8.147  21.019  53.005  1.00  0.00     0.418 C 
HETATM   16  F   UNL     1       6.998  20.394  52.627  1.00  0.00    -0.166 F 
HETATM   17  F   UNL     1       8.181  22.182  52.296  1.00  0.00    -0.166 F 
HETATM   18  F   UNL     1       9.168  20.260  52.524  1.00  0.00    -0.166 F 
ENDBRANCH   9  15
ENDBRANCH   7   8
ENDBRANCH   3   7
BRANCH   1  19
HETATM   19  C   UNL     1       6.949  27.483  56.284  1.00  0.00     0.072 A 
HETATM   20  C   UNL     1       7.215  27.363  57.662  1.00  0.00     0.169 A 
HETATM   21  N   UNL     1       8.163  28.209  58.079  1.00  0.00    -0.183 NA
HETATM   22  N   UNL     1       8.486  28.901  56.970  1.00  0.00    -0.275 N 
HETATM   23  C   UNL     1       7.769  28.510  55.873  1.00  0.00     0.143 A 
BRANCH  22  24
HETATM   24  C   UNL     1       9.501  29.947  57.038  1.00  0.00     0.101 C 
HETATM   25  C   UNL     1      10.895  29.383  56.766  1.00  0.00     0.034 C 
HETATM   26  C   UNL     1       9.456  30.696  58.372  1.00  0.00     0.034 C 
ENDBRANCH  22  24
ENDBRANCH   1  19
TORSDOF 5
ENDMDL
MODEL 5
REMARK VINA RESULT:      -8.5      1.731      3.620
REMARK  5 active torsions:
REMARK  status: ('A' for Active; 'I' for Inactive)
REMARK    1  A    between atoms: C_2  and  N_3 
REMARK    2  A    between atoms: C_6  and  N_7 
REMARK       I    between atoms: N_7  and  C_8 
REMARK       I    between atoms: C_8  and  N_9 
REMARK    3  A    between atoms: N_9  and  C_10 
REMARK    4  A    between atoms: C_10  and  C_11 
REMARK    5  A    between atoms: C_12  and  C_13 
ROOT
HETATM    1  N   UNL     1       7.260  28.988  55.113  1.00  0.00    -0.306 N 
HETATM    2  C   UNL     1       6.587  27.846  54.823  1.00  0.00     0.321 C 
HETATM    3  N   UNL     1       6.856  26.728  55.553  1.00  0.00    -0.339 N 
HETATM    4  O   UNL     1       5.773  27.863  53.901  1.00  0.00    -0.247 OA
HETATM    5  H   UNL     1       7.045  29.729  54.458  1.00  0.00     0.171 HD
HETATM    6  H   UNL     1       7.813  26.656  55.865  1.00  0.00     0.164 HD
ENDROOT
BRANCH   3   7
HETATM    7  C   UNL     1       6.227  25.472  55.191  1.00  0.00     0.163 C 
BRANCH   7   8
HETATM    8  C   UNL     1       7.178  24.292  55.100  1.00  0.00    -0.022 A 
HETATM    9  C   UNL     1       7.747  23.929  53.849  1.00  0.00     0.056 A 
HETATM   10  C   UNL     1       8.576  22.791  53.765  1.00  0.00     0.020 A 
HETATM   11  C   UNL     1       8.843  22.019  54.893  1.00  0.00     0.043 A 
HETATM   12  C   UNL     1       8.280  22.373  56.108  1.00  0.00     0.117 A 
HETATM   13  F   UNL     1       8.524  21.624  57.191  1.00  0.00    -0.206 F 
HETATM   14  C   UNL     1       7.453  23.487  56.221  1.00  0.00     0.052 A 
BRANCH   9  15
HETATM   15  C   UNL     1       7.455  24.717  52.585  1.00  0.00     0.418 C 
HETATM   16  F   UNL     1       7.951  24.117  51.467  1.00  0.00    -0.166 F 
HETATM   17  F   UNL     1       6.125  24.893  52.346  1.00  0.00    -0.166 F 
HETATM   18  F   UNL     1       7.995  25.965  52.615  1.00  0.00    -0.166 F 
ENDBRANCH   9  15
ENDBRANCH   7   8
ENDBRANCH   3   7
BRANCH   1  19
HETATM   19  C   UNL     1       8.109  29.320  56.148  1.00  0.00     0.072 A 
HETATM   20  C   UNL     1       9.492  29.162  56.368  1.00  0.00     0.169 A 
HETATM   21  N   UNL     1       9.887  29.664  57.543  1.00  0.00    -0.183 NA
HETATM   22  N   UNL     1       8.747  30.119  58.097  1.00  0.00    -0.275 N 
HETATM   23  C   UNL     1       7.653  29.917  57.302  1.00  0.00     0.143 A 
BRANCH  22  24
HETATM   24  C   UNL     1       8.780  30.738  59.418  1.00  0.00     0.101 C 
HETATM   25  C   UNL     1       7.393  31.227  59.834  1.00  0.00     0.034 C 
HETATM   26  C   UNL     1       9.811  31.865  59.493  1.00  0.00     0.034 C 
ENDBRANCH  22  24
ENDBRANCH   1  19
TORSDOF 5
ENDMDL
MODEL 6
REMARK VINA RESULT:      -8.4      1.903      2.952
REMARK  5 active torsions:
REMARK  status: ('A' for Active; 'I' for Inactive)
REMARK    1  A    between atoms: C_2  and  N_3 
REMARK    2  A    between atoms: C_6  and  N_7 
REMARK       I    between atoms: N_7  and  C_8 
REMARK       I    between atoms: C_8  and  N_9 
REMARK    3  A    between atoms: N_9  and  C_10 
REMARK    4  A    between atoms: C_10  and  C_11 
REMARK    5  A    between atoms: C_12  and  C_13 
ROOT
HETATM    1  N   UNL     1       7.673  26.991  57.725  1.00  0.00    -0.306 N 
HETATM    2  C   UNL     1       7.849  25.656  57.559  1.00  0.00     0.321 C 
HETATM    3  N   UNL     1       7.087  25.009  56.633  1.00  0.00    -0.339 N 
HETATM    4  O   UNL     1       8.677  25.080  58.263  1.00  0.00    -0.247 OA
HETATM    5  H   UNL     1       8.227  27.351  58.492  1.00  0.00     0.171 HD
HETATM    6  H   UNL     1       6.159  25.390  56.519  1.00  0.00     0.164 HD
ENDROOT
BRANCH   3   7
HETATM    7  C   UNL     1       7.182  23.567  56.514  1.00  0.00     0.163 C 
BRANCH   7   8
HETATM    8  C   UNL     1       7.509  23.068  55.118  1.00  0.00    -0.022 A 
HETATM    9  C   UNL     1       7.900  21.716  54.917  1.00  0.00     0.056 A 
HETATM   10  C   UNL     1       8.265  21.281  53.626  1.00  0.00     0.020 A 
HETATM   11  C   UNL     1       8.248  22.161  52.546  1.00  0.00     0.043 A 
HETATM   12  C   UNL     1       7.873  23.479  52.749  1.00  0.00     0.117 A 
HETATM   13  F   UNL     1       7.870  24.329  51.714  1.00  0.00    -0.206 F 
HETATM   14  C   UNL     1       7.513  23.938  54.013  1.00  0.00     0.052 A 
BRANCH   9  15
HETATM   15  C   UNL     1       7.971  20.730  56.069  1.00  0.00     0.418 C 
HETATM   16  F   UNL     1       6.742  20.297  56.465  1.00  0.00    -0.166 F 
HETATM   17  F   UNL     1       8.680  19.602  55.779  1.00  0.00    -0.166 F 
HETATM   18  F   UNL     1       8.558  21.264  57.173  1.00  0.00    -0.166 F 
ENDBRANCH   9  15
ENDBRANCH   7   8
ENDBRANCH   3   7
BRANCH   1  19
HETATM   19  C   UNL     1       6.944  27.921  57.013  1.00  0.00     0.072 A 
HETATM   20  C   UNL     1       7.270  28.869  56.023  1.00  0.00     0.169 A 
HETATM   21  N   UNL     1       6.205  29.559  55.601  1.00  0.00    -0.183 NA
HETATM   22  N   UNL     1       5.194  29.076  56.347  1.00  0.00    -0.275 N 
HETATM   23  C   UNL     1       5.596  28.104  57.221  1.00  0.00     0.143 A 
BRANCH  22  24
HETATM   24  C   UNL     1       3.847  29.610  56.175  1.00  0.00     0.101 C 
HETATM   25  C   UNL     1       3.685  30.267  54.804  1.00  0.00     0.034 C 
HETATM   26  C   UNL     1       3.469  30.575  57.300  1.00  0.00     0.034 C 
ENDBRANCH  22  24
ENDBRANCH   1  19
TORSDOF 5
ENDMDL
MODEL 7
REMARK VINA RESULT:      -8.3      4.445      6.256
REMARK  5 active torsions:
REMARK  status: ('A' for Active; 'I' for Inactive)
REMARK    1  A    between atoms: C_2  and  N_3 
REMARK    2  A    between atoms: C_6  and  N_7 
REMARK       I    between atoms: N_7  and  C_8 
REMARK       I    between atoms: C_8  and  N_9 
REMARK    3  A    between atoms: N_9  and  C_10 
REMARK    4  A    between atoms: C_10  and  C_11 
REMARK    5  A    between atoms: C_12  and  C_13 
ROOT
HETATM    1  N   UNL     1       6.296  28.585  52.646  1.00  0.00    -0.306 N 
HETATM    2  C   UNL     1       6.677  27.842  53.716  1.00  0.00     0.321 C 
HETATM    3  N   UNL     1       5.878  26.813  54.111  1.00  0.00    -0.339 N 
HETATM    4  O   UNL     1       7.721  28.139  54.295  1.00  0.00    -0.247 OA
HETATM    5  H   UNL     1       6.916  29.371  52.494  1.00  0.00     0.171 HD
HETATM    6  H   UNL     1       4.892  26.971  53.963  1.00  0.00     0.164 HD
ENDROOT
BRANCH   3   7
HETATM    7  C   UNL     1       6.210  26.073  55.313  1.00  0.00     0.163 C 
BRANCH   7   8
HETATM    8  C   UNL     1       7.072  24.845  55.083  1.00  0.00    -0.022 A 
HETATM    9  C   UNL     1       8.042  24.462  56.049  1.00  0.00     0.056 A 
HETATM   10  C   UNL     1       8.881  23.358  55.794  1.00  0.00     0.020 A 
HETATM   11  C   UNL     1       8.772  22.639  54.606  1.00  0.00     0.043 A 
HETATM   12  C   UNL     1       7.830  23.021  53.665  1.00  0.00     0.117 A 
HETATM   13  F   UNL     1       7.732  22.339  52.516  1.00  0.00    -0.206 F 
HETATM   14  C   UNL     1       6.991  24.109  53.886  1.00  0.00     0.052 A 
BRANCH   9  15
HETATM   15  C   UNL     1       8.225  25.237  57.342  1.00  0.00     0.418 C 
HETATM   16  F   UNL     1       8.792  26.459  57.144  1.00  0.00    -0.166 F 
HETATM   17  F   UNL     1       7.058  25.479  58.003  1.00  0.00    -0.166 F 
HETATM   18  F   UNL     1       9.026  24.586  58.228  1.00  0.00    -0.166 F 
ENDBRANCH   9  15
ENDBRANCH   7   8
ENDBRANCH   3   7
BRANCH   1  19
HETATM   19  C   UNL     1       5.281  28.424  51.726  1.00  0.00     0.072 A 
HETATM   20  C   UNL     1       4.025  29.033  51.539  1.00  0.00     0.169 A 
HETATM   21  N   UNL     1       3.372  28.552  50.476  1.00  0.00    -0.183 NA
HETATM   22  N   UNL     1       4.199  27.605  49.993  1.00  0.00    -0.275 N 
HETATM   23  C   UNL     1       5.349  27.483  50.724  1.00  0.00     0.143 A 
BRANCH  22  24
HETATM   24  C   UNL     1       3.812  26.836  48.815  1.00  0.00     0.101 C 
HETATM   25  C   UNL     1       4.854  26.964  47.705  1.00  0.00     0.034 C 
HETATM   26  C   UNL     1       2.419  27.225  48.316  1.00  0.00     0.034 C 
ENDBRANCH  22  24
ENDBRANCH   1  19
TORSDOF 5
ENDMDL
MODEL 8
REMARK VINA RESULT:      -8.0      3.771      7.555
REMARK  5 active torsions:
REMARK  status: ('A' for Active; 'I' for Inactive)
REMARK    1  A    between atoms: C_2  and  N_3 
REMARK    2  A    between atoms: C_6  and  N_7 
REMARK       I    between atoms: N_7  and  C_8 
REMARK       I    between atoms: C_8  and  N_9 
REMARK    3  A    between atoms: N_9  and  C_10 
REMARK    4  A    between atoms: C_10  and  C_11 
REMARK    5  A    between atoms: C_12  and  C_13 
ROOT
HETATM    1  N   UNL     1       5.949  25.136  54.360  1.00  0.00    -0.306 N 
HETATM    2  C   UNL     1       6.021  26.491  54.402  1.00  0.00     0.321 C 
HETATM    3  N   UNL     1       7.249  27.076  54.455  1.00  0.00    -0.339 N 
HETATM    4  O   UNL     1       4.972  27.135  54.407  1.00  0.00    -0.247 OA
HETATM    5  H   UNL     1       4.993  24.809  54.408  1.00  0.00     0.171 HD
HETATM    6  H   UNL     1       7.943  26.543  54.958  1.00  0.00     0.164 HD
ENDROOT
BRANCH   3   7
HETATM    7  C   UNL     1       7.347  28.515  54.608  1.00  0.00     0.163 C 
BRANCH   7   8
HETATM    8  C   UNL     1       8.136  28.971  55.822  1.00  0.00    -0.022 A 
HETATM    9  C   UNL     1       7.456  29.387  56.999  1.00  0.00     0.056 A 
HETATM   10  C   UNL     1       8.197  29.870  58.098  1.00  0.00     0.020 A 
HETATM   11  C   UNL     1       9.587  29.946  58.042  1.00  0.00     0.043 A 
HETATM   12  C   UNL     1      10.244  29.546  56.889  1.00  0.00     0.117 A 
HETATM   13  F   UNL     1      11.579  29.631  56.829  1.00  0.00    -0.206 F 
HETATM   14  C   UNL     1       9.539  29.070  55.788  1.00  0.00     0.052 A 
BRANCH   9  15
HETATM   15  C   UNL     1       5.941  29.359  57.094  1.00  0.00     0.418 C 
HETATM   16  F   UNL     1       5.465  30.127  58.113  1.00  0.00    -0.166 F 
HETATM   17  F   UNL     1       5.315  29.812  55.972  1.00  0.00    -0.166 F 
HETATM   18  F   UNL     1       5.458  28.105  57.308  1.00  0.00    -0.166 F 
ENDBRANCH   9  15
ENDBRANCH   7   8
ENDBRANCH   3   7
BRANCH   1  19
HETATM   19  C   UNL     1       6.917  24.167  54.205  1.00  0.00     0.072 A 
HETATM   20  C   UNL     1       7.759  23.787  53.141  1.00  0.00     0.169 A 
HETATM   21  N   UNL     1       8.570  22.773  53.463  1.00  0.00    -0.183 NA
HETATM   22  N   UNL     1       8.226  22.477  54.731  1.00  0.00    -0.275 N 
HETATM   23  C   UNL     1       7.225  23.277  55.209  1.00  0.00     0.143 A 
BRANCH  22  24
HETATM   24  C   UNL     1       8.902  21.389  55.430  1.00  0.00     0.101 C 
HETATM   25  C   UNL     1       8.782  20.077  54.656  1.00  0.00     0.034 C 
HETATM   26  C   UNL     1       8.395  21.235  56.865  1.00  0.00     0.034 C 
ENDBRANCH  22  24
ENDBRANCH   1  19
TORSDOF 5
ENDMDL
MODEL 9
REMARK VINA RESULT:      -7.9      8.773     12.587
REMARK  5 active torsions:
REMARK  status: ('A' for Active; 'I' for Inactive)
REMARK    1  A    between atoms: C_2  and  N_3 
REMARK    2  A    between atoms: C_6  and  N_7 
REMARK       I    between atoms: N_7  and  C_8 
REMARK       I    between atoms: C_8  and  N_9 
REMARK    3  A    between atoms: N_9  and  C_10 
REMARK    4  A    between atoms: C_10  and  C_11 
REMARK    5  A    between atoms: C_12  and  C_13 
ROOT
HETATM    1  N   UNL     1       6.983  31.205  61.936  1.00  0.00    -0.306 N 
HETATM    2  C   UNL     1       5.886  31.861  62.394  1.00  0.00     0.321 C 
HETATM    3  N   UNL     1       5.570  33.065  61.841  1.00  0.00    -0.339 N 
HETATM    4  O   UNL     1       5.232  31.349  63.300  1.00  0.00    -0.247 OA
HETATM    5  H   UNL     1       7.171  30.367  62.472  1.00  0.00     0.171 HD
HETATM    6  H   UNL     1       6.367  33.610  61.546  1.00  0.00     0.164 HD
ENDROOT
BRANCH   3   7
HETATM    7  C   UNL     1       4.467  33.832  62.386  1.00  0.00     0.163 C 
BRANCH   7   8
HETATM    8  C   UNL     1       4.856  35.183  62.959  1.00  0.00    -0.022 A 
HETATM    9  C   UNL     1       4.407  35.566  64.252  1.00  0.00     0.056 A 
HETATM   10  C   UNL     1       4.720  36.850  64.746  1.00  0.00     0.020 A 
HETATM   11  C   UNL     1       5.463  37.746  63.982  1.00  0.00     0.043 A 
HETATM   12  C   UNL     1       5.893  37.370  62.719  1.00  0.00     0.117 A 
HETATM   13  F   UNL     1       6.596  38.235  61.978  1.00  0.00    -0.206 F 
HETATM   14  C   UNL     1       5.594  36.112  62.203  1.00  0.00     0.052 A 
BRANCH   9  15
HETATM   15  C   UNL     1       3.561  34.639  65.107  1.00  0.00     0.418 C 
HETATM   16  F   UNL     1       3.080  35.250  66.224  1.00  0.00    -0.166 F 
HETATM   17  F   UNL     1       2.468  34.146  64.460  1.00  0.00    -0.166 F 
HETATM   18  F   UNL     1       4.259  33.554  65.540  1.00  0.00    -0.166 F 
ENDBRANCH   9  15
ENDBRANCH   7   8
ENDBRANCH   3   7
BRANCH   1  19
HETATM   19  C   UNL     1       7.818  31.442  60.865  1.00  0.00     0.072 A 
HETATM   20  C   UNL     1       8.677  32.502  60.510  1.00  0.00     0.169 A 
HETATM   21  N   UNL     1       9.316  32.282  59.356  1.00  0.00    -0.183 NA
HETATM   22  N   UNL     1       8.843  31.089  58.950  1.00  0.00    -0.275 N 
HETATM   23  C   UNL     1       7.928  30.558  59.816  1.00  0.00     0.143 A 
BRANCH  22  24
HETATM   24  C   UNL     1       9.312  30.513  57.693  1.00  0.00     0.101 C 
HETATM   25  C   UNL     1       8.842  29.067  57.539  1.00  0.00     0.034 C 
HETATM   26  C   UNL     1      10.831  30.621  57.550  1.00  0.00     0.034 C 
ENDBRANCH  22  24
ENDBRANCH   1  19
TORSDOF 5
ENDMDL
MODEL 10
REMARK VINA RESULT:      -7.8      5.105      7.164
REMARK  5 active torsions:
REMARK  status: ('A' for Active; 'I' for Inactive)
REMARK    1  A    between atoms: C_2  and  N_3 
REMARK    2  A    between atoms: C_6  and  N_7 
REMARK       I    between atoms: N_7  and  C_8 
REMARK       I    between atoms: C_8  and  N_9 
REMARK    3  A    between atoms: N_9  and  C_10 
REMARK    4  A    between atoms: C_10  and  C_11 
REMARK    5  A    between atoms: C_12  and  C_13 
ROOT
HETATM    1  N   UNL     1       6.201  26.976  50.972  1.00  0.00    -0.306 N 
HETATM    2  C   UNL     1       6.532  25.932  51.774  1.00  0.00     0.321 C 
HETATM    3  N   UNL     1       5.539  25.109  52.213  1.00  0.00    -0.339 N 
HETATM    4  O   UNL     1       7.712  25.781  52.084  1.00  0.00    -0.247 OA
HETATM    5  H   UNL     1       6.999  27.567  50.776  1.00  0.00     0.171 HD
HETATM    6  H   UNL     1       4.654  25.569  52.364  1.00  0.00     0.164 HD
ENDROOT
BRANCH   3   7
HETATM    7  C   UNL     1       5.854  24.052  53.155  1.00  0.00     0.163 C 
BRANCH   7   8
HETATM    8  C   UNL     1       6.228  24.534  54.545  1.00  0.00    -0.022 A 
HETATM    9  C   UNL     1       7.322  23.942  55.234  1.00  0.00     0.056 A 
HETATM   10  C   UNL     1       7.620  24.352  56.550  1.00  0.00     0.020 A 
HETATM   11  C   UNL     1       6.854  25.328  57.184  1.00  0.00     0.043 A 
HETATM   12  C   UNL     1       5.784  25.896  56.510  1.00  0.00     0.117 A 
HETATM   13  F   UNL     1       5.039  26.825  57.122  1.00  0.00    -0.206 F 
HETATM   14  C   UNL     1       5.463  25.508  55.212  1.00  0.00     0.052 A 
BRANCH   9  15
HETATM   15  C   UNL     1       8.163  22.848  54.601  1.00  0.00     0.418 C 
HETATM   16  F   UNL     1       9.264  22.539  55.339  1.00  0.00    -0.166 F 
HETATM   17  F   UNL     1       7.493  21.673  54.433  1.00  0.00    -0.166 F 
HETATM   18  F   UNL     1       8.620  23.194  53.367  1.00  0.00    -0.166 F 
ENDBRANCH   9  15
ENDBRANCH   7   8
ENDBRANCH   3   7
BRANCH   1  19
HETATM   19  C   UNL     1       5.021  27.323  50.350  1.00  0.00     0.072 A 
HETATM   20  C   UNL     1       3.999  28.249  50.638  1.00  0.00     0.169 A 
HETATM   21  N   UNL     1       3.028  28.247  49.717  1.00  0.00    -0.183 NA
HETATM   22  N   UNL     1       3.411  27.292  48.849  1.00  0.00    -0.275 N 
HETATM   23  C   UNL     1       4.592  26.699  49.200  1.00  0.00     0.143 A 
BRANCH  22  24
HETATM   24  C   UNL     1       2.575  26.987  47.692  1.00  0.00     0.101 C 
HETATM   25  C   UNL     1       1.096  27.206  48.006  1.00  0.00     0.034 C 
HETATM   26  C   UNL     1       2.827  25.573  47.165  1.00  0.00     0.034 C 
ENDBRANCH  22  24
ENDBRANCH   1  19
TORSDOF 5
ENDMDL
