MODEL 1
REMARK VINA RESULT:     -10.2      0.000      0.000
REMARK  10 active torsions:
REMARK  status: ('A' for Active; 'I' for Inactive)
REMARK    1  A    between atoms: C_2  and  C_3 
REMARK    2  A    between atoms: C_3  and  C_4 
REMARK    3  A    between atoms: C_4  and  O_5 
REMARK    4  A    between atoms: O_5  and  C_6 
REMARK    5  A    between atoms: C_9  and  C_10 
REMARK       I    between atoms: C_10  and  N_11 
REMARK    6  A    between atoms: N_11  and  C_12 
REMARK    7  A    between atoms: C_12  and  N_13 
REMARK    8  A    between atoms: N_13  and  C_14 
REMARK    9  A    between atoms: C_16  and  O_17 
REMARK   10  A    between atoms: C_18  and  C_19 
ROOT
HETATM    1  N   UNL     1       6.504  30.814  57.356  1.00  0.00    -0.333 N 
HETATM    2  H   UNL     1       6.692  31.510  56.644  1.00  0.00     0.168 HD
ENDROOT
BRANCH   1   3
HETATM    3  C   UNL     1       5.623  31.238  58.290  1.00  0.00     0.179 C 
HETATM    4  S   UNL     1       4.031  31.496  57.841  1.00  0.00    -0.040 SA
BRANCH   3   5
HETATM    5  N   UNL     1       5.973  31.506  59.575  1.00  0.00    -0.299 N 
HETATM    6  C   UNL     1       7.116  32.164  60.026  1.00  0.00     0.257 C 
HETATM    7  O   UNL     1       8.145  32.333  59.384  1.00  0.00    -0.267 OA
HETATM    8  H   UNL     1       5.162  31.561  60.172  1.00  0.00     0.171 HD
BRANCH   6   9
HETATM    9  C   UNL     1       7.059  32.658  61.436  1.00  0.00     0.032 A 
HETATM   10  C   UNL     1       8.084  32.273  62.310  1.00  0.00     0.020 A 
HETATM   11  C   UNL     1       8.068  32.681  63.648  1.00  0.00     0.038 A 
HETATM   12  C   UNL     1       7.035  33.494  64.111  1.00  0.00     0.068 A 
HETATM   13  C   UNL     1       6.014  33.887  63.249  1.00  0.00     0.038 A 
HETATM   14  C   UNL     1       6.031  33.487  61.908  1.00  0.00     0.020 A 
BRANCH  12  15
HETATM   15  O   UNL     1       6.914  33.862  65.421  1.00  0.00    -0.351 OA
BRANCH  15  16
HETATM   16  C   UNL     1       5.562  33.841  65.891  1.00  0.00     0.175 C 
BRANCH  16  17
HETATM   17  C   UNL     1       5.463  34.736  67.127  1.00  0.00     0.026 C 
BRANCH  17  18
HETATM   18  C   UNL     1       4.608  35.978  66.865  1.00  0.00    -0.002 C 
HETATM   19  C   UNL     1       3.821  35.854  65.569  1.00  0.00     0.005 C 
ENDBRANCH  17  18
ENDBRANCH  16  17
ENDBRANCH  15  16
ENDBRANCH  12  15
ENDBRANCH   6   9
ENDBRANCH   3   5
ENDBRANCH   1   3
BRANCH   1  20
HETATM   20  C   UNL     1       6.856  29.494  56.986  1.00  0.00     0.036 A 
HETATM   21  C   UNL     1       6.328  29.012  55.782  1.00  0.00     0.067 A 
HETATM   22  C   UNL     1       6.529  27.680  55.392  1.00  0.00     0.082 A 
HETATM   23  C   UNL     1       7.264  26.795  56.192  1.00  0.00     0.050 A 
HETATM   24  C   UNL     1       7.795  27.297  57.393  1.00  0.00     0.021 A 
HETATM   25  C   UNL     1       7.592  28.627  57.789  1.00  0.00     0.030 A 
BRANCH  22  26
HETATM   26  O   UNL     1       5.953  27.251  54.225  1.00  0.00    -0.360 OA
HETATM   27  H   UNL     1       5.162  26.724  54.422  1.00  0.00     0.217 HD
ENDBRANCH  22  26
BRANCH  23  28
HETATM   28  C   UNL     1       7.474  25.377  55.885  1.00  0.00     0.183 A 
HETATM   29  O   UNL     1       7.705  25.033  54.576  1.00  0.00    -0.289 OA
HETATM   30  C   UNL     1       7.829  23.677  54.602  1.00  0.00     0.107 A 
HETATM   31  C   UNL     1       7.690  23.265  55.915  1.00  0.00     0.093 A 
HETATM   32  C   UNL     1       8.050  22.830  53.522  1.00  0.00     0.046 A 
HETATM   33  N   UNL     1       7.481  24.352  56.725  1.00  0.00    -0.221 NA
HETATM   34  C   UNL     1       7.766  21.898  56.205  1.00  0.00     0.035 A 
HETATM   35  C   UNL     1       7.985  21.006  55.143  1.00  0.00     0.009 A 
HETATM   36  C   UNL     1       8.138  21.459  53.819  1.00  0.00    -0.059 A 
HETATM   37  C   UNL     1       8.336  20.463  52.710  1.00  0.00     0.048 C 
ENDBRANCH  23  28
ENDBRANCH   1  20
TORSDOF 10
ENDMDL
MODEL 2
REMARK VINA RESULT:     -10.0      1.982     11.864
REMARK  10 active torsions:
REMARK  status: ('A' for Active; 'I' for Inactive)
REMARK    1  A    between atoms: C_2  and  C_3 
REMARK    2  A    between atoms: C_3  and  C_4 
REMARK    3  A    between atoms: C_4  and  O_5 
REMARK    4  A    between atoms: O_5  and  C_6 
REMARK    5  A    between atoms: C_9  and  C_10 
REMARK       I    between atoms: C_10  and  N_11 
REMARK    6  A    between atoms: N_11  and  C_12 
REMARK    7  A    between atoms: C_12  and  N_13 
REMARK    8  A    between atoms: N_13  and  C_14 
REMARK    9  A    between atoms: C_16  and  O_17 
REMARK   10  A    between atoms: C_18  and  C_19 
ROOT
HETATM    1  N   UNL     1       6.256  30.097  55.607  1.00  0.00    -0.333 N 
HETATM    2  H   UNL     1       7.042  30.245  54.984  1.00  0.00     0.168 HD
ENDROOT
BRANCH   1   3
HETATM    3  C   UNL     1       5.454  29.082  55.215  1.00  0.00     0.179 C 
HETATM    4  S   UNL     1       3.822  29.154  55.583  1.00  0.00    -0.040 SA
BRANCH   3   5
HETATM    5  N   UNL     1       5.912  27.978  54.569  1.00  0.00    -0.299 N 
HETATM    6  C   UNL     1       7.235  27.653  54.275  1.00  0.00     0.257 C 
HETATM    7  O   UNL     1       8.179  28.434  54.258  1.00  0.00    -0.267 OA
HETATM    8  H   UNL     1       5.274  27.203  54.668  1.00  0.00     0.171 HD
BRANCH   6   9
HETATM    9  C   UNL     1       7.480  26.223  53.911  1.00  0.00     0.032 A 
HETATM   10  C   UNL     1       7.538  25.281  54.947  1.00  0.00     0.020 A 
HETATM   11  C   UNL     1       7.792  23.934  54.669  1.00  0.00     0.038 A 
HETATM   12  C   UNL     1       7.968  23.522  53.349  1.00  0.00     0.068 A 
HETATM   13  C   UNL     1       7.907  24.449  52.312  1.00  0.00     0.038 A 
HETATM   14  C   UNL     1       7.644  25.795  52.586  1.00  0.00     0.020 A 
BRANCH  12  15
HETATM   15  O   UNL     1       8.299  22.239  53.013  1.00  0.00    -0.351 OA
BRANCH  15  16
HETATM   16  C   UNL     1       8.959  21.532  54.067  1.00  0.00     0.175 C 
BRANCH  16  17
HETATM   17  C   UNL     1       8.106  20.322  54.449  1.00  0.00     0.026 C 
BRANCH  17  18
HETATM   18  C   UNL     1       7.625  20.398  55.901  1.00  0.00    -0.002 C 
HETATM   19  C   UNL     1       8.661  21.054  56.801  1.00  0.00     0.005 C 
ENDBRANCH  17  18
ENDBRANCH  16  17
ENDBRANCH  15  16
ENDBRANCH  12  15
ENDBRANCH   6   9
ENDBRANCH   3   5
ENDBRANCH   1   3
BRANCH   1  20
HETATM   20  C   UNL     1       6.418  30.672  56.890  1.00  0.00     0.036 A 
HETATM   21  C   UNL     1       7.355  30.073  57.740  1.00  0.00     0.067 A 
HETATM   22  C   UNL     1       7.500  30.502  59.066  1.00  0.00     0.082 A 
HETATM   23  C   UNL     1       6.714  31.542  59.581  1.00  0.00     0.050 A 
HETATM   24  C   UNL     1       5.784  32.139  58.712  1.00  0.00     0.021 A 
HETATM   25  C   UNL     1       5.633  31.709  57.385  1.00  0.00     0.030 A 
BRANCH  22  26
HETATM   26  O   UNL     1       8.403  29.851  59.865  1.00  0.00    -0.360 OA
HETATM   27  H   UNL     1       8.801  29.111  59.379  1.00  0.00     0.217 HD
ENDBRANCH  22  26
BRANCH  23  28
HETATM   28  C   UNL     1       6.764  32.014  60.967  1.00  0.00     0.183 A 
HETATM   29  O   UNL     1       5.572  32.242  61.610  1.00  0.00    -0.289 OA
HETATM   30  C   UNL     1       5.936  32.690  62.844  1.00  0.00     0.107 A 
HETATM   31  C   UNL     1       7.319  32.694  62.901  1.00  0.00     0.093 A 
HETATM   32  C   UNL     1       5.096  33.085  63.878  1.00  0.00     0.046 A 
HETATM   33  N   UNL     1       7.836  32.248  61.711  1.00  0.00    -0.221 NA
HETATM   34  C   UNL     1       7.944  33.131  64.074  1.00  0.00     0.035 A 
HETATM   35  C   UNL     1       7.133  33.543  65.144  1.00  0.00     0.009 A 
HETATM   36  C   UNL     1       5.729  33.513  65.059  1.00  0.00    -0.059 A 
HETATM   37  C   UNL     1       4.902  33.996  66.219  1.00  0.00     0.048 C 
ENDBRANCH  23  28
ENDBRANCH   1  20
TORSDOF 10
ENDMDL
MODEL 3
REMARK VINA RESULT:     -10.0      1.149      2.080
REMARK  10 active torsions:
REMARK  status: ('A' for Active; 'I' for Inactive)
REMARK    1  A    between atoms: C_2  and  C_3 
REMARK    2  A    between atoms: C_3  and  C_4 
REMARK    3  A    between atoms: C_4  and  O_5 
REMARK    4  A    between atoms: O_5  and  C_6 
REMARK    5  A    between atoms: C_9  and  C_10 
REMARK       I    between atoms: C_10  and  N_11 
REMARK    6  A    between atoms: N_11  and  C_12 
REMARK    7  A    between atoms: C_12  and  N_13 
REMARK    8  A    between atoms: N_13  and  C_14 
REMARK    9  A    between atoms: C_16  and  O_17 
REMARK   10  A    between atoms: C_18  and  C_19 
ROOT
HETATM    1  N   UNL     1       6.483  30.969  57.510  1.00  0.00    -0.333 N 
HETATM    2  H   UNL     1       6.884  31.698  56.933  1.00  0.00     0.168 HD
ENDROOT
BRANCH   1   3
HETATM    3  C   UNL     1       5.631  31.443  58.446  1.00  0.00     0.179 C 
HETATM    4  S   UNL     1       4.079  31.870  57.982  1.00  0.00    -0.040 SA
BRANCH   3   5
HETATM    5  N   UNL     1       5.980  31.630  59.745  1.00  0.00    -0.299 N 
HETATM    6  C   UNL     1       7.122  32.262  60.235  1.00  0.00     0.257 C 
HETATM    7  O   UNL     1       8.150  32.474  59.606  1.00  0.00    -0.267 OA
HETATM    8  H   UNL     1       5.170  31.646  60.345  1.00  0.00     0.171 HD
BRANCH   6   9
HETATM    9  C   UNL     1       7.064  32.666  61.674  1.00  0.00     0.032 A 
HETATM   10  C   UNL     1       5.929  33.357  62.120  1.00  0.00     0.020 A 
HETATM   11  C   UNL     1       5.833  33.784  63.447  1.00  0.00     0.038 A 
HETATM   12  C   UNL     1       6.865  33.503  64.341  1.00  0.00     0.068 A 
HETATM   13  C   UNL     1       7.995  32.813  63.910  1.00  0.00     0.038 A 
HETATM   14  C   UNL     1       8.091  32.377  62.585  1.00  0.00     0.020 A 
BRANCH  12  15
HETATM   15  O   UNL     1       6.873  33.960  65.629  1.00  0.00    -0.351 OA
BRANCH  15  16
HETATM   16  C   UNL     1       5.568  34.025  66.213  1.00  0.00     0.175 C 
BRANCH  16  17
HETATM   17  C   UNL     1       5.635  34.917  67.454  1.00  0.00     0.026 C 
BRANCH  17  18
HETATM   18  C   UNL     1       6.510  34.304  68.551  1.00  0.00    -0.002 C 
HETATM   19  C   UNL     1       7.327  35.364  69.273  1.00  0.00     0.005 C 
ENDBRANCH  17  18
ENDBRANCH  16  17
ENDBRANCH  15  16
ENDBRANCH  12  15
ENDBRANCH   6   9
ENDBRANCH   3   5
ENDBRANCH   1   3
BRANCH   1  20
HETATM   20  C   UNL     1       6.575  29.671  56.953  1.00  0.00     0.036 A 
HETATM   21  C   UNL     1       7.162  28.680  57.748  1.00  0.00     0.067 A 
HETATM   22  C   UNL     1       7.399  27.396  57.237  1.00  0.00     0.082 A 
HETATM   23  C   UNL     1       7.055  27.066  55.919  1.00  0.00     0.050 A 
HETATM   24  C   UNL     1       6.458  28.070  55.137  1.00  0.00     0.021 A 
HETATM   25  C   UNL     1       6.224  29.357  55.643  1.00  0.00     0.030 A 
BRANCH  22  26
HETATM   26  O   UNL     1       8.016  26.478  58.047  1.00  0.00    -0.360 OA
HETATM   27  H   UNL     1       7.364  26.072  58.642  1.00  0.00     0.217 HD
ENDBRANCH  22  26
BRANCH  23  28
HETATM   28  C   UNL     1       7.318  25.768  55.293  1.00  0.00     0.183 A 
HETATM   29  O   UNL     1       7.444  24.674  56.114  1.00  0.00    -0.289 OA
HETATM   30  C   UNL     1       7.706  23.643  55.263  1.00  0.00     0.107 A 
HETATM   31  C   UNL     1       7.709  24.149  53.975  1.00  0.00     0.093 A 
HETATM   32  C   UNL     1       7.941  22.315  55.596  1.00  0.00     0.046 A 
HETATM   33  N   UNL     1       7.445  25.495  54.002  1.00  0.00    -0.221 NA
HETATM   34  C   UNL     1       7.971  23.280  52.909  1.00  0.00     0.035 A 
HETATM   35  C   UNL     1       8.218  21.929  53.201  1.00  0.00     0.009 A 
HETATM   36  C   UNL     1       8.193  21.443  54.521  1.00  0.00    -0.059 A 
HETATM   37  C   UNL     1       8.496  19.995  54.788  1.00  0.00     0.048 C 
ENDBRANCH  23  28
ENDBRANCH   1  20
TORSDOF 10
ENDMDL
MODEL 4
REMARK VINA RESULT:      -9.6      1.688      2.380
REMARK  10 active torsions:
REMARK  status: ('A' for Active; 'I' for Inactive)
REMARK    1  A    between atoms: C_2  and  C_3 
REMARK    2  A    between atoms: C_3  and  C_4 
REMARK    3  A    between atoms: C_4  and  O_5 
REMARK    4  A    between atoms: O_5  and  C_6 
REMARK    5  A    between atoms: C_9  and  C_10 
REMARK       I    between atoms: C_10  and  N_11 
REMARK    6  A    between atoms: N_11  and  C_12 
REMARK    7  A    between atoms: C_12  and  N_13 
REMARK    8  A    between atoms: N_13  and  C_14 
REMARK    9  A    between atoms: C_16  and  O_17 
REMARK   10  A    between atoms: C_18  and  C_19 
ROOT
HETATM    1  N   UNL     1       6.980  31.400  58.843  1.00  0.00    -0.333 N 
HETATM    2  H   UNL     1       7.627  32.173  58.732  1.00  0.00     0.168 HD
ENDROOT
BRANCH   1   3
HETATM    3  C   UNL     1       5.853  31.744  59.504  1.00  0.00     0.179 C 
HETATM    4  S   UNL     1       4.443  31.976  58.631  1.00  0.00    -0.040 SA
BRANCH   3   5
HETATM    5  N   UNL     1       5.812  31.953  60.846  1.00  0.00    -0.299 N 
HETATM    6  C   UNL     1       6.879  32.243  61.694  1.00  0.00     0.257 C 
HETATM    7  O   UNL     1       8.063  32.050  61.449  1.00  0.00    -0.267 OA
HETATM    8  H   UNL     1       4.907  32.289  61.138  1.00  0.00     0.171 HD
BRANCH   6   9
HETATM    9  C   UNL     1       6.504  32.799  63.031  1.00  0.00     0.032 A 
HETATM   10  C   UNL     1       7.537  33.157  63.908  1.00  0.00     0.020 A 
HETATM   11  C   UNL     1       7.247  33.656  65.182  1.00  0.00     0.038 A 
HETATM   12  C   UNL     1       5.919  33.819  65.575  1.00  0.00     0.068 A 
HETATM   13  C   UNL     1       4.885  33.471  64.709  1.00  0.00     0.038 A 
HETATM   14  C   UNL     1       5.173  32.980  63.431  1.00  0.00     0.020 A 
BRANCH  12  15
HETATM   15  O   UNL     1       5.564  34.223  66.831  1.00  0.00    -0.351 OA
BRANCH  15  16
HETATM   16  C   UNL     1       6.677  34.333  67.725  1.00  0.00     0.175 C 
BRANCH  16  17
HETATM   17  C   UNL     1       6.155  34.263  69.160  1.00  0.00     0.026 C 
BRANCH  17  18
HETATM   18  C   UNL     1       7.242  34.611  70.180  1.00  0.00    -0.002 C 
HETATM   19  C   UNL     1       7.778  36.019  69.969  1.00  0.00     0.005 C 
ENDBRANCH  17  18
ENDBRANCH  16  17
ENDBRANCH  15  16
ENDBRANCH  12  15
ENDBRANCH   6   9
ENDBRANCH   3   5
ENDBRANCH   1   3
BRANCH   1  20
HETATM   20  C   UNL     1       7.209  30.321  57.956  1.00  0.00     0.036 A 
HETATM   21  C   UNL     1       6.578  30.382  56.708  1.00  0.00     0.067 A 
HETATM   22  C   UNL     1       6.655  29.306  55.812  1.00  0.00     0.082 A 
HETATM   23  C   UNL     1       7.363  28.142  56.136  1.00  0.00     0.050 A 
HETATM   24  C   UNL     1       7.999  28.100  57.390  1.00  0.00     0.021 A 
HETATM   25  C   UNL     1       7.921  29.172  58.291  1.00  0.00     0.030 A 
BRANCH  22  26
HETATM   26  O   UNL     1       5.982  29.404  54.621  1.00  0.00    -0.360 OA
HETATM   27  H   UNL     1       5.538  28.563  54.423  1.00  0.00     0.217 HD
ENDBRANCH  22  26
BRANCH  23  28
HETATM   28  C   UNL     1       7.447  26.954  55.281  1.00  0.00     0.183 A 
HETATM   29  O   UNL     1       7.449  25.724  55.892  1.00  0.00    -0.289 OA
HETATM   30  C   UNL     1       7.562  24.839  54.863  1.00  0.00     0.107 A 
HETATM   31  C   UNL     1       7.603  25.563  53.684  1.00  0.00     0.093 A 
HETATM   32  C   UNL     1       7.633  23.453  54.947  1.00  0.00     0.046 A 
HETATM   33  N   UNL     1       7.513  26.904  53.959  1.00  0.00    -0.221 NA
HETATM   34  C   UNL     1       7.732  24.874  52.473  1.00  0.00     0.035 A 
HETATM   35  C   UNL     1       7.811  23.473  52.512  1.00  0.00     0.009 A 
HETATM   36  C   UNL     1       7.751  22.765  53.727  1.00  0.00    -0.059 A 
HETATM   37  C   UNL     1       7.874  21.266  53.722  1.00  0.00     0.048 C 
ENDBRANCH  23  28
ENDBRANCH   1  20
TORSDOF 10
ENDMDL
MODEL 5
REMARK VINA RESULT:      -9.2      1.977     12.079
REMARK  10 active torsions:
REMARK  status: ('A' for Active; 'I' for Inactive)
REMARK    1  A    between atoms: C_2  and  C_3 
REMARK    2  A    between atoms: C_3  and  C_4 
REMARK    3  A    between atoms: C_4  and  O_5 
REMARK    4  A    between atoms: O_5  and  C_6 
REMARK    5  A    between atoms: C_9  and  C_10 
REMARK       I    between atoms: C_10  and  N_11 
REMARK    6  A    between atoms: N_11  and  C_12 
REMARK    7  A    between atoms: C_12  and  N_13 
REMARK    8  A    between atoms: N_13  and  C_14 
REMARK    9  A    between atoms: C_16  and  O_17 
REMARK   10  A    between atoms: C_18  and  C_19 
ROOT
HETATM    1  N   UNL     1       5.693  31.644  58.219  1.00  0.00    -0.333 N 
HETATM    2  H   UNL     1       6.508  32.003  57.735  1.00  0.00     0.168 HD
ENDROOT
BRANCH   1   3
HETATM    3  C   UNL     1       5.048  30.679  57.525  1.00  0.00     0.179 C 
HETATM    4  S   UNL     1       3.421  30.880  57.184  1.00  0.00    -0.040 SA
BRANCH   3   5
HETATM    5  N   UNL     1       5.645  29.528  57.121  1.00  0.00    -0.299 N 
HETATM    6  C   UNL     1       6.860  29.003  57.557  1.00  0.00     0.257 C 
HETATM    7  O   UNL     1       7.746  29.625  58.130  1.00  0.00    -0.267 OA
HETATM    8  H   UNL     1       4.968  28.862  56.783  1.00  0.00     0.171 HD
BRANCH   6   9
HETATM    9  C   UNL     1       7.085  27.558  57.242  1.00  0.00     0.032 A 
HETATM   10  C   UNL     1       5.991  26.803  56.798  1.00  0.00     0.020 A 
HETATM   11  C   UNL     1       6.136  25.441  56.516  1.00  0.00     0.038 A 
HETATM   12  C   UNL     1       7.383  24.834  56.656  1.00  0.00     0.068 A 
HETATM   13  C   UNL     1       8.477  25.576  57.092  1.00  0.00     0.038 A 
HETATM   14  C   UNL     1       8.338  26.941  57.367  1.00  0.00     0.020 A 
BRANCH  12  15
HETATM   15  O   UNL     1       7.577  23.493  56.476  1.00  0.00    -0.351 OA
BRANCH  15  16
HETATM   16  C   UNL     1       7.190  23.036  55.176  1.00  0.00     0.175 C 
BRANCH  16  17
HETATM   17  C   UNL     1       8.399  23.141  54.245  1.00  0.00     0.026 C 
BRANCH  17  18
HETATM   18  C   UNL     1       8.011  23.676  52.863  1.00  0.00    -0.002 C 
HETATM   19  C   UNL     1       7.863  25.189  52.870  1.00  0.00     0.005 C 
ENDBRANCH  17  18
ENDBRANCH  16  17
ENDBRANCH  15  16
ENDBRANCH  12  15
ENDBRANCH   6   9
ENDBRANCH   3   5
ENDBRANCH   1   3
BRANCH   1  20
HETATM   20  C   UNL     1       5.674  31.918  59.607  1.00  0.00     0.036 A 
HETATM   21  C   UNL     1       4.419  31.997  60.221  1.00  0.00     0.067 A 
HETATM   22  C   UNL     1       4.299  32.377  61.566  1.00  0.00     0.082 A 
HETATM   23  C   UNL     1       5.430  32.687  62.334  1.00  0.00     0.050 A 
HETATM   24  C   UNL     1       6.684  32.593  61.705  1.00  0.00     0.021 A 
HETATM   25  C   UNL     1       6.807  32.219  60.359  1.00  0.00     0.030 A 
BRANCH  22  26
HETATM   26  O   UNL     1       3.042  32.478  62.103  1.00  0.00    -0.360 OA
HETATM   27  H   UNL     1       2.548  31.658  61.943  1.00  0.00     0.217 HD
ENDBRANCH  22  26
BRANCH  23  28
HETATM   28  C   UNL     1       5.388  33.143  63.726  1.00  0.00     0.183 A 
HETATM   29  O   UNL     1       6.581  33.431  64.341  1.00  0.00    -0.289 OA
HETATM   30  C   UNL     1       6.228  33.793  65.606  1.00  0.00     0.107 A 
HETATM   31  C   UNL     1       4.849  33.727  65.695  1.00  0.00     0.093 A 
HETATM   32  C   UNL     1       7.075  34.160  66.645  1.00  0.00     0.046 A 
HETATM   33  N   UNL     1       4.323  33.330  64.492  1.00  0.00    -0.221 NA
HETATM   34  C   UNL     1       4.235  34.043  66.913  1.00  0.00     0.035 A 
HETATM   35  C   UNL     1       5.054  34.415  67.991  1.00  0.00     0.009 A 
HETATM   36  C   UNL     1       6.454  34.487  67.863  1.00  0.00    -0.059 A 
HETATM   37  C   UNL     1       7.292  34.859  69.055  1.00  0.00     0.048 C 
ENDBRANCH  23  28
ENDBRANCH   1  20
TORSDOF 10
ENDMDL
MODEL 6
REMARK VINA RESULT:      -9.1      2.092      3.055
REMARK  10 active torsions:
REMARK  status: ('A' for Active; 'I' for Inactive)
REMARK    1  A    between atoms: C_2  and  C_3 
REMARK    2  A    between atoms: C_3  and  C_4 
REMARK    3  A    between atoms: C_4  and  O_5 
REMARK    4  A    between atoms: O_5  and  C_6 
REMARK    5  A    between atoms: C_9  and  C_10 
REMARK       I    between atoms: C_10  and  N_11 
REMARK    6  A    between atoms: N_11  and  C_12 
REMARK    7  A    between atoms: C_12  and  N_13 
REMARK    8  A    between atoms: N_13  and  C_14 
REMARK    9  A    between atoms: C_16  and  O_17 
REMARK   10  A    between atoms: C_18  and  C_19 
ROOT
HETATM    1  N   UNL     1       3.724  30.817  54.994  1.00  0.00    -0.333 N 
HETATM    2  H   UNL     1       2.746  30.848  55.258  1.00  0.00     0.168 HD
ENDROOT
BRANCH   1   3
HETATM    3  C   UNL     1       4.367  31.987  55.205  1.00  0.00     0.179 C 
HETATM    4  S   UNL     1       4.536  33.057  53.928  1.00  0.00    -0.040 SA
BRANCH   3   5
HETATM    5  N   UNL     1       4.922  32.327  56.397  1.00  0.00    -0.299 N 
HETATM    6  C   UNL     1       4.442  32.035  57.672  1.00  0.00     0.257 C 
HETATM    7  O   UNL     1       3.294  31.708  57.949  1.00  0.00    -0.267 OA
HETATM    8  H   UNL     1       5.919  32.454  56.315  1.00  0.00     0.171 HD
BRANCH   6   9
HETATM    9  C   UNL     1       5.433  32.186  58.782  1.00  0.00     0.032 A 
HETATM   10  C   UNL     1       6.708  31.632  58.606  1.00  0.00     0.020 A 
HETATM   11  C   UNL     1       7.666  31.718  59.621  1.00  0.00     0.038 A 
HETATM   12  C   UNL     1       7.358  32.378  60.810  1.00  0.00     0.068 A 
HETATM   13  C   UNL     1       6.096  32.936  60.993  1.00  0.00     0.038 A 
HETATM   14  C   UNL     1       5.138  32.860  59.976  1.00  0.00     0.020 A 
BRANCH  12  15
HETATM   15  O   UNL     1       8.216  32.429  61.871  1.00  0.00    -0.351 OA
BRANCH  15  16
HETATM   16  C   UNL     1       7.591  32.111  63.119  1.00  0.00     0.175 C 
BRANCH  16  17
HETATM   17  C   UNL     1       7.879  33.241  64.108  1.00  0.00     0.026 C 
BRANCH  17  18
HETATM   18  C   UNL     1       6.696  33.494  65.046  1.00  0.00    -0.002 C 
HETATM   19  C   UNL     1       5.716  34.494  64.454  1.00  0.00     0.005 C 
ENDBRANCH  17  18
ENDBRANCH  16  17
ENDBRANCH  15  16
ENDBRANCH  12  15
ENDBRANCH   6   9
ENDBRANCH   3   5
ENDBRANCH   1   3
BRANCH   1  20
HETATM   20  C   UNL     1       4.252  29.509  54.878  1.00  0.00     0.036 A 
HETATM   21  C   UNL     1       4.039  28.641  55.955  1.00  0.00     0.067 A 
HETATM   22  C   UNL     1       4.622  27.366  55.977  1.00  0.00     0.082 A 
HETATM   23  C   UNL     1       5.433  26.923  54.924  1.00  0.00     0.050 A 
HETATM   24  C   UNL     1       5.630  27.803  53.845  1.00  0.00     0.021 A 
HETATM   25  C   UNL     1       5.052  29.080  53.822  1.00  0.00     0.030 A 
BRANCH  22  26
HETATM   26  O   UNL     1       4.414  26.576  57.078  1.00  0.00    -0.360 OA
HETATM   27  H   UNL     1       3.867  27.049  57.725  1.00  0.00     0.217 HD
ENDBRANCH  22  26
BRANCH  23  28
HETATM   28  C   UNL     1       6.123  25.630  54.895  1.00  0.00     0.183 A 
HETATM   29  O   UNL     1       6.262  25.006  53.679  1.00  0.00    -0.289 OA
HETATM   30  C   UNL     1       6.902  23.840  53.972  1.00  0.00     0.107 A 
HETATM   31  C   UNL     1       7.138  23.817  55.335  1.00  0.00     0.093 A 
HETATM   32  C   UNL     1       7.262  22.831  53.086  1.00  0.00     0.046 A 
HETATM   33  N   UNL     1       6.654  24.965  55.910  1.00  0.00    -0.221 NA
HETATM   34  C   UNL     1       7.778  22.704  55.891  1.00  0.00     0.035 A 
HETATM   35  C   UNL     1       8.156  21.659  55.033  1.00  0.00     0.009 A 
HETATM   36  C   UNL     1       7.915  21.719  53.647  1.00  0.00    -0.059 A 
HETATM   37  C   UNL     1       8.308  20.561  52.773  1.00  0.00     0.048 C 
ENDBRANCH  23  28
ENDBRANCH   1  20
TORSDOF 10
ENDMDL
MODEL 7
REMARK VINA RESULT:      -9.0      1.339      1.784
REMARK  10 active torsions:
REMARK  status: ('A' for Active; 'I' for Inactive)
REMARK    1  A    between atoms: C_2  and  C_3 
REMARK    2  A    between atoms: C_3  and  C_4 
REMARK    3  A    between atoms: C_4  and  O_5 
REMARK    4  A    between atoms: O_5  and  C_6 
REMARK    5  A    between atoms: C_9  and  C_10 
REMARK       I    between atoms: C_10  and  N_11 
REMARK    6  A    between atoms: N_11  and  C_12 
REMARK    7  A    between atoms: C_12  and  N_13 
REMARK    8  A    between atoms: N_13  and  C_14 
REMARK    9  A    between atoms: C_16  and  O_17 
REMARK   10  A    between atoms: C_18  and  C_19 
ROOT
HETATM    1  N   UNL     1       5.668  31.070  56.062  1.00  0.00    -0.333 N 
HETATM    2  H   UNL     1       5.920  31.743  55.346  1.00  0.00     0.168 HD
ENDROOT
BRANCH   1   3
HETATM    3  C   UNL     1       4.659  31.495  56.855  1.00  0.00     0.179 C 
HETATM    4  S   UNL     1       3.244  32.036  56.141  1.00  0.00    -0.040 SA
BRANCH   3   5
HETATM    5  N   UNL     1       4.748  31.545  58.210  1.00  0.00    -0.299 N 
HETATM    6  C   UNL     1       5.792  32.060  58.975  1.00  0.00     0.257 C 
HETATM    7  O   UNL     1       6.935  32.265  58.583  1.00  0.00    -0.267 OA
HETATM    8  H   UNL     1       3.834  31.556  58.637  1.00  0.00     0.171 HD
BRANCH   6   9
HETATM    9  C   UNL     1       5.464  32.338  60.407  1.00  0.00     0.032 A 
HETATM   10  C   UNL     1       4.112  32.450  60.762  1.00  0.00     0.020 A 
HETATM   11  C   UNL     1       3.746  32.737  62.081  1.00  0.00     0.038 A 
HETATM   12  C   UNL     1       4.732  32.891  63.055  1.00  0.00     0.068 A 
HETATM   13  C   UNL     1       6.077  32.776  62.713  1.00  0.00     0.038 A 
HETATM   14  C   UNL     1       6.446  32.480  61.397  1.00  0.00     0.020 A 
BRANCH  12  15
HETATM   15  O   UNL     1       4.450  33.251  64.342  1.00  0.00    -0.351 OA
BRANCH  15  16
HETATM   16  C   UNL     1       3.544  34.356  64.434  1.00  0.00     0.175 C 
BRANCH  16  17
HETATM   17  C   UNL     1       3.607  34.918  65.854  1.00  0.00     0.026 C 
BRANCH  17  18
HETATM   18  C   UNL     1       4.380  36.239  65.911  1.00  0.00    -0.002 C 
HETATM   19  C   UNL     1       4.926  36.628  64.546  1.00  0.00     0.005 C 
ENDBRANCH  17  18
ENDBRANCH  16  17
ENDBRANCH  15  16
ENDBRANCH  12  15
ENDBRANCH   6   9
ENDBRANCH   3   5
ENDBRANCH   1   3
BRANCH   1  20
HETATM   20  C   UNL     1       6.114  29.753  55.803  1.00  0.00     0.036 A 
HETATM   21  C   UNL     1       5.255  28.925  55.071  1.00  0.00     0.067 A 
HETATM   22  C   UNL     1       5.563  27.572  54.866  1.00  0.00     0.082 A 
HETATM   23  C   UNL     1       6.738  27.010  55.384  1.00  0.00     0.050 A 
HETATM   24  C   UNL     1       7.594  27.857  56.108  1.00  0.00     0.021 A 
HETATM   25  C   UNL     1       7.288  29.209  56.320  1.00  0.00     0.030 A 
BRANCH  22  26
HETATM   26  O   UNL     1       4.664  26.798  54.178  1.00  0.00    -0.360 OA
HETATM   27  H   UNL     1       3.815  27.264  54.107  1.00  0.00     0.217 HD
ENDBRANCH  22  26
BRANCH  23  28
HETATM   28  C   UNL     1       7.106  25.597  55.262  1.00  0.00     0.183 A 
HETATM   29  O   UNL     1       7.250  25.080  53.998  1.00  0.00    -0.289 OA
HETATM   30  C   UNL     1       7.560  23.770  54.204  1.00  0.00     0.107 A 
HETATM   31  C   UNL     1       7.609  23.557  55.570  1.00  0.00     0.093 A 
HETATM   32  C   UNL     1       7.785  22.795  53.239  1.00  0.00     0.046 A 
HETATM   33  N   UNL     1       7.335  24.726  56.234  1.00  0.00    -0.221 NA
HETATM   34  C   UNL     1       7.898  22.272  56.043  1.00  0.00     0.035 A 
HETATM   35  C   UNL     1       8.129  21.255  55.102  1.00  0.00     0.009 A 
HETATM   36  C   UNL     1       8.087  21.508  53.718  1.00  0.00    -0.059 A 
HETATM   37  C   UNL     1       8.307  20.380  52.749  1.00  0.00     0.048 C 
ENDBRANCH  23  28
ENDBRANCH   1  20
TORSDOF 10
ENDMDL
MODEL 8
REMARK VINA RESULT:      -8.9      2.081      2.782
REMARK  10 active torsions:
REMARK  status: ('A' for Active; 'I' for Inactive)
REMARK    1  A    between atoms: C_2  and  C_3 
REMARK    2  A    between atoms: C_3  and  C_4 
REMARK    3  A    between atoms: C_4  and  O_5 
REMARK    4  A    between atoms: O_5  and  C_6 
REMARK    5  A    between atoms: C_9  and  C_10 
REMARK       I    between atoms: C_10  and  N_11 
REMARK    6  A    between atoms: N_11  and  C_12 
REMARK    7  A    between atoms: C_12  and  N_13 
REMARK    8  A    between atoms: N_13  and  C_14 
REMARK    9  A    between atoms: C_16  and  O_17 
REMARK   10  A    between atoms: C_18  and  C_19 
ROOT
HETATM    1  N   UNL     1       5.935  31.081  58.076  1.00  0.00    -0.333 N 
HETATM    2  H   UNL     1       6.661  31.260  58.761  1.00  0.00     0.168 HD
ENDROOT
BRANCH   1   3
HETATM    3  C   UNL     1       5.154  32.158  57.839  1.00  0.00     0.179 C 
HETATM    4  S   UNL     1       4.775  32.548  56.255  1.00  0.00    -0.040 SA
BRANCH   3   5
HETATM    5  N   UNL     1       4.689  32.972  58.823  1.00  0.00    -0.299 N 
HETATM    6  C   UNL     1       3.753  32.664  59.809  1.00  0.00     0.257 C 
HETATM    7  O   UNL     1       2.959  31.732  59.777  1.00  0.00    -0.267 OA
HETATM    8  H   UNL     1       5.358  33.690  59.052  1.00  0.00     0.171 HD
BRANCH   6   9
HETATM    9  C   UNL     1       3.717  33.600  60.974  1.00  0.00     0.032 A 
HETATM   10  C   UNL     1       4.708  34.587  61.057  1.00  0.00     0.020 A 
HETATM   11  C   UNL     1       4.741  35.472  62.139  1.00  0.00     0.038 A 
HETATM   12  C   UNL     1       3.767  35.386  63.133  1.00  0.00     0.068 A 
HETATM   13  C   UNL     1       2.774  34.413  63.057  1.00  0.00     0.038 A 
HETATM   14  C   UNL     1       2.734  33.531  61.972  1.00  0.00     0.020 A 
BRANCH  12  15
HETATM   15  O   UNL     1       3.786  36.164  64.256  1.00  0.00    -0.351 OA
BRANCH  15  16
HETATM   16  C   UNL     1       3.717  35.407  65.469  1.00  0.00     0.175 C 
BRANCH  16  17
HETATM   17  C   UNL     1       5.140  35.071  65.914  1.00  0.00     0.026 C 
BRANCH  17  18
HETATM   18  C   UNL     1       5.579  33.688  65.428  1.00  0.00    -0.002 C 
HETATM   19  C   UNL     1       7.072  33.642  65.142  1.00  0.00     0.005 C 
ENDBRANCH  17  18
ENDBRANCH  16  17
ENDBRANCH  15  16
ENDBRANCH  12  15
ENDBRANCH   6   9
ENDBRANCH   3   5
ENDBRANCH   1   3
BRANCH   1  20
HETATM   20  C   UNL     1       6.168  29.944  57.267  1.00  0.00     0.036 A 
HETATM   21  C   UNL     1       5.208  28.926  57.311  1.00  0.00     0.067 A 
HETATM   22  C   UNL     1       5.412  27.716  56.632  1.00  0.00     0.082 A 
HETATM   23  C   UNL     1       6.579  27.490  55.890  1.00  0.00     0.050 A 
HETATM   24  C   UNL     1       7.529  28.525  55.848  1.00  0.00     0.021 A 
HETATM   25  C   UNL     1       7.331  29.735  56.530  1.00  0.00     0.030 A 
BRANCH  22  26
HETATM   26  O   UNL     1       4.457  26.739  56.746  1.00  0.00    -0.360 OA
HETATM   27  H   UNL     1       3.861  26.945  57.484  1.00  0.00     0.217 HD
ENDBRANCH  22  26
BRANCH  23  28
HETATM   28  C   UNL     1       6.893  26.237  55.198  1.00  0.00     0.183 A 
HETATM   29  O   UNL     1       6.924  25.084  55.944  1.00  0.00    -0.289 OA
HETATM   30  C   UNL     1       7.264  24.114  55.050  1.00  0.00     0.107 A 
HETATM   31  C   UNL     1       7.403  24.713  53.810  1.00  0.00     0.093 A 
HETATM   32  C   UNL     1       7.451  22.761  55.305  1.00  0.00     0.046 A 
HETATM   33  N   UNL     1       7.150  26.058  53.911  1.00  0.00    -0.221 NA
HETATM   34  C   UNL     1       7.766  23.921  52.715  1.00  0.00     0.035 A 
HETATM   35  C   UNL     1       7.970  22.548  52.928  1.00  0.00     0.009 A 
HETATM   36  C   UNL     1       7.805  21.967  54.199  1.00  0.00    -0.059 A 
HETATM   37  C   UNL     1       8.066  20.498  54.386  1.00  0.00     0.048 C 
ENDBRANCH  23  28
ENDBRANCH   1  20
TORSDOF 10
ENDMDL
MODEL 9
REMARK VINA RESULT:      -8.9      1.538      2.080
REMARK  10 active torsions:
REMARK  status: ('A' for Active; 'I' for Inactive)
REMARK    1  A    between atoms: C_2  and  C_3 
REMARK    2  A    between atoms: C_3  and  C_4 
REMARK    3  A    between atoms: C_4  and  O_5 
REMARK    4  A    between atoms: O_5  and  C_6 
REMARK    5  A    between atoms: C_9  and  C_10 
REMARK       I    between atoms: C_10  and  N_11 
REMARK    6  A    between atoms: N_11  and  C_12 
REMARK    7  A    between atoms: C_12  and  N_13 
REMARK    8  A    between atoms: N_13  and  C_14 
REMARK    9  A    between atoms: C_16  and  O_17 
REMARK   10  A    between atoms: C_18  and  C_19 
ROOT
HETATM    1  N   UNL     1       5.930  30.934  56.036  1.00  0.00    -0.333 N 
HETATM    2  H   UNL     1       6.432  31.471  55.337  1.00  0.00     0.168 HD
ENDROOT
BRANCH   1   3
HETATM    3  C   UNL     1       4.914  31.620  56.603  1.00  0.00     0.179 C 
HETATM    4  S   UNL     1       3.809  32.394  55.611  1.00  0.00    -0.040 SA
BRANCH   3   5
HETATM    5  N   UNL     1       4.762  31.750  57.947  1.00  0.00    -0.299 N 
HETATM    6  C   UNL     1       5.690  32.243  58.863  1.00  0.00     0.257 C 
HETATM    7  O   UNL     1       6.896  32.344  58.678  1.00  0.00    -0.267 OA
HETATM    8  H   UNL     1       3.791  31.850  58.199  1.00  0.00     0.171 HD
BRANCH   6   9
HETATM    9  C   UNL     1       5.133  32.632  60.195  1.00  0.00     0.032 A 
HETATM   10  C   UNL     1       6.033  32.852  61.247  1.00  0.00     0.020 A 
HETATM   11  C   UNL     1       5.567  33.190  62.521  1.00  0.00     0.038 A 
HETATM   12  C   UNL     1       4.198  33.331  62.743  1.00  0.00     0.068 A 
HETATM   13  C   UNL     1       3.296  33.120  61.704  1.00  0.00     0.038 A 
HETATM   14  C   UNL     1       3.759  32.790  60.426  1.00  0.00     0.020 A 
BRANCH  12  15
HETATM   15  O   UNL     1       3.671  33.580  63.979  1.00  0.00    -0.351 OA
BRANCH  15  16
HETATM   16  C   UNL     1       4.445  34.507  64.747  1.00  0.00     0.175 C 
BRANCH  16  17
HETATM   17  C   UNL     1       4.961  33.792  65.995  1.00  0.00     0.026 C 
BRANCH  17  18
HETATM   18  C   UNL     1       5.446  34.780  67.060  1.00  0.00    -0.002 C 
HETATM   19  C   UNL     1       5.249  34.231  68.465  1.00  0.00     0.005 C 
ENDBRANCH  17  18
ENDBRANCH  16  17
ENDBRANCH  15  16
ENDBRANCH  12  15
ENDBRANCH   6   9
ENDBRANCH   3   5
ENDBRANCH   1   3
BRANCH   1  20
HETATM   20  C   UNL     1       6.132  29.536  55.946  1.00  0.00     0.036 A 
HETATM   21  C   UNL     1       7.106  28.980  56.784  1.00  0.00     0.067 A 
HETATM   22  C   UNL     1       7.453  27.626  56.683  1.00  0.00     0.082 A 
HETATM   23  C   UNL     1       6.836  26.788  55.743  1.00  0.00     0.050 A 
HETATM   24  C   UNL     1       5.853  27.359  54.916  1.00  0.00     0.021 A 
HETATM   25  C   UNL     1       5.507  28.715  55.011  1.00  0.00     0.030 A 
BRANCH  22  26
HETATM   26  O   UNL     1       8.444  27.146  57.500  1.00  0.00    -0.360 OA
HETATM   27  H   UNL     1       8.458  27.648  58.331  1.00  0.00     0.217 HD
ENDBRANCH  22  26
BRANCH  23  28
HETATM   28  C   UNL     1       7.179  25.378  55.537  1.00  0.00     0.183 A 
HETATM   29  O   UNL     1       7.357  24.945  54.246  1.00  0.00    -0.289 OA
HETATM   30  C   UNL     1       7.630  23.617  54.372  1.00  0.00     0.107 A 
HETATM   31  C   UNL     1       7.625  23.310  55.721  1.00  0.00     0.093 A 
HETATM   32  C   UNL     1       7.869  22.705  53.350  1.00  0.00     0.046 A 
HETATM   33  N   UNL     1       7.354  24.438  56.454  1.00  0.00    -0.221 NA
HETATM   34  C   UNL     1       7.870  21.990  56.114  1.00  0.00     0.035 A 
HETATM   35  C   UNL     1       8.112  21.034  55.114  1.00  0.00     0.009 A 
HETATM   36  C   UNL     1       8.125  21.381  53.750  1.00  0.00    -0.059 A 
HETATM   37  C   UNL     1       8.357  20.317  52.714  1.00  0.00     0.048 C 
ENDBRANCH  23  28
ENDBRANCH   1  20
TORSDOF 10
ENDMDL
MODEL 10
REMARK VINA RESULT:      -8.7      2.963     11.243
REMARK  10 active torsions:
REMARK  status: ('A' for Active; 'I' for Inactive)
REMARK    1  A    between atoms: C_2  and  C_3 
REMARK    2  A    between atoms: C_3  and  C_4 
REMARK    3  A    between atoms: C_4  and  O_5 
REMARK    4  A    between atoms: O_5  and  C_6 
REMARK    5  A    between atoms: C_9  and  C_10 
REMARK       I    between atoms: C_10  and  N_11 
REMARK    6  A    between atoms: N_11  and  C_12 
REMARK    7  A    between atoms: C_12  and  N_13 
REMARK    8  A    between atoms: N_13  and  C_14 
REMARK    9  A    between atoms: C_16  and  O_17 
REMARK   10  A    between atoms: C_18  and  C_19 
ROOT
HETATM    1  N   UNL     1       3.190  30.295  53.793  1.00  0.00    -0.333 N 
HETATM    2  H   UNL     1       2.478  31.005  53.669  1.00  0.00     0.168 HD
ENDROOT
BRANCH   1   3
HETATM    3  C   UNL     1       3.387  29.543  52.687  1.00  0.00     0.179 C 
HETATM    4  S   UNL     1       2.789  30.090  51.222  1.00  0.00    -0.040 SA
BRANCH   3   5
HETATM    5  N   UNL     1       4.016  28.339  52.707  1.00  0.00    -0.299 N 
HETATM    6  C   UNL     1       5.363  28.079  52.463  1.00  0.00     0.257 C 
HETATM    7  O   UNL     1       6.144  28.825  51.885  1.00  0.00    -0.267 OA
HETATM    8  H   UNL     1       3.538  27.685  53.308  1.00  0.00     0.171 HD
BRANCH   6   9
HETATM    9  C   UNL     1       5.854  26.745  52.926  1.00  0.00     0.032 A 
HETATM   10  C   UNL     1       6.699  26.022  52.073  1.00  0.00     0.020 A 
HETATM   11  C   UNL     1       7.166  24.756  52.441  1.00  0.00     0.038 A 
HETATM   12  C   UNL     1       6.806  24.217  53.675  1.00  0.00     0.068 A 
HETATM   13  C   UNL     1       5.971  24.929  54.532  1.00  0.00     0.038 A 
HETATM   14  C   UNL     1       5.509  26.200  54.171  1.00  0.00     0.020 A 
BRANCH  12  15
HETATM   15  O   UNL     1       7.159  22.956  54.063  1.00  0.00    -0.351 OA
BRANCH  15  16
HETATM   16  C   UNL     1       7.805  22.207  53.028  1.00  0.00     0.175 C 
BRANCH  16  17
HETATM   17  C   UNL     1       8.640  21.103  53.677  1.00  0.00     0.026 C 
BRANCH  17  18
HETATM   18  C   UNL     1       7.902  20.439  54.842  1.00  0.00    -0.002 C 
HETATM   19  C   UNL     1       8.638  20.640  56.158  1.00  0.00     0.005 C 
ENDBRANCH  17  18
ENDBRANCH  16  17
ENDBRANCH  15  16
ENDBRANCH  12  15
ENDBRANCH   6   9
ENDBRANCH   3   5
ENDBRANCH   1   3
BRANCH   1  20
HETATM   20  C   UNL     1       4.056  30.527  54.888  1.00  0.00     0.036 A 
HETATM   21  C   UNL     1       4.295  29.448  55.747  1.00  0.00     0.067 A 
HETATM   22  C   UNL     1       5.046  29.615  56.919  1.00  0.00     0.082 A 
HETATM   23  C   UNL     1       5.579  30.864  57.265  1.00  0.00     0.050 A 
HETATM   24  C   UNL     1       5.338  31.935  56.388  1.00  0.00     0.021 A 
HETATM   25  C   UNL     1       4.583  31.773  55.217  1.00  0.00     0.030 A 
BRANCH  22  26
HETATM   26  O   UNL     1       5.213  28.533  57.744  1.00  0.00    -0.360 OA
HETATM   27  H   UNL     1       6.149  28.276  57.767  1.00  0.00     0.217 HD
ENDBRANCH  22  26
BRANCH  23  28
HETATM   28  C   UNL     1       6.327  31.136  58.496  1.00  0.00     0.183 A 
HETATM   29  O   UNL     1       5.694  31.845  59.487  1.00  0.00    -0.289 OA
HETATM   30  C   UNL     1       6.631  31.960  60.469  1.00  0.00     0.107 A 
HETATM   31  C   UNL     1       7.773  31.305  60.043  1.00  0.00     0.093 A 
HETATM   32  C   UNL     1       6.499  32.616  61.687  1.00  0.00     0.046 A 
HETATM   33  N   UNL     1       7.565  30.771  58.796  1.00  0.00    -0.221 NA
HETATM   34  C   UNL     1       8.895  31.292  60.878  1.00  0.00     0.035 A 
HETATM   35  C   UNL     1       8.807  31.946  62.118  1.00  0.00     0.009 A 
HETATM   36  C   UNL     1       7.626  32.591  62.528  1.00  0.00    -0.059 A 
HETATM   37  C   UNL     1       7.589  33.307  63.850  1.00  0.00     0.048 C 
ENDBRANCH  23  28
ENDBRANCH   1  20
TORSDOF 10
ENDMDL
