MODEL 1
REMARK VINA RESULT:     -10.1      0.000      0.000
REMARK  5 active torsions:
REMARK  status: ('A' for Active; 'I' for Inactive)
REMARK    1  A    between atoms: C_4  and  C_5 
REMARK    2  A    between atoms: C_13  and  C_14 
REMARK       I    between atoms: C_14  and  N_15 
REMARK    3  A    between atoms: N_15  and  C_16 
REMARK    4  A    between atoms: C_17  and  N_18 
REMARK    5  A    between atoms: C_21  and  O_22 
ROOT
HETATM    1  C   UNL     1       8.237  28.327  57.062  1.00  0.00     0.258 C 
HETATM    2  N   UNL     1       7.209  29.047  57.623  1.00  0.00    -0.321 N 
HETATM    3  O   UNL     1       9.408  28.673  56.949  1.00  0.00    -0.267 OA
HETATM    4  H   UNL     1       6.242  28.822  57.410  1.00  0.00     0.169 HD
ENDROOT
BRANCH   2   5
HETATM    5  C   UNL     1       7.359  30.161  58.487  1.00  0.00     0.056 A 
HETATM    6  C   UNL     1       6.345  31.153  58.465  1.00  0.00     0.037 A 
HETATM    7  C   UNL     1       6.421  32.188  59.416  1.00  0.00     0.026 A 
HETATM    8  C   UNL     1       7.467  32.250  60.340  1.00  0.00     0.002 A 
HETATM    9  C   UNL     1       8.468  31.285  60.327  1.00  0.00     0.002 A 
HETATM   10  C   UNL     1       8.414  30.245  59.401  1.00  0.00     0.031 A 
BRANCH   6  11
HETATM   11  N   UNL     1       5.347  31.114  57.441  1.00  0.00    -0.281 NA
HETATM   12  C   UNL     1       5.337  32.421  56.740  1.00  0.00     0.098 C 
HETATM   13  C   UNL     1       4.432  32.338  55.510  1.00  0.00     0.046 C 
HETATM   14  C   UNL     1       3.025  31.879  55.880  1.00  0.00     0.120 C 
HETATM   15  C   UNL     1       3.063  30.590  56.698  1.00  0.00     0.046 C 
HETATM   16  C   UNL     1       3.995  30.731  57.901  1.00  0.00     0.098 C 
BRANCH  14  17
HETATM   17  O   UNL     1       2.360  32.893  56.634  1.00  0.00    -0.395 OA
HETATM   18  H   UNL     1       1.756  33.361  56.030  1.00  0.00     0.210 HD
ENDBRANCH  14  17
ENDBRANCH   6  11
ENDBRANCH   2   5
BRANCH   1  19
HETATM   19  C   UNL     1       7.884  26.981  56.594  1.00  0.00     0.056 A 
HETATM   20  C   UNL     1       7.516  26.721  55.280  1.00  0.00     0.047 A 
HETATM   21  C   UNL     1       7.241  27.825  54.304  1.00  0.00     0.071 C 
HETATM   22  N   UNL     1       7.414  25.449  54.801  1.00  0.00    -0.252 NA
HETATM   23  C   UNL     1       7.719  24.402  55.619  1.00  0.00     0.067 A 
HETATM   24  C   UNL     1       8.062  24.611  56.955  1.00  0.00     0.033 A 
HETATM   25  C   UNL     1       8.143  25.912  57.447  1.00  0.00     0.021 A 
BRANCH  23  26
HETATM   26  C   UNL     1       7.753  23.064  54.977  1.00  0.00    -0.007 A 
HETATM   27  C   UNL     1       7.838  22.944  53.575  1.00  0.00     0.014 A 
HETATM   28  C   UNL     1       7.939  21.698  52.945  1.00  0.00     0.001 A 
HETATM   29  C   UNL     1       7.954  20.534  53.704  1.00  0.00     0.000 A 
HETATM   30  C   UNL     1       7.855  20.616  55.089  1.00  0.00     0.001 A 
HETATM   31  C   UNL     1       7.751  21.865  55.715  1.00  0.00     0.014 A 
ENDBRANCH  23  26
ENDBRANCH   1  19
TORSDOF 5
ENDMDL
MODEL 2
REMARK VINA RESULT:      -9.7      1.868      4.092
REMARK  5 active torsions:
REMARK  status: ('A' for Active; 'I' for Inactive)
REMARK    1  A    between atoms: C_4  and  C_5 
REMARK    2  A    between atoms: C_13  and  C_14 
REMARK       I    between atoms: C_14  and  N_15 
REMARK    3  A    between atoms: N_15  and  C_16 
REMARK    4  A    between atoms: C_17  and  N_18 
REMARK    5  A    between atoms: C_21  and  O_22 
ROOT
HETATM    1  C   UNL     1       5.193  27.598  55.469  1.00  0.00     0.258 C 
HETATM    2  N   UNL     1       5.267  28.279  56.660  1.00  0.00    -0.321 N 
HETATM    3  O   UNL     1       4.531  27.902  54.482  1.00  0.00    -0.267 OA
HETATM    4  H   UNL     1       5.587  27.814  57.504  1.00  0.00     0.169 HD
ENDROOT
BRANCH   2   5
HETATM    5  C   UNL     1       4.886  29.630  56.862  1.00  0.00     0.056 A 
HETATM    6  C   UNL     1       5.898  30.552  57.234  1.00  0.00     0.037 A 
HETATM    7  C   UNL     1       5.551  31.913  57.303  1.00  0.00     0.026 A 
HETATM    8  C   UNL     1       4.249  32.345  57.030  1.00  0.00     0.002 A 
HETATM    9  C   UNL     1       3.264  31.423  56.696  1.00  0.00     0.002 A 
HETATM   10  C   UNL     1       3.581  30.070  56.615  1.00  0.00     0.031 A 
BRANCH   6  11
HETATM   11  N   UNL     1       7.191  30.063  57.604  1.00  0.00    -0.281 NA
HETATM   12  C   UNL     1       7.779  30.989  58.603  1.00  0.00     0.098 C 
HETATM   13  C   UNL     1       9.064  30.384  59.171  1.00  0.00     0.046 C 
HETATM   14  C   UNL     1      10.055  30.034  58.064  1.00  0.00     0.120 C 
HETATM   15  C   UNL     1       9.397  29.172  56.989  1.00  0.00     0.046 C 
HETATM   16  C   UNL     1       8.113  29.820  56.474  1.00  0.00     0.098 C 
BRANCH  14  17
HETATM   17  O   UNL     1      10.562  31.226  57.465  1.00  0.00    -0.395 OA
HETATM   18  H   UNL     1      11.534  31.190  57.512  1.00  0.00     0.210 HD
ENDBRANCH  14  17
ENDBRANCH   6  11
ENDBRANCH   2   5
BRANCH   1  19
HETATM   19  C   UNL     1       6.039  26.402  55.369  1.00  0.00     0.056 A 
HETATM   20  C   UNL     1       5.823  25.268  56.142  1.00  0.00     0.047 A 
HETATM   21  C   UNL     1       4.849  25.264  57.282  1.00  0.00     0.071 C 
HETATM   22  N   UNL     1       6.461  24.092  55.886  1.00  0.00    -0.252 NA
HETATM   23  C   UNL     1       7.306  24.011  54.820  1.00  0.00     0.067 A 
HETATM   24  C   UNL     1       7.581  25.130  54.034  1.00  0.00     0.033 A 
HETATM   25  C   UNL     1       6.944  26.338  54.313  1.00  0.00     0.021 A 
BRANCH  23  26
HETATM   26  C   UNL     1       7.825  22.656  54.503  1.00  0.00    -0.007 A 
HETATM   27  C   UNL     1       8.136  21.749  55.536  1.00  0.00     0.014 A 
HETATM   28  C   UNL     1       8.564  20.443  55.268  1.00  0.00     0.001 A 
HETATM   29  C   UNL     1       8.697  20.010  53.954  1.00  0.00     0.000 A 
HETATM   30  C   UNL     1       8.414  20.886  52.911  1.00  0.00     0.001 A 
HETATM   31  C   UNL     1       7.989  22.193  53.183  1.00  0.00     0.014 A 
ENDBRANCH  23  26
ENDBRANCH   1  19
TORSDOF 5
ENDMDL
MODEL 3
REMARK VINA RESULT:      -9.6      2.403      8.756
REMARK  5 active torsions:
REMARK  status: ('A' for Active; 'I' for Inactive)
REMARK    1  A    between atoms: C_4  and  C_5 
REMARK    2  A    between atoms: C_13  and  C_14 
REMARK       I    between atoms: C_14  and  N_15 
REMARK    3  A    between atoms: N_15  and  C_16 
REMARK    4  A    between atoms: C_17  and  N_18 
REMARK    5  A    between atoms: C_21  and  O_22 
ROOT
HETATM    1  C   UNL     1       7.901  28.317  54.912  1.00  0.00     0.258 C 
HETATM    2  N   UNL     1       6.943  27.337  55.013  1.00  0.00    -0.321 N 
HETATM    3  O   UNL     1       8.624  28.550  53.949  1.00  0.00    -0.267 OA
HETATM    4  H   UNL     1       6.614  27.026  55.922  1.00  0.00     0.169 HD
ENDROOT
BRANCH   2   5
HETATM    5  C   UNL     1       6.359  26.640  53.925  1.00  0.00     0.056 A 
HETATM    6  C   UNL     1       6.522  25.232  53.879  1.00  0.00     0.037 A 
HETATM    7  C   UNL     1       5.831  24.524  52.879  1.00  0.00     0.026 A 
HETATM    8  C   UNL     1       5.023  25.185  51.949  1.00  0.00     0.002 A 
HETATM    9  C   UNL     1       4.899  26.569  51.991  1.00  0.00     0.002 A 
HETATM   10  C   UNL     1       5.567  27.294  52.975  1.00  0.00     0.031 A 
BRANCH   6  11
HETATM   11  N   UNL     1       7.436  24.602  54.783  1.00  0.00    -0.281 NA
HETATM   12  C   UNL     1       8.079  23.461  54.087  1.00  0.00     0.098 C 
HETATM   13  C   UNL     1       9.208  22.901  54.953  1.00  0.00     0.046 C 
HETATM   14  C   UNL     1       8.709  22.514  56.342  1.00  0.00     0.120 C 
HETATM   15  C   UNL     1       7.952  23.667  56.997  1.00  0.00     0.046 C 
HETATM   16  C   UNL     1       6.851  24.193  56.078  1.00  0.00     0.098 C 
BRANCH  14  17
HETATM   17  O   UNL     1       7.848  21.377  56.256  1.00  0.00    -0.395 OA
HETATM   18  H   UNL     1       7.654  21.085  57.163  1.00  0.00     0.210 HD
ENDBRANCH  14  17
ENDBRANCH   6  11
ENDBRANCH   2   5
BRANCH   1  19
HETATM   19  C   UNL     1       8.027  29.201  56.077  1.00  0.00     0.056 A 
HETATM   20  C   UNL     1       6.952  29.912  56.594  1.00  0.00     0.047 A 
HETATM   21  C   UNL     1       5.641  29.997  55.872  1.00  0.00     0.071 C 
HETATM   22  N   UNL     1       7.022  30.544  57.800  1.00  0.00    -0.252 NA
HETATM   23  C   UNL     1       8.162  30.446  58.539  1.00  0.00     0.067 A 
HETATM   24  C   UNL     1       9.280  29.771  58.048  1.00  0.00     0.033 A 
HETATM   25  C   UNL     1       9.213  29.145  56.805  1.00  0.00     0.021 A 
BRANCH  23  26
HETATM   26  C   UNL     1       8.100  31.012  59.911  1.00  0.00    -0.007 A 
HETATM   27  C   UNL     1       9.009  30.589  60.901  1.00  0.00     0.014 A 
HETATM   28  C   UNL     1       9.017  31.151  62.183  1.00  0.00     0.001 A 
HETATM   29  C   UNL     1       8.110  32.151  62.510  1.00  0.00     0.000 A 
HETATM   30  C   UNL     1       7.188  32.580  61.561  1.00  0.00     0.001 A 
HETATM   31  C   UNL     1       7.181  32.013  60.280  1.00  0.00     0.014 A 
ENDBRANCH  23  26
ENDBRANCH   1  19
TORSDOF 5
ENDMDL
MODEL 4
REMARK VINA RESULT:      -9.5      4.601      6.715
REMARK  5 active torsions:
REMARK  status: ('A' for Active; 'I' for Inactive)
REMARK    1  A    between atoms: C_4  and  C_5 
REMARK    2  A    between atoms: C_13  and  C_14 
REMARK       I    between atoms: C_14  and  N_15 
REMARK    3  A    between atoms: N_15  and  C_16 
REMARK    4  A    between atoms: C_17  and  N_18 
REMARK    5  A    between atoms: C_21  and  O_22 
ROOT
HETATM    1  C   UNL     1       4.914  27.932  53.240  1.00  0.00     0.258 C 
HETATM    2  N   UNL     1       5.382  28.909  52.394  1.00  0.00    -0.321 N 
HETATM    3  O   UNL     1       3.876  27.952  53.893  1.00  0.00    -0.267 OA
HETATM    4  H   UNL     1       6.364  28.946  52.137  1.00  0.00     0.169 HD
ENDROOT
BRANCH   2   5
HETATM    5  C   UNL     1       4.608  29.959  51.840  1.00  0.00     0.056 A 
HETATM    6  C   UNL     1       4.082  29.774  50.535  1.00  0.00     0.037 A 
HETATM    7  C   UNL     1       3.203  30.753  50.038  1.00  0.00     0.026 A 
HETATM    8  C   UNL     1       2.870  31.881  50.793  1.00  0.00     0.002 A 
HETATM    9  C   UNL     1       3.418  32.061  52.058  1.00  0.00     0.002 A 
HETATM   10  C   UNL     1       4.286  31.104  52.578  1.00  0.00     0.031 A 
BRANCH   6  11
HETATM   11  N   UNL     1       4.525  28.660  49.753  1.00  0.00    -0.281 NA
HETATM   12  C   UNL     1       4.778  29.127  48.368  1.00  0.00     0.098 C 
HETATM   13  C   UNL     1       5.449  28.011  47.565  1.00  0.00     0.046 C 
HETATM   14  C   UNL     1       4.625  26.727  47.593  1.00  0.00     0.120 C 
HETATM   15  C   UNL     1       4.279  26.326  49.025  1.00  0.00     0.046 C 
HETATM   16  C   UNL     1       3.629  27.484  49.778  1.00  0.00     0.098 C 
BRANCH  14  17
HETATM   17  O   UNL     1       3.418  26.903  46.850  1.00  0.00    -0.395 OA
HETATM   18  H   UNL     1       2.696  27.037  47.489  1.00  0.00     0.210 HD
ENDBRANCH  14  17
ENDBRANCH   6  11
ENDBRANCH   2   5
BRANCH   1  19
HETATM   19  C   UNL     1       5.738  26.719  53.322  1.00  0.00     0.056 A 
HETATM   20  C   UNL     1       6.624  26.489  54.367  1.00  0.00     0.047 A 
HETATM   21  C   UNL     1       6.962  27.556  55.365  1.00  0.00     0.071 C 
HETATM   22  N   UNL     1       7.210  25.274  54.557  1.00  0.00    -0.252 NA
HETATM   23  C   UNL     1       6.890  24.242  53.726  1.00  0.00     0.067 A 
HETATM   24  C   UNL     1       6.030  24.432  52.644  1.00  0.00     0.033 A 
HETATM   25  C   UNL     1       5.451  25.683  52.439  1.00  0.00     0.021 A 
BRANCH  23  26
HETATM   26  C   UNL     1       7.431  22.911  54.102  1.00  0.00    -0.007 A 
HETATM   27  C   UNL     1       7.550  22.544  55.458  1.00  0.00     0.014 A 
HETATM   28  C   UNL     1       7.994  21.274  55.843  1.00  0.00     0.001 A 
HETATM   29  C   UNL     1       8.336  20.334  54.877  1.00  0.00     0.000 A 
HETATM   30  C   UNL     1       8.246  20.670  53.530  1.00  0.00     0.001 A 
HETATM   31  C   UNL     1       7.804  21.944  53.150  1.00  0.00     0.014 A 
ENDBRANCH  23  26
ENDBRANCH   1  19
TORSDOF 5
ENDMDL
MODEL 5
REMARK VINA RESULT:      -9.3      1.910      3.755
REMARK  5 active torsions:
REMARK  status: ('A' for Active; 'I' for Inactive)
REMARK    1  A    between atoms: C_4  and  C_5 
REMARK    2  A    between atoms: C_13  and  C_14 
REMARK       I    between atoms: C_14  and  N_15 
REMARK    3  A    between atoms: N_15  and  C_16 
REMARK    4  A    between atoms: C_17  and  N_18 
REMARK    5  A    between atoms: C_21  and  O_22 
ROOT
HETATM    1  C   UNL     1       4.535  28.541  56.217  1.00  0.00     0.258 C 
HETATM    2  N   UNL     1       4.918  28.904  57.486  1.00  0.00    -0.321 N 
HETATM    3  O   UNL     1       3.867  29.200  55.427  1.00  0.00    -0.267 OA
HETATM    4  H   UNL     1       5.201  28.202  58.163  1.00  0.00     0.169 HD
ENDROOT
BRANCH   2   5
HETATM    5  C   UNL     1       4.925  30.226  57.998  1.00  0.00     0.056 A 
HETATM    6  C   UNL     1       6.173  30.896  58.078  1.00  0.00     0.037 A 
HETATM    7  C   UNL     1       6.166  32.251  58.456  1.00  0.00     0.026 A 
HETATM    8  C   UNL     1       4.973  32.914  58.760  1.00  0.00     0.002 A 
HETATM    9  C   UNL     1       3.763  32.233  58.705  1.00  0.00     0.002 A 
HETATM   10  C   UNL     1       3.740  30.892  58.327  1.00  0.00     0.031 A 
BRANCH   6  11
HETATM   11  N   UNL     1       7.380  30.159  57.859  1.00  0.00    -0.281 NA
HETATM   12  C   UNL     1       8.511  30.917  58.450  1.00  0.00     0.098 C 
HETATM   13  C   UNL     1       9.776  30.059  58.417  1.00  0.00     0.046 C 
HETATM   14  C   UNL     1      10.090  29.576  57.003  1.00  0.00     0.120 C 
HETATM   15  C   UNL     1       8.876  28.898  56.372  1.00  0.00     0.046 C 
HETATM   16  C   UNL     1       7.642  29.795  56.450  1.00  0.00     0.098 C 
BRANCH  14  17
HETATM   17  O   UNL     1      10.490  30.677  56.186  1.00  0.00    -0.395 OA
HETATM   18  H   UNL     1      10.136  30.525  55.292  1.00  0.00     0.210 HD
ENDBRANCH  14  17
ENDBRANCH   6  11
ENDBRANCH   2   5
BRANCH   1  19
HETATM   19  C   UNL     1       5.027  27.235  55.756  1.00  0.00     0.056 A 
HETATM   20  C   UNL     1       5.611  27.057  54.509  1.00  0.00     0.047 A 
HETATM   21  C   UNL     1       5.585  28.131  53.463  1.00  0.00     0.071 C 
HETATM   22  N   UNL     1       6.266  25.907  54.181  1.00  0.00    -0.252 NA
HETATM   23  C   UNL     1       6.386  24.920  55.113  1.00  0.00     0.067 A 
HETATM   24  C   UNL     1       5.788  25.039  56.368  1.00  0.00     0.033 A 
HETATM   25  C   UNL     1       5.100  26.207  56.691  1.00  0.00     0.021 A 
BRANCH  23  26
HETATM   26  C   UNL     1       7.260  23.777  54.741  1.00  0.00    -0.007 A 
HETATM   27  C   UNL     1       7.202  23.224  53.446  1.00  0.00     0.014 A 
HETATM   28  C   UNL     1       8.057  22.192  53.045  1.00  0.00     0.001 A 
HETATM   29  C   UNL     1       8.995  21.680  53.935  1.00  0.00     0.000 A 
HETATM   30  C   UNL     1       9.067  22.193  55.226  1.00  0.00     0.001 A 
HETATM   31  C   UNL     1       8.206  23.224  55.624  1.00  0.00     0.014 A 
ENDBRANCH  23  26
ENDBRANCH   1  19
TORSDOF 5
ENDMDL
MODEL 6
REMARK VINA RESULT:      -9.2      3.676      5.021
REMARK  5 active torsions:
REMARK  status: ('A' for Active; 'I' for Inactive)
REMARK    1  A    between atoms: C_4  and  C_5 
REMARK    2  A    between atoms: C_13  and  C_14 
REMARK       I    between atoms: C_14  and  N_15 
REMARK    3  A    between atoms: N_15  and  C_16 
REMARK    4  A    between atoms: C_17  and  N_18 
REMARK    5  A    between atoms: C_21  and  O_22 
ROOT
HETATM    1  C   UNL     1       5.786  27.642  53.730  1.00  0.00     0.258 C 
HETATM    2  N   UNL     1       4.484  28.053  53.887  1.00  0.00    -0.321 N 
HETATM    3  O   UNL     1       6.758  28.343  53.469  1.00  0.00    -0.267 OA
HETATM    4  H   UNL     1       3.718  27.391  53.803  1.00  0.00     0.169 HD
ENDROOT
BRANCH   2   5
HETATM    5  C   UNL     1       4.064  29.385  54.128  1.00  0.00     0.056 A 
HETATM    6  C   UNL     1       3.637  30.153  53.014  1.00  0.00     0.037 A 
HETATM    7  C   UNL     1       3.092  31.426  53.267  1.00  0.00     0.026 A 
HETATM    8  C   UNL     1       2.989  31.926  54.568  1.00  0.00     0.002 A 
HETATM    9  C   UNL     1       3.440  31.171  55.644  1.00  0.00     0.002 A 
HETATM   10  C   UNL     1       3.978  29.905  55.424  1.00  0.00     0.031 A 
BRANCH   6  11
HETATM   11  N   UNL     1       3.852  29.651  51.692  1.00  0.00    -0.281 NA
HETATM   12  C   UNL     1       4.995  30.380  51.089  1.00  0.00     0.098 C 
HETATM   13  C   UNL     1       5.380  29.724  49.762  1.00  0.00     0.046 C 
HETATM   14  C   UNL     1       4.189  29.643  48.811  1.00  0.00     0.120 C 
HETATM   15  C   UNL     1       2.987  28.990  49.489  1.00  0.00     0.046 C 
HETATM   16  C   UNL     1       2.663  29.677  50.814  1.00  0.00     0.098 C 
BRANCH  14  17
HETATM   17  O   UNL     1       3.826  30.951  48.368  1.00  0.00    -0.395 OA
HETATM   18  H   UNL     1       4.422  31.190  47.636  1.00  0.00     0.210 HD
ENDBRANCH  14  17
ENDBRANCH   6  11
ENDBRANCH   2   5
BRANCH   1  19
HETATM   19  C   UNL     1       6.029  26.210  53.947  1.00  0.00     0.056 A 
HETATM   20  C   UNL     1       5.978  25.280  52.916  1.00  0.00     0.047 A 
HETATM   21  C   UNL     1       5.461  25.638  51.554  1.00  0.00     0.071 C 
HETATM   22  N   UNL     1       6.425  24.003  53.078  1.00  0.00    -0.252 NA
HETATM   23  C   UNL     1       6.972  23.635  54.271  1.00  0.00     0.067 A 
HETATM   24  C   UNL     1       7.014  24.523  55.346  1.00  0.00     0.033 A 
HETATM   25  C   UNL     1       6.536  25.821  55.183  1.00  0.00     0.021 A 
BRANCH  23  26
HETATM   26  C   UNL     1       7.592  22.286  54.313  1.00  0.00    -0.007 A 
HETATM   27  C   UNL     1       7.978  21.638  53.123  1.00  0.00     0.014 A 
HETATM   28  C   UNL     1       8.624  20.396  53.134  1.00  0.00     0.001 A 
HETATM   29  C   UNL     1       8.898  19.766  54.342  1.00  0.00     0.000 A 
HETATM   30  C   UNL     1       8.515  20.371  55.535  1.00  0.00     0.001 A 
HETATM   31  C   UNL     1       7.866  21.611  55.519  1.00  0.00     0.014 A 
ENDBRANCH  23  26
ENDBRANCH   1  19
TORSDOF 5
ENDMDL
MODEL 7
REMARK VINA RESULT:      -9.0      2.883      4.172
REMARK  5 active torsions:
REMARK  status: ('A' for Active; 'I' for Inactive)
REMARK    1  A    between atoms: C_4  and  C_5 
REMARK    2  A    between atoms: C_13  and  C_14 
REMARK       I    between atoms: C_14  and  N_15 
REMARK    3  A    between atoms: N_15  and  C_16 
REMARK    4  A    between atoms: C_17  and  N_18 
REMARK    5  A    between atoms: C_21  and  O_22 
ROOT
HETATM    1  C   UNL     1       6.770  28.379  55.085  1.00  0.00     0.258 C 
HETATM    2  N   UNL     1       5.431  28.503  54.802  1.00  0.00    -0.321 N 
HETATM    3  O   UNL     1       7.523  29.251  55.505  1.00  0.00    -0.267 OA
HETATM    4  H   UNL     1       4.967  27.838  54.189  1.00  0.00     0.169 HD
ENDROOT
BRANCH   2   5
HETATM    5  C   UNL     1       4.584  29.541  55.264  1.00  0.00     0.056 A 
HETATM    6  C   UNL     1       3.824  30.251  54.299  1.00  0.00     0.037 A 
HETATM    7  C   UNL     1       2.883  31.187  54.766  1.00  0.00     0.026 A 
HETATM    8  C   UNL     1       2.711  31.424  56.133  1.00  0.00     0.002 A 
HETATM    9  C   UNL     1       3.486  30.740  57.063  1.00  0.00     0.002 A 
HETATM   10  C   UNL     1       4.421  29.803  56.629  1.00  0.00     0.031 A 
BRANCH   6  11
HETATM   11  N   UNL     1       4.098  30.056  52.909  1.00  0.00    -0.281 NA
HETATM   12  C   UNL     1       4.175  31.383  52.251  1.00  0.00     0.098 C 
HETATM   13  C   UNL     1       4.673  31.217  50.814  1.00  0.00     0.046 C 
HETATM   14  C   UNL     1       3.800  30.241  50.029  1.00  0.00     0.120 C 
HETATM   15  C   UNL     1       3.642  28.919  50.778  1.00  0.00     0.046 C 
HETATM   16  C   UNL     1       3.160  29.153  52.208  1.00  0.00     0.098 C 
BRANCH  14  17
HETATM   17  O   UNL     1       2.510  30.809  49.802  1.00  0.00    -0.395 OA
HETATM   18  H   UNL     1       2.343  30.788  48.843  1.00  0.00     0.210 HD
ENDBRANCH  14  17
ENDBRANCH   6  11
ENDBRANCH   2   5
BRANCH   1  19
HETATM   19  C   UNL     1       7.335  27.035  54.901  1.00  0.00     0.056 A 
HETATM   20  C   UNL     1       7.515  26.151  55.957  1.00  0.00     0.047 A 
HETATM   21  C   UNL     1       7.350  26.581  57.384  1.00  0.00     0.071 C 
HETATM   22  N   UNL     1       7.820  24.839  55.751  1.00  0.00    -0.252 NA
HETATM   23  C   UNL     1       7.914  24.369  54.475  1.00  0.00     0.067 A 
HETATM   24  C   UNL     1       7.774  25.225  53.382  1.00  0.00     0.033 A 
HETATM   25  C   UNL     1       7.484  26.571  53.597  1.00  0.00     0.021 A 
BRANCH  23  26
HETATM   26  C   UNL     1       8.076  22.900  54.334  1.00  0.00    -0.007 A 
HETATM   27  C   UNL     1       8.146  22.074  55.474  1.00  0.00     0.014 A 
HETATM   28  C   UNL     1       8.232  20.681  55.372  1.00  0.00     0.001 A 
HETATM   29  C   UNL     1       8.254  20.074  54.122  1.00  0.00     0.000 A 
HETATM   30  C   UNL     1       8.203  20.862  52.976  1.00  0.00     0.001 A 
HETATM   31  C   UNL     1       8.121  22.256  53.082  1.00  0.00     0.014 A 
ENDBRANCH  23  26
ENDBRANCH   1  19
TORSDOF 5
ENDMDL
MODEL 8
REMARK VINA RESULT:      -8.9      1.593      2.248
REMARK  5 active torsions:
REMARK  status: ('A' for Active; 'I' for Inactive)
REMARK    1  A    between atoms: C_4  and  C_5 
REMARK    2  A    between atoms: C_13  and  C_14 
REMARK       I    between atoms: C_14  and  N_15 
REMARK    3  A    between atoms: N_15  and  C_16 
REMARK    4  A    between atoms: C_17  and  N_18 
REMARK    5  A    between atoms: C_21  and  O_22 
ROOT
HETATM    1  C   UNL     1       7.170  28.763  55.902  1.00  0.00     0.258 C 
HETATM    2  N   UNL     1       5.997  29.391  56.246  1.00  0.00    -0.321 N 
HETATM    3  O   UNL     1       8.290  29.261  55.848  1.00  0.00    -0.267 OA
HETATM    4  H   UNL     1       5.100  28.996  55.979  1.00  0.00     0.169 HD
ENDROOT
BRANCH   2   5
HETATM    5  C   UNL     1       5.895  30.624  56.938  1.00  0.00     0.056 A 
HETATM    6  C   UNL     1       5.129  31.656  56.337  1.00  0.00     0.037 A 
HETATM    7  C   UNL     1       4.913  32.830  57.082  1.00  0.00     0.026 A 
HETATM    8  C   UNL     1       5.448  32.985  58.364  1.00  0.00     0.002 A 
HETATM    9  C   UNL     1       6.221  31.975  58.925  1.00  0.00     0.002 A 
HETATM   10  C   UNL     1       6.446  30.799  58.212  1.00  0.00     0.031 A 
BRANCH   6  11
HETATM   11  N   UNL     1       4.684  31.503  54.986  1.00  0.00    -0.281 NA
HETATM   12  C   UNL     1       4.460  32.850  54.406  1.00  0.00     0.098 C 
HETATM   13  C   UNL     1       4.188  32.725  52.906  1.00  0.00     0.046 C 
HETATM   14  C   UNL     1       3.022  31.782  52.626  1.00  0.00     0.120 C 
HETATM   15  C   UNL     1       3.219  30.439  53.324  1.00  0.00     0.046 C 
HETATM   16  C   UNL     1       3.503  30.630  54.813  1.00  0.00     0.098 C 
BRANCH  14  17
HETATM   17  O   UNL     1       1.799  32.368  53.072  1.00  0.00    -0.395 OA
HETATM   18  H   UNL     1       1.086  31.726  52.906  1.00  0.00     0.210 HD
ENDBRANCH  14  17
ENDBRANCH   6  11
ENDBRANCH   2   5
BRANCH   1  19
HETATM   19  C   UNL     1       7.059  27.327  55.616  1.00  0.00     0.056 A 
HETATM   20  C   UNL     1       6.897  26.834  54.327  1.00  0.00     0.047 A 
HETATM   21  C   UNL     1       6.608  27.737  53.166  1.00  0.00     0.071 C 
HETATM   22  N   UNL     1       7.024  25.506  54.045  1.00  0.00    -0.252 NA
HETATM   23  C   UNL     1       7.355  24.641  55.045  1.00  0.00     0.067 A 
HETATM   24  C   UNL     1       7.496  25.084  56.360  1.00  0.00     0.033 A 
HETATM   25  C   UNL     1       7.344  26.438  56.649  1.00  0.00     0.021 A 
BRANCH  23  26
HETATM   26  C   UNL     1       7.646  23.246  54.628  1.00  0.00    -0.007 A 
HETATM   27  C   UNL     1       7.685  22.207  55.580  1.00  0.00     0.014 A 
HETATM   28  C   UNL     1       7.890  20.873  55.210  1.00  0.00     0.001 A 
HETATM   29  C   UNL     1       8.066  20.542  53.872  1.00  0.00     0.000 A 
HETATM   30  C   UNL     1       8.050  21.545  52.908  1.00  0.00     0.001 A 
HETATM   31  C   UNL     1       7.848  22.879  53.283  1.00  0.00     0.014 A 
ENDBRANCH  23  26
ENDBRANCH   1  19
TORSDOF 5
ENDMDL
MODEL 9
REMARK VINA RESULT:      -8.9      4.397      7.329
REMARK  5 active torsions:
REMARK  status: ('A' for Active; 'I' for Inactive)
REMARK    1  A    between atoms: C_4  and  C_5 
REMARK    2  A    between atoms: C_13  and  C_14 
REMARK       I    between atoms: C_14  and  N_15 
REMARK    3  A    between atoms: N_15  and  C_16 
REMARK    4  A    between atoms: C_17  and  N_18 
REMARK    5  A    between atoms: C_21  and  O_22 
ROOT
HETATM    1  C   UNL     1       6.704  26.625  53.386  1.00  0.00     0.258 C 
HETATM    2  N   UNL     1       6.288  25.850  54.442  1.00  0.00    -0.321 N 
HETATM    3  O   UNL     1       7.828  27.077  53.196  1.00  0.00    -0.267 OA
HETATM    4  H   UNL     1       5.301  25.777  54.674  1.00  0.00     0.169 HD
ENDROOT
BRANCH   2   5
HETATM    5  C   UNL     1       7.136  25.133  55.322  1.00  0.00     0.056 A 
HETATM    6  C   UNL     1       7.633  25.816  56.462  1.00  0.00     0.037 A 
HETATM    7  C   UNL     1       8.362  25.070  57.407  1.00  0.00     0.026 A 
HETATM    8  C   UNL     1       8.605  23.706  57.223  1.00  0.00     0.002 A 
HETATM    9  C   UNL     1       8.136  23.060  56.085  1.00  0.00     0.002 A 
HETATM   10  C   UNL     1       7.406  23.773  55.136  1.00  0.00     0.031 A 
BRANCH   6  11
HETATM   11  N   UNL     1       7.452  27.231  56.566  1.00  0.00    -0.281 NA
HETATM   12  C   UNL     1       8.721  27.837  57.040  1.00  0.00     0.098 C 
HETATM   13  C   UNL     1       8.623  29.361  56.960  1.00  0.00     0.046 C 
HETATM   14  C   UNL     1       7.416  29.887  57.732  1.00  0.00     0.120 C 
HETATM   15  C   UNL     1       6.136  29.171  57.308  1.00  0.00     0.046 C 
HETATM   16  C   UNL     1       6.301  27.654  57.393  1.00  0.00     0.098 C 
BRANCH  14  17
HETATM   17  O   UNL     1       7.614  29.704  59.134  1.00  0.00    -0.395 OA
HETATM   18  H   UNL     1       8.150  30.450  59.456  1.00  0.00     0.210 HD
ENDBRANCH  14  17
ENDBRANCH   6  11
ENDBRANCH   2   5
BRANCH   1  19
HETATM   19  C   UNL     1       5.689  26.893  52.359  1.00  0.00     0.056 A 
HETATM   20  C   UNL     1       4.908  28.042  52.364  1.00  0.00     0.047 A 
HETATM   21  C   UNL     1       4.894  28.983  53.532  1.00  0.00     0.071 C 
HETATM   22  N   UNL     1       4.138  28.392  51.295  1.00  0.00    -0.252 NA
HETATM   23  C   UNL     1       4.162  27.616  50.175  1.00  0.00     0.067 A 
HETATM   24  C   UNL     1       4.904  26.436  50.134  1.00  0.00     0.033 A 
HETATM   25  C   UNL     1       5.672  26.070  51.237  1.00  0.00     0.021 A 
BRANCH  23  26
HETATM   26  C   UNL     1       3.436  28.154  48.996  1.00  0.00    -0.007 A 
HETATM   27  C   UNL     1       2.078  27.840  48.786  1.00  0.00     0.014 A 
HETATM   28  C   UNL     1       1.351  28.384  47.721  1.00  0.00     0.001 A 
HETATM   29  C   UNL     1       1.965  29.258  46.833  1.00  0.00     0.000 A 
HETATM   30  C   UNL     1       3.309  29.576  47.002  1.00  0.00     0.001 A 
HETATM   31  C   UNL     1       4.035  29.027  48.066  1.00  0.00     0.014 A 
ENDBRANCH  23  26
ENDBRANCH   1  19
TORSDOF 5
ENDMDL
MODEL 10
REMARK VINA RESULT:      -8.9      2.916      8.088
REMARK  5 active torsions:
REMARK  status: ('A' for Active; 'I' for Inactive)
REMARK    1  A    between atoms: C_4  and  C_5 
REMARK    2  A    between atoms: C_13  and  C_14 
REMARK       I    between atoms: C_14  and  N_15 
REMARK    3  A    between atoms: N_15  and  C_16 
REMARK    4  A    between atoms: C_17  and  N_18 
REMARK    5  A    between atoms: C_21  and  O_22 
ROOT
HETATM    1  C   UNL     1       6.350  27.841  55.862  1.00  0.00     0.258 C 
HETATM    2  N   UNL     1       7.031  27.783  54.670  1.00  0.00    -0.321 N 
HETATM    3  O   UNL     1       5.436  27.110  56.229  1.00  0.00    -0.267 OA
HETATM    4  H   UNL     1       7.549  28.588  54.329  1.00  0.00     0.169 HD
ENDROOT
BRANCH   2   5
HETATM    5  C   UNL     1       7.059  26.672  53.790  1.00  0.00     0.056 A 
HETATM    6  C   UNL     1       6.357  26.785  52.562  1.00  0.00     0.037 A 
HETATM    7  C   UNL     1       6.495  25.740  51.630  1.00  0.00     0.026 A 
HETATM    8  C   UNL     1       7.282  24.619  51.907  1.00  0.00     0.002 A 
HETATM    9  C   UNL     1       7.939  24.512  53.128  1.00  0.00     0.002 A 
HETATM   10  C   UNL     1       7.825  25.535  54.067  1.00  0.00     0.031 A 
BRANCH   6  11
HETATM   11  N   UNL     1       5.481  27.897  52.355  1.00  0.00    -0.281 NA
HETATM   12  C   UNL     1       4.148  27.560  52.914  1.00  0.00     0.098 C 
HETATM   13  C   UNL     1       3.255  28.802  52.896  1.00  0.00     0.046 C 
HETATM   14  C   UNL     1       3.152  29.397  51.494  1.00  0.00     0.120 C 
HETATM   15  C   UNL     1       4.536  29.632  50.893  1.00  0.00     0.046 C 
HETATM   16  C   UNL     1       5.384  28.363  50.955  1.00  0.00     0.098 C 
BRANCH  14  17
HETATM   17  O   UNL     1       2.412  28.522  50.642  1.00  0.00    -0.395 OA
HETATM   18  H   UNL     1       1.746  28.070  51.191  1.00  0.00     0.210 HD
ENDBRANCH  14  17
ENDBRANCH   6  11
ENDBRANCH   2   5
BRANCH   1  19
HETATM   19  C   UNL     1       6.812  28.867  56.805  1.00  0.00     0.056 A 
HETATM   20  C   UNL     1       6.046  29.979  57.131  1.00  0.00     0.047 A 
HETATM   21  C   UNL     1       4.793  30.323  56.383  1.00  0.00     0.071 C 
HETATM   22  N   UNL     1       6.377  30.800  58.168  1.00  0.00    -0.252 NA
HETATM   23  C   UNL     1       7.465  30.502  58.933  1.00  0.00     0.067 A 
HETATM   24  C   UNL     1       8.284  29.415  58.625  1.00  0.00     0.033 A 
HETATM   25  C   UNL     1       7.955  28.592  57.550  1.00  0.00     0.021 A 
BRANCH  23  26
HETATM   26  C   UNL     1       7.658  31.340  60.144  1.00  0.00    -0.007 A 
HETATM   27  C   UNL     1       6.728  32.347  60.474  1.00  0.00     0.014 A 
HETATM   28  C   UNL     1       6.847  33.107  61.642  1.00  0.00     0.001 A 
HETATM   29  C   UNL     1       7.905  32.882  62.514  1.00  0.00     0.000 A 
HETATM   30  C   UNL     1       8.850  31.907  62.210  1.00  0.00     0.001 A 
HETATM   31  C   UNL     1       8.729  31.151  61.038  1.00  0.00     0.014 A 
ENDBRANCH  23  26
ENDBRANCH   1  19
TORSDOF 5
ENDMDL
