MODEL 1
REMARK VINA RESULT:      -9.0      0.000      0.000
REMARK  4 active torsions:
REMARK  status: ('A' for Active; 'I' for Inactive)
REMARK    1  A    between atoms: N_1  and  C_2 
REMARK    2  A    between atoms: C_2  and  C_3 
REMARK    3  A    between atoms: C_2  and  C_16 
REMARK       I    between atoms: C_3  and  N_5 
REMARK    4  A    between atoms: N_5  and  C_6 
ROOT
HETATM    1  C   UNL     1       7.446  25.764  57.144  1.00  0.00     0.260 C 
HETATM    2  O   UNL     1       8.296  25.360  57.938  1.00  0.00    -0.270 OA
HETATM    3  N   UNL     1       7.312  27.069  56.690  1.00  0.00    -0.325 N 
HETATM    4  H   UNL     1       6.615  27.231  55.972  1.00  0.00     0.169 HD
ENDROOT
BRANCH   1   5
HETATM    5  C   UNL     1       6.410  24.791  56.509  1.00  0.00     0.342 C 
BRANCH   5   6
HETATM    6  N   UNL     1       5.191  25.532  56.124  1.00  0.00     0.096 N 
HETATM    7  H   UNL     1       5.451  26.519  56.057  1.00  0.00     0.314 HD
HETATM    8  H   UNL     1       4.544  25.507  56.913  1.00  0.00     0.314 HD
ENDBRANCH   5   6
BRANCH   5   9
HETATM    9  C   UNL     1       6.984  24.046  55.318  1.00  0.00    -0.016 A 
HETATM   10  C   UNL     1       7.434  22.724  55.466  1.00  0.00     0.010 A 
HETATM   11  C   UNL     1       7.951  22.022  54.374  1.00  0.00     0.001 A 
HETATM   12  C   UNL     1       8.018  22.627  53.121  1.00  0.00     0.000 A 
HETATM   13  C   UNL     1       7.563  23.933  52.956  1.00  0.00     0.001 A 
HETATM   14  C   UNL     1       7.046  24.637  54.045  1.00  0.00     0.010 A 
ENDBRANCH   5   9
ENDBRANCH   1   5
BRANCH   3  15
HETATM   15  C   UNL     1       8.067  28.194  57.083  1.00  0.00     0.035 A 
HETATM   16  C   UNL     1       9.287  28.551  56.509  1.00  0.00     0.030 A 
HETATM   17  C   UNL     1       9.981  29.679  56.958  1.00  0.00     0.016 A 
HETATM   18  C   UNL     1       9.457  30.476  57.987  1.00  0.00    -0.008 A 
HETATM   19  C   UNL     1      10.104  31.619  58.467  1.00  0.00     0.128 A 
HETATM   20  C   UNL     1       8.227  30.133  58.574  1.00  0.00    -0.021 A 
HETATM   21  N   UNL     1       9.623  32.416  59.449  1.00  0.00    -0.272 NA
HETATM   22  C   UNL     1       8.437  32.061  59.986  1.00  0.00     0.117 A 
HETATM   23  C   UNL     1       7.714  30.947  59.592  1.00  0.00     0.031 A 
HETATM   24  C   UNL     1       7.550  28.984  58.121  1.00  0.00     0.042 A 
ENDBRANCH   3  15
TORSDOF 4
ENDMDL
MODEL 2
REMARK VINA RESULT:      -8.9      1.962      7.953
REMARK  4 active torsions:
REMARK  status: ('A' for Active; 'I' for Inactive)
REMARK    1  A    between atoms: N_1  and  C_2 
REMARK    2  A    between atoms: C_2  and  C_3 
REMARK    3  A    between atoms: C_2  and  C_16 
REMARK       I    between atoms: C_3  and  N_5 
REMARK    4  A    between atoms: N_5  and  C_6 
ROOT
HETATM    1  C   UNL     1       7.601  26.594  57.111  1.00  0.00     0.260 C 
HETATM    2  O   UNL     1       7.909  26.196  58.235  1.00  0.00    -0.270 OA
HETATM    3  N   UNL     1       7.512  25.812  55.966  1.00  0.00    -0.325 N 
HETATM    4  H   UNL     1       7.164  26.269  55.132  1.00  0.00     0.169 HD
ENDROOT
BRANCH   1   5
HETATM    5  C   UNL     1       7.223  28.083  56.860  1.00  0.00     0.342 C 
BRANCH   5   6
HETATM    6  N   UNL     1       6.024  28.440  57.646  1.00  0.00     0.096 N 
HETATM    7  H   UNL     1       5.654  27.570  58.036  1.00  0.00     0.314 HD
HETATM    8  H   UNL     1       5.297  28.740  56.995  1.00  0.00     0.314 HD
ENDBRANCH   5   6
BRANCH   5   9
HETATM    9  C   UNL     1       8.373  29.023  57.177  1.00  0.00    -0.016 A 
HETATM   10  C   UNL     1       8.376  29.750  58.378  1.00  0.00     0.010 A 
HETATM   11  C   UNL     1       9.435  30.607  58.688  1.00  0.00     0.001 A 
HETATM   12  C   UNL     1      10.508  30.741  57.809  1.00  0.00     0.000 A 
HETATM   13  C   UNL     1      10.526  30.015  56.621  1.00  0.00     0.001 A 
HETATM   14  C   UNL     1       9.469  29.159  56.308  1.00  0.00     0.010 A 
ENDBRANCH   5   9
ENDBRANCH   1   5
BRANCH   3  15
HETATM   15  C   UNL     1       7.810  24.440  55.842  1.00  0.00     0.035 A 
HETATM   16  C   UNL     1       8.138  23.615  56.918  1.00  0.00     0.030 A 
HETATM   17  C   UNL     1       8.430  22.262  56.714  1.00  0.00     0.016 A 
HETATM   18  C   UNL     1       8.388  21.710  55.424  1.00  0.00    -0.008 A 
HETATM   19  C   UNL     1       8.661  20.364  55.165  1.00  0.00     0.128 A 
HETATM   20  C   UNL     1       8.057  22.527  54.329  1.00  0.00    -0.021 A 
HETATM   21  N   UNL     1       8.620  19.797  53.937  1.00  0.00    -0.272 NA
HETATM   22  C   UNL     1       8.292  20.607  52.910  1.00  0.00     0.117 A 
HETATM   23  C   UNL     1       8.009  21.956  53.051  1.00  0.00     0.031 A 
HETATM   24  C   UNL     1       7.782  23.891  54.551  1.00  0.00     0.042 A 
ENDBRANCH   3  15
TORSDOF 4
ENDMDL
MODEL 3
REMARK VINA RESULT:      -8.9      2.688      7.667
REMARK  4 active torsions:
REMARK  status: ('A' for Active; 'I' for Inactive)
REMARK    1  A    between atoms: N_1  and  C_2 
REMARK    2  A    between atoms: C_2  and  C_3 
REMARK    3  A    between atoms: C_2  and  C_16 
REMARK       I    between atoms: C_3  and  N_5 
REMARK    4  A    between atoms: N_5  and  C_6 
ROOT
HETATM    1  C   UNL     1       5.600  26.468  54.614  1.00  0.00     0.260 C 
HETATM    2  O   UNL     1       4.904  26.196  53.635  1.00  0.00    -0.270 OA
HETATM    3  N   UNL     1       6.693  25.740  55.064  1.00  0.00    -0.325 N 
HETATM    4  H   UNL     1       7.217  26.137  55.835  1.00  0.00     0.169 HD
ENDROOT
BRANCH   1   5
HETATM    5  C   UNL     1       5.332  27.747  55.462  1.00  0.00     0.342 C 
BRANCH   5   6
HETATM    6  N   UNL     1       4.313  27.464  56.493  1.00  0.00     0.096 N 
HETATM    7  H   UNL     1       3.446  27.914  56.187  1.00  0.00     0.314 HD
HETATM    8  H   UNL     1       4.566  27.978  57.337  1.00  0.00     0.314 HD
ENDBRANCH   5   6
BRANCH   5   9
HETATM    9  C   UNL     1       6.602  28.286  56.095  1.00  0.00    -0.016 A 
HETATM   10  C   UNL     1       6.733  28.315  57.493  1.00  0.00     0.010 A 
HETATM   11  C   UNL     1       7.903  28.795  58.088  1.00  0.00     0.001 A 
HETATM   12  C   UNL     1       8.958  29.243  57.296  1.00  0.00     0.000 A 
HETATM   13  C   UNL     1       8.848  29.207  55.908  1.00  0.00     0.001 A 
HETATM   14  C   UNL     1       7.681  28.729  55.311  1.00  0.00     0.010 A 
ENDBRANCH   5   9
ENDBRANCH   1   5
BRANCH   3  15
HETATM   15  C   UNL     1       7.186  24.525  54.544  1.00  0.00     0.035 A 
HETATM   16  C   UNL     1       7.554  24.344  53.211  1.00  0.00     0.030 A 
HETATM   17  C   UNL     1       8.028  23.105  52.766  1.00  0.00     0.016 A 
HETATM   18  C   UNL     1       8.150  22.027  53.656  1.00  0.00    -0.008 A 
HETATM   19  C   UNL     1       8.626  20.771  53.268  1.00  0.00     0.128 A 
HETATM   20  C   UNL     1       7.785  22.194  55.004  1.00  0.00    -0.021 A 
HETATM   21  N   UNL     1       8.766  19.714  54.100  1.00  0.00    -0.272 NA
HETATM   22  C   UNL     1       8.414  19.910  55.387  1.00  0.00     0.117 A 
HETATM   23  C   UNL     1       7.924  21.109  55.880  1.00  0.00     0.031 A 
HETATM   24  C   UNL     1       7.294  23.443  55.430  1.00  0.00     0.042 A 
ENDBRANCH   3  15
TORSDOF 4
ENDMDL
MODEL 4
REMARK VINA RESULT:      -8.3      5.210      8.133
REMARK  4 active torsions:
REMARK  status: ('A' for Active; 'I' for Inactive)
REMARK    1  A    between atoms: N_1  and  C_2 
REMARK    2  A    between atoms: C_2  and  C_3 
REMARK    3  A    between atoms: C_2  and  C_16 
REMARK       I    between atoms: C_3  and  N_5 
REMARK    4  A    between atoms: N_5  and  C_6 
ROOT
HETATM    1  C   UNL     1       6.099  25.378  53.189  1.00  0.00     0.260 C 
HETATM    2  O   UNL     1       5.000  24.898  53.468  1.00  0.00    -0.270 OA
HETATM    3  N   UNL     1       6.349  26.320  52.201  1.00  0.00    -0.325 N 
HETATM    4  H   UNL     1       7.294  26.681  52.147  1.00  0.00     0.169 HD
ENDROOT
BRANCH   1   5
HETATM    5  C   UNL     1       7.376  24.982  53.987  1.00  0.00     0.342 C 
BRANCH   5   6
HETATM    6  N   UNL     1       7.334  25.581  55.337  1.00  0.00     0.096 N 
HETATM    7  H   UNL     1       7.148  24.820  55.995  1.00  0.00     0.314 HD
HETATM    8  H   UNL     1       6.496  26.162  55.399  1.00  0.00     0.314 HD
ENDBRANCH   5   6
BRANCH   5   9
HETATM    9  C   UNL     1       7.549  23.476  54.073  1.00  0.00    -0.016 A 
HETATM   10  C   UNL     1       7.792  22.729  52.909  1.00  0.00     0.010 A 
HETATM   11  C   UNL     1       7.968  21.345  52.976  1.00  0.00     0.001 A 
HETATM   12  C   UNL     1       7.913  20.690  54.205  1.00  0.00     0.000 A 
HETATM   13  C   UNL     1       7.687  21.420  55.370  1.00  0.00     0.001 A 
HETATM   14  C   UNL     1       7.510  22.803  55.306  1.00  0.00     0.010 A 
ENDBRANCH   5   9
ENDBRANCH   1   5
BRANCH   3  15
HETATM   15  C   UNL     1       5.426  26.867  51.286  1.00  0.00     0.035 A 
HETATM   16  C   UNL     1       4.876  28.143  51.406  1.00  0.00     0.030 A 
HETATM   17  C   UNL     1       3.959  28.614  50.461  1.00  0.00     0.016 A 
HETATM   18  C   UNL     1       3.584  27.814  49.370  1.00  0.00    -0.008 A 
HETATM   19  C   UNL     1       2.680  28.239  48.392  1.00  0.00     0.128 A 
HETATM   20  C   UNL     1       4.132  26.527  49.233  1.00  0.00    -0.021 A 
HETATM   21  N   UNL     1       2.305  27.499  47.323  1.00  0.00    -0.272 NA
HETATM   22  C   UNL     1       2.854  26.272  47.217  1.00  0.00     0.117 A 
HETATM   23  C   UNL     1       3.755  25.748  48.131  1.00  0.00     0.031 A 
HETATM   24  C   UNL     1       5.041  26.063  50.203  1.00  0.00     0.042 A 
ENDBRANCH   3  15
TORSDOF 4
ENDMDL
MODEL 5
REMARK VINA RESULT:      -8.1      4.730      9.339
REMARK  4 active torsions:
REMARK  status: ('A' for Active; 'I' for Inactive)
REMARK    1  A    between atoms: N_1  and  C_2 
REMARK    2  A    between atoms: C_2  and  C_3 
REMARK    3  A    between atoms: C_2  and  C_16 
REMARK       I    between atoms: C_3  and  N_5 
REMARK    4  A    between atoms: N_5  and  C_6 
ROOT
HETATM    1  C   UNL     1       5.920  32.428  61.376  1.00  0.00     0.260 C 
HETATM    2  O   UNL     1       5.714  33.297  60.528  1.00  0.00    -0.270 OA
HETATM    3  N   UNL     1       6.978  31.529  61.380  1.00  0.00    -0.325 N 
HETATM    4  H   UNL     1       7.059  30.927  62.192  1.00  0.00     0.169 HD
ENDROOT
BRANCH   1   5
HETATM    5  C   UNL     1       4.986  32.272  62.612  1.00  0.00     0.342 C 
BRANCH   5   6
HETATM    6  N   UNL     1       4.698  30.842  62.850  1.00  0.00     0.096 N 
HETATM    7  H   UNL     1       5.059  30.616  63.780  1.00  0.00     0.314 HD
HETATM    8  H   UNL     1       5.288  30.293  62.223  1.00  0.00     0.314 HD
ENDBRANCH   5   6
BRANCH   5   9
HETATM    9  C   UNL     1       5.574  32.916  63.854  1.00  0.00    -0.016 A 
HETATM   10  C   UNL     1       6.965  33.064  63.978  1.00  0.00     0.010 A 
HETATM   11  C   UNL     1       7.518  33.668  65.110  1.00  0.00     0.001 A 
HETATM   12  C   UNL     1       6.691  34.140  66.127  1.00  0.00     0.000 A 
HETATM   13  C   UNL     1       5.308  34.013  66.012  1.00  0.00     0.001 A 
HETATM   14  C   UNL     1       4.753  33.409  64.883  1.00  0.00     0.010 A 
ENDBRANCH   5   9
ENDBRANCH   1   5
BRANCH   3  15
HETATM   15  C   UNL     1       7.983  31.384  60.401  1.00  0.00     0.035 A 
HETATM   16  C   UNL     1       9.193  32.078  60.421  1.00  0.00     0.030 A 
HETATM   17  C   UNL     1      10.139  31.887  59.408  1.00  0.00     0.016 A 
HETATM   18  C   UNL     1       9.890  30.986  58.361  1.00  0.00    -0.008 A 
HETATM   19  C   UNL     1      10.804  30.749  57.330  1.00  0.00     0.128 A 
HETATM   20  C   UNL     1       8.677  30.276  58.328  1.00  0.00    -0.021 A 
HETATM   21  N   UNL     1      10.602  29.881  56.311  1.00  0.00    -0.272 NA
HETATM   22  C   UNL     1       9.431  29.212  56.314  1.00  0.00     0.117 A 
HETATM   23  C   UNL     1       8.451  29.373  57.281  1.00  0.00     0.031 A 
HETATM   24  C   UNL     1       7.729  30.494  59.347  1.00  0.00     0.042 A 
ENDBRANCH   3  15
TORSDOF 4
ENDMDL
MODEL 6
REMARK VINA RESULT:      -8.1      4.754      6.707
REMARK  4 active torsions:
REMARK  status: ('A' for Active; 'I' for Inactive)
REMARK    1  A    between atoms: N_1  and  C_2 
REMARK    2  A    between atoms: C_2  and  C_3 
REMARK    3  A    between atoms: C_2  and  C_16 
REMARK       I    between atoms: C_3  and  N_5 
REMARK    4  A    between atoms: N_5  and  C_6 
ROOT
HETATM    1  C   UNL     1       6.629  25.216  54.811  1.00  0.00     0.260 C 
HETATM    2  O   UNL     1       5.464  25.250  55.208  1.00  0.00    -0.270 OA
HETATM    3  N   UNL     1       7.139  25.910  53.721  1.00  0.00    -0.325 N 
HETATM    4  H   UNL     1       8.138  25.845  53.569  1.00  0.00     0.169 HD
ENDROOT
BRANCH   1   5
HETATM    5  C   UNL     1       7.710  24.378  55.556  1.00  0.00     0.342 C 
BRANCH   5   6
HETATM    6  N   UNL     1       7.395  24.317  56.998  1.00  0.00     0.096 N 
HETATM    7  H   UNL     1       8.244  24.590  57.500  1.00  0.00     0.314 HD
HETATM    8  H   UNL     1       7.271  23.336  57.253  1.00  0.00     0.314 HD
ENDBRANCH   5   6
BRANCH   5   9
HETATM    9  C   UNL     1       7.847  22.982  54.976  1.00  0.00    -0.016 A 
HETATM   10  C   UNL     1       7.796  21.861  55.821  1.00  0.00     0.010 A 
HETATM   11  C   UNL     1       7.906  20.571  55.298  1.00  0.00     0.001 A 
HETATM   12  C   UNL     1       8.058  20.381  53.926  1.00  0.00     0.000 A 
HETATM   13  C   UNL     1       8.097  21.483  53.074  1.00  0.00     0.001 A 
HETATM   14  C   UNL     1       7.988  22.773  53.593  1.00  0.00     0.010 A 
ENDBRANCH   5   9
ENDBRANCH   1   5
BRANCH   3  15
HETATM   15  C   UNL     1       6.429  26.732  52.821  1.00  0.00     0.035 A 
HETATM   16  C   UNL     1       6.246  28.103  53.002  1.00  0.00     0.030 A 
HETATM   17  C   UNL     1       5.522  28.852  52.068  1.00  0.00     0.016 A 
HETATM   18  C   UNL     1       4.977  28.238  50.929  1.00  0.00    -0.008 A 
HETATM   19  C   UNL     1       4.254  28.940  49.960  1.00  0.00     0.128 A 
HETATM   20  C   UNL     1       5.156  26.858  50.731  1.00  0.00    -0.021 A 
HETATM   21  N   UNL     1       3.724  28.384  48.847  1.00  0.00    -0.272 NA
HETATM   22  C   UNL     1       3.920  27.059  48.684  1.00  0.00     0.117 A 
HETATM   23  C   UNL     1       4.614  26.265  49.583  1.00  0.00     0.031 A 
HETATM   24  C   UNL     1       5.873  26.117  51.690  1.00  0.00     0.042 A 
ENDBRANCH   3  15
TORSDOF 4
ENDMDL
MODEL 7
REMARK VINA RESULT:      -8.1      1.217      2.196
REMARK  4 active torsions:
REMARK  status: ('A' for Active; 'I' for Inactive)
REMARK    1  A    between atoms: N_1  and  C_2 
REMARK    2  A    between atoms: C_2  and  C_3 
REMARK    3  A    between atoms: C_2  and  C_16 
REMARK       I    between atoms: C_3  and  N_5 
REMARK    4  A    between atoms: N_5  and  C_6 
ROOT
HETATM    1  C   UNL     1       7.300  25.319  55.864  1.00  0.00     0.260 C 
HETATM    2  O   UNL     1       8.295  24.940  56.483  1.00  0.00    -0.270 OA
HETATM    3  N   UNL     1       6.811  26.619  55.826  1.00  0.00    -0.325 N 
HETATM    4  H   UNL     1       6.030  26.792  55.204  1.00  0.00     0.169 HD
ENDROOT
BRANCH   1   5
HETATM    5  C   UNL     1       6.473  24.334  54.987  1.00  0.00     0.342 C 
BRANCH   5   6
HETATM    6  N   UNL     1       6.019  25.013  53.755  1.00  0.00     0.096 N 
HETATM    7  H   UNL     1       6.387  25.968  53.789  1.00  0.00     0.314 HD
HETATM    8  H   UNL     1       5.009  25.142  53.820  1.00  0.00     0.314 HD
ENDBRANCH   5   6
BRANCH   5   9
HETATM    9  C   UNL     1       7.256  23.078  54.650  1.00  0.00    -0.016 A 
HETATM   10  C   UNL     1       7.474  22.101  55.634  1.00  0.00     0.010 A 
HETATM   11  C   UNL     1       8.181  20.933  55.333  1.00  0.00     0.001 A 
HETATM   12  C   UNL     1       8.669  20.723  54.045  1.00  0.00     0.000 A 
HETATM   13  C   UNL     1       8.449  21.677  53.055  1.00  0.00     0.001 A 
HETATM   14  C   UNL     1       7.744  22.845  53.353  1.00  0.00     0.010 A 
ENDBRANCH   5   9
ENDBRANCH   1   5
BRANCH   3  15
HETATM   15  C   UNL     1       7.306  27.740  56.524  1.00  0.00     0.035 A 
HETATM   16  C   UNL     1       6.543  28.502  57.409  1.00  0.00     0.030 A 
HETATM   17  C   UNL     1       7.102  29.607  58.060  1.00  0.00     0.016 A 
HETATM   18  C   UNL     1       8.442  29.961  57.841  1.00  0.00    -0.008 A 
HETATM   19  C   UNL     1       9.053  31.048  58.473  1.00  0.00     0.128 A 
HETATM   20  C   UNL     1       9.226  29.201  56.955  1.00  0.00    -0.021 A 
HETATM   21  N   UNL     1      10.345  31.411  58.294  1.00  0.00    -0.272 NA
HETATM   22  C   UNL     1      11.070  30.657  57.442  1.00  0.00     0.117 A 
HETATM   23  C   UNL     1      10.564  29.562  56.759  1.00  0.00     0.031 A 
HETATM   24  C   UNL     1       8.641  28.102  56.296  1.00  0.00     0.042 A 
ENDBRANCH   3  15
TORSDOF 4
ENDMDL
MODEL 8
REMARK VINA RESULT:      -8.0      3.317      7.824
REMARK  4 active torsions:
REMARK  status: ('A' for Active; 'I' for Inactive)
REMARK    1  A    between atoms: N_1  and  C_2 
REMARK    2  A    between atoms: C_2  and  C_3 
REMARK    3  A    between atoms: C_2  and  C_16 
REMARK       I    between atoms: C_3  and  N_5 
REMARK    4  A    between atoms: N_5  and  C_6 
ROOT
HETATM    1  C   UNL     1       6.352  26.683  53.760  1.00  0.00     0.260 C 
HETATM    2  O   UNL     1       5.243  26.166  53.621  1.00  0.00    -0.270 OA
HETATM    3  N   UNL     1       7.559  26.005  53.866  1.00  0.00    -0.325 N 
HETATM    4  H   UNL     1       8.397  26.573  53.892  1.00  0.00     0.169 HD
ENDROOT
BRANCH   1   5
HETATM    5  C   UNL     1       6.520  28.231  53.792  1.00  0.00     0.342 C 
BRANCH   5   6
HETATM    6  N   UNL     1       5.893  28.832  52.598  1.00  0.00     0.096 N 
HETATM    7  H   UNL     1       6.630  29.331  52.093  1.00  0.00     0.314 HD
HETATM    8  H   UNL     1       5.268  29.577  52.910  1.00  0.00     0.314 HD
ENDBRANCH   5   6
BRANCH   5   9
HETATM    9  C   UNL     1       5.951  28.838  55.062  1.00  0.00    -0.016 A 
HETATM   10  C   UNL     1       4.660  29.390  55.060  1.00  0.00     0.010 A 
HETATM   11  C   UNL     1       4.118  29.939  56.225  1.00  0.00     0.001 A 
HETATM   12  C   UNL     1       4.854  29.935  57.408  1.00  0.00     0.000 A 
HETATM   13  C   UNL     1       6.131  29.379  57.429  1.00  0.00     0.001 A 
HETATM   14  C   UNL     1       6.675  28.831  56.266  1.00  0.00     0.010 A 
ENDBRANCH   5   9
ENDBRANCH   1   5
BRANCH   3  15
HETATM   15  C   UNL     1       7.757  24.609  53.899  1.00  0.00     0.035 A 
HETATM   16  C   UNL     1       7.762  23.799  52.764  1.00  0.00     0.030 A 
HETATM   17  C   UNL     1       7.958  22.418  52.878  1.00  0.00     0.016 A 
HETATM   18  C   UNL     1       8.161  21.828  54.135  1.00  0.00    -0.008 A 
HETATM   19  C   UNL     1       8.371  20.456  54.305  1.00  0.00     0.128 A 
HETATM   20  C   UNL     1       8.162  22.631  55.288  1.00  0.00    -0.021 A 
HETATM   21  N   UNL     1       8.581  19.855  55.499  1.00  0.00    -0.272 NA
HETATM   22  C   UNL     1       8.582  20.656  56.584  1.00  0.00     0.117 A 
HETATM   23  C   UNL     1       8.378  22.026  56.532  1.00  0.00     0.031 A 
HETATM   24  C   UNL     1       7.946  24.017  55.156  1.00  0.00     0.042 A 
ENDBRANCH   3  15
TORSDOF 4
ENDMDL
MODEL 9
REMARK VINA RESULT:      -8.0      1.413      2.413
REMARK  4 active torsions:
REMARK  status: ('A' for Active; 'I' for Inactive)
REMARK    1  A    between atoms: N_1  and  C_2 
REMARK    2  A    between atoms: C_2  and  C_3 
REMARK    3  A    between atoms: C_2  and  C_16 
REMARK       I    between atoms: C_3  and  N_5 
REMARK    4  A    between atoms: N_5  and  C_6 
ROOT
HETATM    1  C   UNL     1       7.815  25.475  56.485  1.00  0.00     0.260 C 
HETATM    2  O   UNL     1       7.771  25.162  57.676  1.00  0.00    -0.270 OA
HETATM    3  N   UNL     1       7.827  26.769  55.983  1.00  0.00    -0.325 N 
HETATM    4  H   UNL     1       7.950  26.867  54.983  1.00  0.00     0.169 HD
ENDROOT
BRANCH   1   5
HETATM    5  C   UNL     1       7.908  24.391  55.371  1.00  0.00     0.342 C 
BRANCH   5   6
HETATM    6  N   UNL     1       7.500  23.077  55.910  1.00  0.00     0.096 N 
HETATM    7  H   UNL     1       6.566  22.881  55.541  1.00  0.00     0.314 HD
HETATM    8  H   UNL     1       7.346  23.181  56.913  1.00  0.00     0.314 HD
ENDBRANCH   5   6
BRANCH   5   9
HETATM    9  C   UNL     1       7.078  24.754  54.154  1.00  0.00    -0.016 A 
HETATM   10  C   UNL     1       7.703  24.969  52.915  1.00  0.00     0.010 A 
HETATM   11  C   UNL     1       6.949  25.289  51.783  1.00  0.00     0.001 A 
HETATM   12  C   UNL     1       5.562  25.391  51.872  1.00  0.00     0.000 A 
HETATM   13  C   UNL     1       4.926  25.167  53.091  1.00  0.00     0.001 A 
HETATM   14  C   UNL     1       5.677  24.847  54.223  1.00  0.00     0.010 A 
ENDBRANCH   5   9
ENDBRANCH   1   5
BRANCH   3  15
HETATM   15  C   UNL     1       7.728  27.972  56.714  1.00  0.00     0.035 A 
HETATM   16  C   UNL     1       6.521  28.520  57.147  1.00  0.00     0.030 A 
HETATM   17  C   UNL     1       6.502  29.722  57.862  1.00  0.00     0.016 A 
HETATM   18  C   UNL     1       7.699  30.392  58.163  1.00  0.00    -0.008 A 
HETATM   19  C   UNL     1       7.738  31.590  58.882  1.00  0.00     0.128 A 
HETATM   20  C   UNL     1       8.924  29.850  57.736  1.00  0.00    -0.021 A 
HETATM   21  N   UNL     1       8.873  32.256  59.200  1.00  0.00    -0.272 NA
HETATM   22  C   UNL     1      10.031  31.706  58.781  1.00  0.00     0.117 A 
HETATM   23  C   UNL     1      10.108  30.526  58.057  1.00  0.00     0.031 A 
HETATM   24  C   UNL     1       8.922  28.648  57.004  1.00  0.00     0.042 A 
ENDBRANCH   3  15
TORSDOF 4
ENDMDL
MODEL 10
REMARK VINA RESULT:      -7.9      2.327      3.291
REMARK  4 active torsions:
REMARK  status: ('A' for Active; 'I' for Inactive)
REMARK    1  A    between atoms: N_1  and  C_2 
REMARK    2  A    between atoms: C_2  and  C_3 
REMARK    3  A    between atoms: C_2  and  C_16 
REMARK       I    between atoms: C_3  and  N_5 
REMARK    4  A    between atoms: N_5  and  C_6 
ROOT
HETATM    1  C   UNL     1       6.350  25.144  53.887  1.00  0.00     0.260 C 
HETATM    2  O   UNL     1       5.223  24.960  54.350  1.00  0.00    -0.270 OA
HETATM    3  N   UNL     1       7.171  26.232  54.151  1.00  0.00    -0.325 N 
HETATM    4  H   UNL     1       8.105  26.201  53.761  1.00  0.00     0.169 HD
ENDROOT
BRANCH   1   5
HETATM    5  C   UNL     1       7.013  24.099  52.942  1.00  0.00     0.342 C 
BRANCH   5   6
HETATM    6  N   UNL     1       8.167  24.706  52.249  1.00  0.00     0.096 N 
HETATM    7  H   UNL     1       8.077  24.471  51.257  1.00  0.00     0.314 HD
HETATM    8  H   UNL     1       9.009  24.205  52.539  1.00  0.00     0.314 HD
ENDBRANCH   5   6
BRANCH   5   9
HETATM    9  C   UNL     1       7.432  22.844  53.687  1.00  0.00    -0.016 A 
HETATM   10  C   UNL     1       7.809  21.696  52.973  1.00  0.00     0.010 A 
HETATM   11  C   UNL     1       8.211  20.539  53.646  1.00  0.00     0.001 A 
HETATM   12  C   UNL     1       8.251  20.518  55.038  1.00  0.00     0.000 A 
HETATM   13  C   UNL     1       7.892  21.654  55.760  1.00  0.00     0.001 A 
HETATM   14  C   UNL     1       7.490  22.810  55.091  1.00  0.00     0.010 A 
ENDBRANCH   5   9
ENDBRANCH   1   5
BRANCH   3  15
HETATM   15  C   UNL     1       6.868  27.362  54.939  1.00  0.00     0.035 A 
HETATM   16  C   UNL     1       5.809  28.231  54.675  1.00  0.00     0.030 A 
HETATM   17  C   UNL     1       5.576  29.337  55.499  1.00  0.00     0.016 A 
HETATM   18  C   UNL     1       6.396  29.585  56.610  1.00  0.00    -0.008 A 
HETATM   19  C   UNL     1       6.202  30.669  57.471  1.00  0.00     0.128 A 
HETATM   20  C   UNL     1       7.465  28.717  56.892  1.00  0.00    -0.021 A 
HETATM   21  N   UNL     1       6.966  30.932  58.557  1.00  0.00    -0.272 NA
HETATM   22  C   UNL     1       7.978  30.075  58.802  1.00  0.00     0.117 A 
HETATM   23  C   UNL     1       8.266  28.974  58.012  1.00  0.00     0.031 A 
HETATM   24  C   UNL     1       7.696  27.618  56.042  1.00  0.00     0.042 A 
ENDBRANCH   3  15
TORSDOF 4
ENDMDL
