MODEL 1
REMARK VINA RESULT:     -10.3      0.000      0.000
REMARK  5 active torsions:
REMARK  status: ('A' for Active; 'I' for Inactive)
REMARK    1  A    between atoms: O_2  and  C_3 
REMARK    2  A    between atoms: C_6  and  N_7 
REMARK    3  A    between atoms: C_11  and  C_12 
REMARK    4  A    between atoms: C_12  and  N_13 
REMARK       I    between atoms: N_13  and  C_14 
REMARK    5  A    between atoms: C_14  and  C_15 
ROOT
HETATM    1  N   UNL     1       6.462  25.856  51.695  1.00  0.00    -0.360 N 
HETATM    2  C   UNL     1       6.232  25.162  52.867  1.00  0.00     0.230 C 
HETATM    3  O   UNL     1       5.104  24.813  53.216  1.00  0.00    -0.272 OA
HETATM    4  H   UNL     1       7.393  26.230  51.536  1.00  0.00     0.162 HD
ENDROOT
BRANCH   1   5
HETATM    5  C   UNL     1       5.384  26.281  50.825  1.00  0.00     0.129 C 
BRANCH   5   6
HETATM    6  C   UNL     1       5.414  27.790  50.535  1.00  0.00     0.031 C 
HETATM    7  C   UNL     1       4.074  28.273  49.995  1.00  0.00     0.111 C 
HETATM    8  C   UNL     1       3.307  28.668  51.233  1.00  0.00     0.224 C 
HETATM    9  N   UNL     1       4.234  28.863  52.268  1.00  0.00    -0.318 N 
HETATM   10  O   UNL     1       2.095  28.820  51.235  1.00  0.00    -0.273 OA
HETATM   11  C   UNL     1       5.582  28.618  51.801  1.00  0.00     0.139 C 
BRANCH   9  12
HETATM   12  C   UNL     1       3.953  29.357  53.573  1.00  0.00     0.037 A 
HETATM   13  C   UNL     1       4.160  28.581  54.720  1.00  0.00     0.032 A 
HETATM   14  C   UNL     1       3.888  29.078  56.004  1.00  0.00     0.039 A 
HETATM   15  C   UNL     1       3.400  30.370  56.169  1.00  0.00     0.068 A 
HETATM   16  C   UNL     1       3.179  31.151  55.038  1.00  0.00     0.039 A 
HETATM   17  C   UNL     1       3.452  30.654  53.757  1.00  0.00     0.032 A 
BRANCH  15  18
HETATM   18  O   UNL     1       3.101  30.975  57.357  1.00  0.00    -0.356 OA
HETATM   19  C   UNL     1       4.188  31.213  58.244  1.00  0.00     0.210 C 
ENDBRANCH  15  18
ENDBRANCH   9  12
ENDBRANCH   5   6
ENDBRANCH   1   5
BRANCH   2  20
HETATM   20  C   UNL     1       7.472  24.856  53.721  1.00  0.00     0.149 C 
HETATM   21  C   UNL     1       7.625  23.369  53.939  1.00  0.00    -0.007 A 
HETATM   22  C   UNL     1       7.543  22.836  55.227  1.00  0.00     0.083 A 
HETATM   23  C   UNL     1       7.843  22.504  52.854  1.00  0.00     0.011 A 
HETATM   24  C   UNL     1       7.666  21.459  55.430  1.00  0.00     0.038 A 
HETATM   25  O   UNL     1       7.337  23.595  56.351  1.00  0.00    -0.310 OA
HETATM   26  C   UNL     1       7.879  20.606  54.347  1.00  0.00     0.003 A 
HETATM   27  C   UNL     1       7.969  21.131  53.059  1.00  0.00     0.001 A 
HETATM   28  C   UNL     1       7.387  24.964  56.239  1.00  0.00     0.083 A 
HETATM   29  C   UNL     1       7.464  25.636  55.017  1.00  0.00    -0.007 A 
HETATM   30  C   UNL     1       7.351  25.679  57.437  1.00  0.00     0.038 A 
HETATM   31  C   UNL     1       7.517  27.039  55.011  1.00  0.00     0.011 A 
HETATM   32  C   UNL     1       7.485  27.752  56.210  1.00  0.00     0.001 A 
HETATM   33  C   UNL     1       7.399  27.073  57.424  1.00  0.00     0.003 A 
ENDBRANCH   2  20
TORSDOF 5
ENDMDL
MODEL 2
REMARK VINA RESULT:     -10.2      3.970      6.614
REMARK  5 active torsions:
REMARK  status: ('A' for Active; 'I' for Inactive)
REMARK    1  A    between atoms: O_2  and  C_3 
REMARK    2  A    between atoms: C_6  and  N_7 
REMARK    3  A    between atoms: C_11  and  C_12 
REMARK    4  A    between atoms: C_12  and  N_13 
REMARK       I    between atoms: N_13  and  C_14 
REMARK    5  A    between atoms: C_14  and  C_15 
ROOT
HETATM    1  N   UNL     1       6.939  28.530  55.771  1.00  0.00    -0.360 N 
HETATM    2  C   UNL     1       7.252  27.941  54.560  1.00  0.00     0.230 C 
HETATM    3  O   UNL     1       8.234  28.275  53.898  1.00  0.00    -0.272 OA
HETATM    4  H   UNL     1       6.045  28.304  56.196  1.00  0.00     0.162 HD
ENDROOT
BRANCH   1   5
HETATM    5  C   UNL     1       7.710  29.630  56.315  1.00  0.00     0.129 C 
BRANCH   5   6
HETATM    6  C   UNL     1       8.752  29.170  57.347  1.00  0.00     0.031 C 
HETATM    7  C   UNL     1       9.997  30.046  57.299  1.00  0.00     0.111 C 
HETATM    8  C   UNL     1       9.705  31.144  58.292  1.00  0.00     0.224 C 
HETATM    9  N   UNL     1       8.684  30.692  59.143  1.00  0.00    -0.318 N 
HETATM   10  O   UNL     1      10.330  32.193  58.315  1.00  0.00    -0.273 OA
HETATM   11  C   UNL     1       8.269  29.354  58.778  1.00  0.00     0.139 C 
BRANCH   9  12
HETATM   12  C   UNL     1       8.185  31.364  60.294  1.00  0.00     0.037 A 
HETATM   13  C   UNL     1       8.834  31.293  61.533  1.00  0.00     0.032 A 
HETATM   14  C   UNL     1       8.340  31.965  62.662  1.00  0.00     0.039 A 
HETATM   15  C   UNL     1       7.179  32.726  62.575  1.00  0.00     0.068 A 
HETATM   16  C   UNL     1       6.516  32.798  61.353  1.00  0.00     0.039 A 
HETATM   17  C   UNL     1       7.011  32.128  60.227  1.00  0.00     0.032 A 
BRANCH  15  18
HETATM   18  O   UNL     1       6.597  33.431  63.591  1.00  0.00    -0.356 OA
HETATM   19  C   UNL     1       7.392  33.656  64.749  1.00  0.00     0.210 C 
ENDBRANCH  15  18
ENDBRANCH   9  12
ENDBRANCH   5   6
ENDBRANCH   1   5
BRANCH   2  20
HETATM   20  C   UNL     1       6.290  26.844  54.080  1.00  0.00     0.149 C 
HETATM   21  C   UNL     1       7.001  25.516  53.960  1.00  0.00    -0.007 A 
HETATM   22  C   UNL     1       7.123  24.895  52.715  1.00  0.00     0.083 A 
HETATM   23  C   UNL     1       7.553  24.894  55.092  1.00  0.00     0.011 A 
HETATM   24  C   UNL     1       7.796  23.677  52.598  1.00  0.00     0.038 A 
HETATM   25  O   UNL     1       6.615  25.418  51.553  1.00  0.00    -0.310 OA
HETATM   26  C   UNL     1       8.345  23.066  53.725  1.00  0.00     0.003 A 
HETATM   27  C   UNL     1       8.222  23.675  54.973  1.00  0.00     0.001 A 
HETATM   28  C   UNL     1       5.794  26.517  51.630  1.00  0.00     0.083 A 
HETATM   29  C   UNL     1       5.580  27.240  52.805  1.00  0.00    -0.007 A 
HETATM   30  C   UNL     1       5.164  26.896  50.443  1.00  0.00     0.038 A 
HETATM   31  C   UNL     1       4.714  28.346  52.779  1.00  0.00     0.011 A 
HETATM   32  C   UNL     1       4.083  28.721  51.592  1.00  0.00     0.001 A 
HETATM   33  C   UNL     1       4.309  27.998  50.423  1.00  0.00     0.003 A 
ENDBRANCH   2  20
TORSDOF 5
ENDMDL
MODEL 3
REMARK VINA RESULT:      -9.9      2.841      5.166
REMARK  5 active torsions:
REMARK  status: ('A' for Active; 'I' for Inactive)
REMARK    1  A    between atoms: O_2  and  C_3 
REMARK    2  A    between atoms: C_6  and  N_7 
REMARK    3  A    between atoms: C_11  and  C_12 
REMARK    4  A    between atoms: C_12  and  N_13 
REMARK       I    between atoms: N_13  and  C_14 
REMARK    5  A    between atoms: C_14  and  C_15 
ROOT
HETATM    1  N   UNL     1       6.309  25.872  51.460  1.00  0.00    -0.360 N 
HETATM    2  C   UNL     1       6.122  25.193  52.650  1.00  0.00     0.230 C 
HETATM    3  O   UNL     1       5.017  24.788  53.012  1.00  0.00    -0.272 OA
HETATM    4  H   UNL     1       7.216  26.295  51.289  1.00  0.00     0.162 HD
ENDROOT
BRANCH   1   5
HETATM    5  C   UNL     1       5.205  26.214  50.586  1.00  0.00     0.129 C 
BRANCH   5   6
HETATM    6  C   UNL     1       4.930  27.726  50.540  1.00  0.00     0.031 C 
HETATM    7  C   UNL     1       5.732  28.397  49.433  1.00  0.00     0.111 C 
HETATM    8  C   UNL     1       4.816  28.336  48.235  1.00  0.00     0.224 C 
HETATM    9  N   UNL     1       3.510  28.128  48.705  1.00  0.00    -0.318 N 
HETATM   10  O   UNL     1       5.215  28.502  47.093  1.00  0.00    -0.273 OA
HETATM   11  C   UNL     1       3.493  28.040  50.150  1.00  0.00     0.139 C 
BRANCH   9  12
HETATM   12  C   UNL     1       2.321  28.126  47.923  1.00  0.00     0.037 A 
HETATM   13  C   UNL     1       1.896  26.989  47.224  1.00  0.00     0.032 A 
HETATM   14  C   UNL     1       0.718  26.992  46.461  1.00  0.00     0.039 A 
HETATM   15  C   UNL     1      -0.066  28.138  46.381  1.00  0.00     0.068 A 
HETATM   16  C   UNL     1       0.349  29.280  47.063  1.00  0.00     0.039 A 
HETATM   17  C   UNL     1       1.524  29.275  47.824  1.00  0.00     0.032 A 
BRANCH  15  18
HETATM   18  O   UNL     1      -1.232  28.273  45.683  1.00  0.00    -0.356 OA
HETATM   19  C   UNL     1      -1.998  29.444  45.940  1.00  0.00     0.210 C 
ENDBRANCH  15  18
ENDBRANCH   9  12
ENDBRANCH   5   6
ENDBRANCH   1   5
BRANCH   2  20
HETATM   20  C   UNL     1       7.380  24.979  53.504  1.00  0.00     0.149 C 
HETATM   21  C   UNL     1       7.579  23.514  53.815  1.00  0.00    -0.007 A 
HETATM   22  C   UNL     1       7.528  23.062  55.135  1.00  0.00     0.083 A 
HETATM   23  C   UNL     1       7.811  22.587  52.784  1.00  0.00     0.011 A 
HETATM   24  C   UNL     1       7.693  21.705  55.424  1.00  0.00     0.038 A 
HETATM   25  O   UNL     1       7.313  23.886  56.212  1.00  0.00    -0.310 OA
HETATM   26  C   UNL     1       7.919  20.791  54.395  1.00  0.00     0.003 A 
HETATM   27  C   UNL     1       7.979  21.234  53.075  1.00  0.00     0.001 A 
HETATM   28  C   UNL     1       7.321  25.245  56.011  1.00  0.00     0.083 A 
HETATM   29  C   UNL     1       7.364  25.839  54.748  1.00  0.00    -0.007 A 
HETATM   30  C   UNL     1       7.277  26.035  57.162  1.00  0.00     0.038 A 
HETATM   31  C   UNL     1       7.376  27.240  54.652  1.00  0.00     0.011 A 
HETATM   32  C   UNL     1       7.336  28.027  55.803  1.00  0.00     0.001 A 
HETATM   33  C   UNL     1       7.284  27.425  57.059  1.00  0.00     0.003 A 
ENDBRANCH   2  20
TORSDOF 5
ENDMDL
MODEL 4
REMARK VINA RESULT:      -9.9      3.486      5.739
REMARK  5 active torsions:
REMARK  status: ('A' for Active; 'I' for Inactive)
REMARK    1  A    between atoms: O_2  and  C_3 
REMARK    2  A    between atoms: C_6  and  N_7 
REMARK    3  A    between atoms: C_11  and  C_12 
REMARK    4  A    between atoms: C_12  and  N_13 
REMARK       I    between atoms: N_13  and  C_14 
REMARK    5  A    between atoms: C_14  and  C_15 
ROOT
HETATM    1  N   UNL     1       7.780  26.339  56.103  1.00  0.00    -0.360 N 
HETATM    2  C   UNL     1       6.715  25.507  56.394  1.00  0.00     0.230 C 
HETATM    3  O   UNL     1       6.160  25.506  57.492  1.00  0.00    -0.272 OA
HETATM    4  H   UNL     1       8.276  26.193  55.229  1.00  0.00     0.162 HD
ENDROOT
BRANCH   1   5
HETATM    5  C   UNL     1       8.360  27.224  57.092  1.00  0.00     0.129 C 
BRANCH   5   6
HETATM    6  C   UNL     1       8.495  28.670  56.589  1.00  0.00     0.031 C 
HETATM    7  C   UNL     1       7.131  29.278  56.290  1.00  0.00     0.111 C 
HETATM    8  C   UNL     1       6.728  29.919  57.596  1.00  0.00     0.224 C 
HETATM    9  N   UNL     1       7.889  30.093  58.364  1.00  0.00    -0.318 N 
HETATM   10  O   UNL     1       5.576  30.245  57.839  1.00  0.00    -0.273 OA
HETATM   11  C   UNL     1       9.051  29.603  57.655  1.00  0.00     0.139 C 
BRANCH   9  12
HETATM   12  C   UNL     1       7.981  30.768  59.614  1.00  0.00     0.037 A 
HETATM   13  C   UNL     1       7.124  31.824  59.951  1.00  0.00     0.032 A 
HETATM   14  C   UNL     1       7.217  32.480  61.189  1.00  0.00     0.039 A 
HETATM   15  C   UNL     1       8.172  32.090  62.122  1.00  0.00     0.068 A 
HETATM   16  C   UNL     1       9.037  31.048  61.798  1.00  0.00     0.039 A 
HETATM   17  C   UNL     1       8.944  30.395  60.562  1.00  0.00     0.032 A 
BRANCH  15  18
HETATM   18  O   UNL     1       8.363  32.637  63.359  1.00  0.00    -0.356 OA
HETATM   19  C   UNL     1       7.247  33.297  63.945  1.00  0.00     0.210 C 
ENDBRANCH  15  18
ENDBRANCH   9  12
ENDBRANCH   5   6
ENDBRANCH   1   5
BRANCH   2  20
HETATM   20  C   UNL     1       6.269  24.568  55.263  1.00  0.00     0.149 C 
HETATM   21  C   UNL     1       7.257  23.442  55.074  1.00  0.00    -0.007 A 
HETATM   22  C   UNL     1       7.961  23.317  53.873  1.00  0.00     0.083 A 
HETATM   23  C   UNL     1       7.488  22.511  56.100  1.00  0.00     0.011 A 
HETATM   24  C   UNL     1       8.889  22.287  53.702  1.00  0.00     0.038 A 
HETATM   25  O   UNL     1       7.803  24.170  52.810  1.00  0.00    -0.310 OA
HETATM   26  C   UNL     1       9.115  21.369  54.728  1.00  0.00     0.003 A 
HETATM   27  C   UNL     1       8.413  21.481  55.926  1.00  0.00     0.001 A 
HETATM   28  C   UNL     1       6.783  25.090  52.850  1.00  0.00     0.083 A 
HETATM   29  C   UNL     1       6.000  25.326  53.981  1.00  0.00    -0.007 A 
HETATM   30  C   UNL     1       6.558  25.807  51.673  1.00  0.00     0.038 A 
HETATM   31  C   UNL     1       4.975  26.284  53.916  1.00  0.00     0.011 A 
HETATM   32  C   UNL     1       4.749  26.997  52.738  1.00  0.00     0.001 A 
HETATM   33  C   UNL     1       5.542  26.760  51.616  1.00  0.00     0.003 A 
ENDBRANCH   2  20
TORSDOF 5
ENDMDL
MODEL 5
REMARK VINA RESULT:      -9.1      4.797      7.656
REMARK  5 active torsions:
REMARK  status: ('A' for Active; 'I' for Inactive)
REMARK    1  A    between atoms: O_2  and  C_3 
REMARK    2  A    between atoms: C_6  and  N_7 
REMARK    3  A    between atoms: C_11  and  C_12 
REMARK    4  A    between atoms: C_12  and  N_13 
REMARK       I    between atoms: N_13  and  C_14 
REMARK    5  A    between atoms: C_14  and  C_15 
ROOT
HETATM    1  N   UNL     1       7.707  29.343  58.908  1.00  0.00    -0.360 N 
HETATM    2  C   UNL     1       7.943  28.658  57.731  1.00  0.00     0.230 C 
HETATM    3  O   UNL     1       9.011  28.737  57.124  1.00  0.00    -0.272 OA
HETATM    4  H   UNL     1       6.763  29.340  59.282  1.00  0.00     0.162 HD
ENDROOT
BRANCH   1   5
HETATM    5  C   UNL     1       8.679  30.255  59.477  1.00  0.00     0.129 C 
BRANCH   5   6
HETATM    6  C   UNL     1       8.361  31.728  59.172  1.00  0.00     0.031 C 
HETATM    7  C   UNL     1       6.905  31.901  58.759  1.00  0.00     0.111 C 
HETATM    8  C   UNL     1       6.189  32.163  60.061  1.00  0.00     0.224 C 
HETATM    9  N   UNL     1       7.145  32.580  61.000  1.00  0.00    -0.318 N 
HETATM   10  O   UNL     1       4.978  32.057  60.178  1.00  0.00    -0.273 OA
HETATM   11  C   UNL     1       8.466  32.610  60.407  1.00  0.00     0.139 C 
BRANCH   9  12
HETATM   12  C   UNL     1       6.887  33.043  62.321  1.00  0.00     0.037 A 
HETATM   13  C   UNL     1       7.700  32.684  63.403  1.00  0.00     0.032 A 
HETATM   14  C   UNL     1       7.444  33.151  64.703  1.00  0.00     0.039 A 
HETATM   15  C   UNL     1       6.363  33.992  64.947  1.00  0.00     0.068 A 
HETATM   16  C   UNL     1       5.539  34.349  63.882  1.00  0.00     0.039 A 
HETATM   17  C   UNL     1       5.797  33.883  62.587  1.00  0.00     0.032 A 
BRANCH  15  18
HETATM   18  O   UNL     1       6.007  34.519  66.156  1.00  0.00    -0.356 OA
HETATM   19  C   UNL     1       4.725  34.159  66.657  1.00  0.00     0.210 C 
ENDBRANCH  15  18
ENDBRANCH   9  12
ENDBRANCH   5   6
ENDBRANCH   1   5
BRANCH   2  20
HETATM   20  C   UNL     1       6.783  27.793  57.215  1.00  0.00     0.149 C 
HETATM   21  C   UNL     1       7.287  26.464  56.702  1.00  0.00    -0.007 A 
HETATM   22  C   UNL     1       7.137  26.128  55.355  1.00  0.00     0.083 A 
HETATM   23  C   UNL     1       7.917  25.554  57.567  1.00  0.00     0.011 A 
HETATM   24  C   UNL     1       7.618  24.908  54.874  1.00  0.00     0.038 A 
HETATM   25  O   UNL     1       6.532  26.944  54.432  1.00  0.00    -0.310 OA
HETATM   26  C   UNL     1       8.245  24.011  55.739  1.00  0.00     0.003 A 
HETATM   27  C   UNL     1       8.394  24.335  57.086  1.00  0.00     0.001 A 
HETATM   28  C   UNL     1       5.883  28.071  54.876  1.00  0.00     0.083 A 
HETATM   29  C   UNL     1       5.947  28.531  56.193  1.00  0.00    -0.007 A 
HETATM   30  C   UNL     1       5.137  28.764  53.921  1.00  0.00     0.038 A 
HETATM   31  C   UNL     1       5.241  29.692  56.546  1.00  0.00     0.011 A 
HETATM   32  C   UNL     1       4.493  30.381  55.592  1.00  0.00     0.001 A 
HETATM   33  C   UNL     1       4.442  29.919  54.278  1.00  0.00     0.003 A 
ENDBRANCH   2  20
TORSDOF 5
ENDMDL
MODEL 6
REMARK VINA RESULT:      -9.0      2.810      5.979
REMARK  5 active torsions:
REMARK  status: ('A' for Active; 'I' for Inactive)
REMARK    1  A    between atoms: O_2  and  C_3 
REMARK    2  A    between atoms: C_6  and  N_7 
REMARK    3  A    between atoms: C_11  and  C_12 
REMARK    4  A    between atoms: C_12  and  N_13 
REMARK       I    between atoms: N_13  and  C_14 
REMARK    5  A    between atoms: C_14  and  C_15 
ROOT
HETATM    1  N   UNL     1       5.699  25.845  52.224  1.00  0.00    -0.360 N 
HETATM    2  C   UNL     1       6.859  25.434  52.852  1.00  0.00     0.230 C 
HETATM    3  O   UNL     1       7.978  25.721  52.426  1.00  0.00    -0.272 OA
HETATM    4  H   UNL     1       4.817  25.460  52.549  1.00  0.00     0.162 HD
ENDROOT
BRANCH   1   5
HETATM    5  C   UNL     1       5.717  26.590  50.981  1.00  0.00     0.129 C 
BRANCH   5   6
HETATM    6  C   UNL     1       5.073  27.979  51.112  1.00  0.00     0.031 C 
HETATM    7  C   UNL     1       5.716  28.976  50.156  1.00  0.00     0.111 C 
HETATM    8  C   UNL     1       4.883  28.863  48.903  1.00  0.00     0.224 C 
HETATM    9  N   UNL     1       3.657  28.277  49.255  1.00  0.00    -0.318 N 
HETATM   10  O   UNL     1       5.264  29.280  47.821  1.00  0.00    -0.273 OA
HETATM   11  C   UNL     1       3.616  27.985  50.672  1.00  0.00     0.139 C 
BRANCH   9  12
HETATM   12  C   UNL     1       2.532  28.095  48.402  1.00  0.00     0.037 A 
HETATM   13  C   UNL     1       2.308  26.894  47.718  1.00  0.00     0.032 A 
HETATM   14  C   UNL     1       1.191  26.719  46.884  1.00  0.00     0.039 A 
HETATM   15  C   UNL     1       0.270  27.747  46.718  1.00  0.00     0.068 A 
HETATM   16  C   UNL     1       0.484  28.952  47.384  1.00  0.00     0.039 A 
HETATM   17  C   UNL     1       1.598  29.124  48.215  1.00  0.00     0.032 A 
BRANCH  15  18
HETATM   18  O   UNL     1      -0.856  27.706  45.946  1.00  0.00    -0.356 OA
HETATM   19  C   UNL     1      -1.569  28.927  45.791  1.00  0.00     0.210 C 
ENDBRANCH  15  18
ENDBRANCH   9  12
ENDBRANCH   5   6
ENDBRANCH   1   5
BRANCH   2  20
HETATM   20  C   UNL     1       6.671  24.582  54.117  1.00  0.00     0.149 C 
HETATM   21  C   UNL     1       6.925  25.400  55.361  1.00  0.00    -0.007 A 
HETATM   22  C   UNL     1       7.980  25.071  56.215  1.00  0.00     0.083 A 
HETATM   23  C   UNL     1       6.111  26.501  55.674  1.00  0.00     0.011 A 
HETATM   24  C   UNL     1       8.229  25.836  57.357  1.00  0.00     0.038 A 
HETATM   25  O   UNL     1       8.828  24.012  56.002  1.00  0.00    -0.310 OA
HETATM   26  C   UNL     1       7.419  26.931  57.659  1.00  0.00     0.003 A 
HETATM   27  C   UNL     1       6.359  27.262  56.816  1.00  0.00     0.001 A 
HETATM   28  C   UNL     1       8.528  23.122  55.000  1.00  0.00     0.083 A 
HETATM   29  C   UNL     1       7.505  23.320  54.070  1.00  0.00    -0.007 A 
HETATM   30  C   UNL     1       9.319  21.973  54.944  1.00  0.00     0.038 A 
HETATM   31  C   UNL     1       7.275  22.344  53.088  1.00  0.00     0.011 A 
HETATM   32  C   UNL     1       8.064  21.195  53.036  1.00  0.00     0.001 A 
HETATM   33  C   UNL     1       9.089  21.009  53.962  1.00  0.00     0.003 A 
ENDBRANCH   2  20
TORSDOF 5
ENDMDL
MODEL 7
REMARK VINA RESULT:      -9.0      2.192      4.393
REMARK  5 active torsions:
REMARK  status: ('A' for Active; 'I' for Inactive)
REMARK    1  A    between atoms: O_2  and  C_3 
REMARK    2  A    between atoms: C_6  and  N_7 
REMARK    3  A    between atoms: C_11  and  C_12 
REMARK    4  A    between atoms: C_12  and  N_13 
REMARK       I    between atoms: N_13  and  C_14 
REMARK    5  A    between atoms: C_14  and  C_15 
ROOT
HETATM    1  N   UNL     1       5.919  25.428  52.691  1.00  0.00    -0.360 N 
HETATM    2  C   UNL     1       7.085  24.980  53.282  1.00  0.00     0.230 C 
HETATM    3  O   UNL     1       8.197  25.369  52.926  1.00  0.00    -0.272 OA
HETATM    4  H   UNL     1       5.049  24.966  52.939  1.00  0.00     0.162 HD
ENDROOT
BRANCH   1   5
HETATM    5  C   UNL     1       5.926  26.339  51.564  1.00  0.00     0.129 C 
BRANCH   5   6
HETATM    6  C   UNL     1       5.251  27.682  51.883  1.00  0.00     0.031 C 
HETATM    7  C   UNL     1       4.112  27.503  52.879  1.00  0.00     0.111 C 
HETATM    8  C   UNL     1       4.776  27.678  54.223  1.00  0.00     0.224 C 
HETATM    9  N   UNL     1       5.989  28.353  54.016  1.00  0.00    -0.318 N 
HETATM   10  O   UNL     1       4.257  27.312  55.265  1.00  0.00    -0.273 OA
HETATM   11  C   UNL     1       6.183  28.640  52.611  1.00  0.00     0.139 C 
BRANCH   9  12
HETATM   12  C   UNL     1       6.875  28.827  55.025  1.00  0.00     0.037 A 
HETATM   13  C   UNL     1       6.413  29.526  56.147  1.00  0.00     0.032 A 
HETATM   14  C   UNL     1       7.293  29.983  57.142  1.00  0.00     0.039 A 
HETATM   15  C   UNL     1       8.659  29.748  57.035  1.00  0.00     0.068 A 
HETATM   16  C   UNL     1       9.135  29.062  55.920  1.00  0.00     0.039 A 
HETATM   17  C   UNL     1       8.256  28.607  54.928  1.00  0.00     0.032 A 
BRANCH  15  18
HETATM   18  O   UNL     1       9.618  30.130  57.930  1.00  0.00    -0.356 OA
HETATM   19  C   UNL     1       9.335  31.283  58.714  1.00  0.00     0.210 C 
ENDBRANCH  15  18
ENDBRANCH   9  12
ENDBRANCH   5   6
ENDBRANCH   1   5
BRANCH   2  20
HETATM   20  C   UNL     1       6.913  23.952  54.411  1.00  0.00     0.149 C 
HETATM   21  C   UNL     1       7.305  24.545  55.744  1.00  0.00    -0.007 A 
HETATM   22  C   UNL     1       8.384  24.017  56.458  1.00  0.00     0.083 A 
HETATM   23  C   UNL     1       6.598  25.634  56.281  1.00  0.00     0.011 A 
HETATM   24  C   UNL     1       8.760  24.574  57.682  1.00  0.00     0.038 A 
HETATM   25  O   UNL     1       9.134  22.953  56.023  1.00  0.00    -0.310 OA
HETATM   26  C   UNL     1       8.056  25.657  58.207  1.00  0.00     0.003 A 
HETATM   27  C   UNL     1       6.974  26.186  57.505  1.00  0.00     0.001 A 
HETATM   28  C   UNL     1       8.705  22.253  54.920  1.00  0.00     0.083 A 
HETATM   29  C   UNL     1       7.644  22.663  54.110  1.00  0.00    -0.007 A 
HETATM   30  C   UNL     1       9.402  21.079  54.631  1.00  0.00     0.038 A 
HETATM   31  C   UNL     1       7.280  21.871  53.009  1.00  0.00     0.011 A 
HETATM   32  C   UNL     1       7.976  20.696  52.723  1.00  0.00     0.001 A 
HETATM   33  C   UNL     1       9.039  20.300  53.533  1.00  0.00     0.003 A 
ENDBRANCH   2  20
TORSDOF 5
ENDMDL
MODEL 8
REMARK VINA RESULT:      -8.9      3.301      8.618
REMARK  5 active torsions:
REMARK  status: ('A' for Active; 'I' for Inactive)
REMARK    1  A    between atoms: O_2  and  C_3 
REMARK    2  A    between atoms: C_6  and  N_7 
REMARK    3  A    between atoms: C_11  and  C_12 
REMARK    4  A    between atoms: C_12  and  N_13 
REMARK       I    between atoms: N_13  and  C_14 
REMARK    5  A    between atoms: C_14  and  C_15 
ROOT
HETATM    1  N   UNL     1       6.253  29.158  57.772  1.00  0.00    -0.360 N 
HETATM    2  C   UNL     1       7.466  29.767  58.032  1.00  0.00     0.230 C 
HETATM    3  O   UNL     1       8.539  29.174  57.920  1.00  0.00    -0.272 OA
HETATM    4  H   UNL     1       5.405  29.660  58.016  1.00  0.00     0.162 HD
ENDROOT
BRANCH   1   5
HETATM    5  C   UNL     1       6.154  27.758  57.411  1.00  0.00     0.129 C 
BRANCH   5   6
HETATM    6  C   UNL     1       5.356  27.534  56.117  1.00  0.00     0.031 C 
HETATM    7  C   UNL     1       6.023  28.223  54.933  1.00  0.00     0.111 C 
HETATM    8  C   UNL     1       6.951  27.169  54.378  1.00  0.00     0.224 C 
HETATM    9  N   UNL     1       6.512  25.922  54.848  1.00  0.00    -0.318 N 
HETATM   10  O   UNL     1       7.868  27.436  53.618  1.00  0.00    -0.273 OA
HETATM   11  C   UNL     1       5.345  26.073  55.691  1.00  0.00     0.139 C 
BRANCH   9  12
HETATM   12  C   UNL     1       7.027  24.649  54.473  1.00  0.00     0.037 A 
HETATM   13  C   UNL     1       7.340  24.338  53.144  1.00  0.00     0.032 A 
HETATM   14  C   UNL     1       7.856  23.083  52.783  1.00  0.00     0.039 A 
HETATM   15  C   UNL     1       8.071  22.107  53.751  1.00  0.00     0.068 A 
HETATM   16  C   UNL     1       7.756  22.397  55.076  1.00  0.00     0.039 A 
HETATM   17  C   UNL     1       7.242  23.650  55.434  1.00  0.00     0.032 A 
BRANCH  15  18
HETATM   18  O   UNL     1       8.571  20.854  53.537  1.00  0.00    -0.356 OA
HETATM   19  C   UNL     1       8.771  20.041  54.687  1.00  0.00     0.210 C 
ENDBRANCH  15  18
ENDBRANCH   9  12
ENDBRANCH   5   6
ENDBRANCH   1   5
BRANCH   2  20
HETATM   20  C   UNL     1       7.398  31.234  58.483  1.00  0.00     0.149 C 
HETATM   21  C   UNL     1       7.783  31.370  59.938  1.00  0.00    -0.007 A 
HETATM   22  C   UNL     1       6.853  31.831  60.872  1.00  0.00     0.083 A 
HETATM   23  C   UNL     1       9.076  31.031  60.371  1.00  0.00     0.011 A 
HETATM   24  C   UNL     1       7.200  31.941  62.220  1.00  0.00     0.038 A 
HETATM   25  O   UNL     1       5.568  32.192  60.548  1.00  0.00    -0.310 OA
HETATM   26  C   UNL     1       8.484  31.599  62.643  1.00  0.00     0.003 A 
HETATM   27  C   UNL     1       9.422  31.144  61.718  1.00  0.00     0.001 A 
HETATM   28  C   UNL     1       5.223  32.276  59.221  1.00  0.00     0.083 A 
HETATM   29  C   UNL     1       6.050  31.850  58.180  1.00  0.00    -0.007 A 
HETATM   30  C   UNL     1       3.966  32.819  58.947  1.00  0.00     0.038 A 
HETATM   31  C   UNL     1       5.606  31.986  56.854  1.00  0.00     0.011 A 
HETATM   32  C   UNL     1       4.350  32.532  56.583  1.00  0.00     0.001 A 
HETATM   33  C   UNL     1       3.529  32.947  57.630  1.00  0.00     0.003 A 
ENDBRANCH   2  20
TORSDOF 5
ENDMDL
MODEL 9
REMARK VINA RESULT:      -8.7      3.603      9.062
REMARK  5 active torsions:
REMARK  status: ('A' for Active; 'I' for Inactive)
REMARK    1  A    between atoms: O_2  and  C_3 
REMARK    2  A    between atoms: C_6  and  N_7 
REMARK    3  A    between atoms: C_11  and  C_12 
REMARK    4  A    between atoms: C_12  and  N_13 
REMARK       I    between atoms: N_13  and  C_14 
REMARK    5  A    between atoms: C_14  and  C_15 
ROOT
HETATM    1  N   UNL     1       5.752  30.616  58.466  1.00  0.00    -0.360 N 
HETATM    2  C   UNL     1       5.618  31.982  58.297  1.00  0.00     0.230 C 
HETATM    3  O   UNL     1       5.179  32.478  57.259  1.00  0.00    -0.272 OA
HETATM    4  H   UNL     1       6.245  30.283  59.289  1.00  0.00     0.162 HD
ENDROOT
BRANCH   1   5
HETATM    5  C   UNL     1       5.445  29.674  57.409  1.00  0.00     0.129 C 
BRANCH   5   6
HETATM    6  C   UNL     1       6.445  29.741  56.245  1.00  0.00     0.031 C 
HETATM    7  C   UNL     1       7.882  29.690  56.750  1.00  0.00     0.111 C 
HETATM    8  C   UNL     1       8.208  28.216  56.760  1.00  0.00     0.224 C 
HETATM    9  N   UNL     1       7.292  27.569  55.917  1.00  0.00    -0.318 N 
HETATM   10  O   UNL     1       9.154  27.757  57.381  1.00  0.00    -0.273 OA
HETATM   11  C   UNL     1       6.364  28.519  55.342  1.00  0.00     0.139 C 
BRANCH   9  12
HETATM   12  C   UNL     1       7.312  26.195  55.546  1.00  0.00     0.037 A 
HETATM   13  C   UNL     1       7.161  25.170  56.489  1.00  0.00     0.032 A 
HETATM   14  C   UNL     1       7.173  23.817  56.113  1.00  0.00     0.039 A 
HETATM   15  C   UNL     1       7.336  23.459  54.779  1.00  0.00     0.068 A 
HETATM   16  C   UNL     1       7.498  24.466  53.831  1.00  0.00     0.039 A 
HETATM   17  C   UNL     1       7.485  25.815  54.207  1.00  0.00     0.032 A 
BRANCH  15  18
HETATM   18  O   UNL     1       7.360  22.187  54.281  1.00  0.00    -0.356 OA
HETATM   19  C   UNL     1       8.046  21.996  53.050  1.00  0.00     0.210 C 
ENDBRANCH  15  18
ENDBRANCH   9  12
ENDBRANCH   5   6
ENDBRANCH   1   5
BRANCH   2  20
HETATM   20  C   UNL     1       6.062  32.852  59.482  1.00  0.00     0.149 C 
HETATM   21  C   UNL     1       7.227  32.221  60.208  1.00  0.00    -0.007 A 
HETATM   22  C   UNL     1       7.090  31.814  61.537  1.00  0.00     0.083 A 
HETATM   23  C   UNL     1       8.458  32.028  59.559  1.00  0.00     0.011 A 
HETATM   24  C   UNL     1       8.159  31.213  62.206  1.00  0.00     0.038 A 
HETATM   25  O   UNL     1       5.933  31.962  62.261  1.00  0.00    -0.310 OA
HETATM   26  C   UNL     1       9.377  31.022  61.553  1.00  0.00     0.003 A 
HETATM   27  C   UNL     1       9.525  31.431  60.229  1.00  0.00     0.001 A 
HETATM   28  C   UNL     1       4.909  32.703  61.720  1.00  0.00     0.083 A 
HETATM   29  C   UNL     1       4.907  33.172  60.405  1.00  0.00    -0.007 A 
HETATM   30  C   UNL     1       3.832  32.971  62.567  1.00  0.00     0.038 A 
HETATM   31  C   UNL     1       3.814  33.927  59.950  1.00  0.00     0.011 A 
HETATM   32  C   UNL     1       2.740  34.197  60.800  1.00  0.00     0.001 A 
HETATM   33  C   UNL     1       2.748  33.717  62.108  1.00  0.00     0.003 A 
ENDBRANCH   2  20
TORSDOF 5
ENDMDL
MODEL 10
REMARK VINA RESULT:      -8.6      4.110      6.878
REMARK  5 active torsions:
REMARK  status: ('A' for Active; 'I' for Inactive)
REMARK    1  A    between atoms: O_2  and  C_3 
REMARK    2  A    between atoms: C_6  and  N_7 
REMARK    3  A    between atoms: C_11  and  C_12 
REMARK    4  A    between atoms: C_12  and  N_13 
REMARK       I    between atoms: N_13  and  C_14 
REMARK    5  A    between atoms: C_14  and  C_15 
ROOT
HETATM    1  N   UNL     1       7.563  28.520  57.030  1.00  0.00    -0.360 N 
HETATM    2  C   UNL     1       6.775  27.564  56.414  1.00  0.00     0.230 C 
HETATM    3  O   UNL     1       5.604  27.367  56.737  1.00  0.00    -0.272 OA
HETATM    4  H   UNL     1       8.554  28.536  56.810  1.00  0.00     0.162 HD
ENDROOT
BRANCH   1   5
HETATM    5  C   UNL     1       7.083  29.312  58.144  1.00  0.00     0.129 C 
BRANCH   5   6
HETATM    6  C   UNL     1       7.374  30.812  57.974  1.00  0.00     0.031 C 
HETATM    7  C   UNL     1       6.088  31.602  57.768  1.00  0.00     0.111 C 
HETATM    8  C   UNL     1       5.671  31.984  59.167  1.00  0.00     0.224 C 
HETATM    9  N   UNL     1       6.798  31.875  59.995  1.00  0.00    -0.318 N 
HETATM   10  O   UNL     1       4.541  32.362  59.435  1.00  0.00    -0.273 OA
HETATM   11  C   UNL     1       7.951  31.436  59.237  1.00  0.00     0.139 C 
BRANCH   9  12
HETATM   12  C   UNL     1       6.880  32.253  61.365  1.00  0.00     0.037 A 
HETATM   13  C   UNL     1       8.096  32.260  62.060  1.00  0.00     0.032 A 
HETATM   14  C   UNL     1       8.170  32.643  63.409  1.00  0.00     0.039 A 
HETATM   15  C   UNL     1       7.023  33.030  64.094  1.00  0.00     0.068 A 
HETATM   16  C   UNL     1       5.805  33.018  63.420  1.00  0.00     0.039 A 
HETATM   17  C   UNL     1       5.733  32.637  62.074  1.00  0.00     0.032 A 
BRANCH  15  18
HETATM   18  O   UNL     1       6.958  33.428  65.399  1.00  0.00    -0.356 OA
HETATM   19  C   UNL     1       5.712  33.951  65.845  1.00  0.00     0.210 C 
ENDBRANCH  15  18
ENDBRANCH   9  12
ENDBRANCH   5   6
ENDBRANCH   1   5
BRANCH   2  20
HETATM   20  C   UNL     1       7.455  26.750  55.303  1.00  0.00     0.149 C 
HETATM   21  C   UNL     1       6.672  26.837  54.014  1.00  0.00    -0.007 A 
HETATM   22  C   UNL     1       6.101  25.688  53.461  1.00  0.00     0.083 A 
HETATM   23  C   UNL     1       6.502  28.068  53.360  1.00  0.00     0.011 A 
HETATM   24  C   UNL     1       5.360  25.768  52.279  1.00  0.00     0.038 A 
HETATM   25  O   UNL     1       6.214  24.440  54.020  1.00  0.00    -0.310 OA
HETATM   26  C   UNL     1       5.192  26.994  51.637  1.00  0.00     0.003 A 
HETATM   27  C   UNL     1       5.765  28.144  52.178  1.00  0.00     0.001 A 
HETATM   28  C   UNL     1       7.073  24.268  55.078  1.00  0.00     0.083 A 
HETATM   29  C   UNL     1       7.712  25.323  55.733  1.00  0.00    -0.007 A 
HETATM   30  C   UNL     1       7.284  22.951  55.489  1.00  0.00     0.038 A 
HETATM   31  C   UNL     1       8.578  25.040  56.801  1.00  0.00     0.011 A 
HETATM   32  C   UNL     1       8.791  23.722  57.208  1.00  0.00     0.001 A 
HETATM   33  C   UNL     1       8.142  22.677  56.554  1.00  0.00     0.003 A 
ENDBRANCH   2  20
TORSDOF 5
ENDMDL
