MODEL 1
REMARK VINA RESULT:      -8.0      0.000      0.000
REMARK  5 active torsions:
REMARK  status: ('A' for Active; 'I' for Inactive)
REMARK    1  A    between atoms: C_2  and  O_3 
REMARK    2  A    between atoms: O_3  and  C_4 
REMARK    3  A    between atoms: C_5  and  N_6 
REMARK       I    between atoms: N_6  and  C_7 
REMARK       I    between atoms: C_7  and  N_8 
REMARK    4  A    between atoms: N_8  and  C_9 
REMARK    5  A    between atoms: C_9  and  C_10 
ROOT
HETATM    1  N   UNL     1       8.267  24.956  56.658  1.00  0.00    -0.306 N 
HETATM    2  C   UNL     1       7.220  25.635  57.217  1.00  0.00     0.321 C 
HETATM    3  N   UNL     1       7.503  26.932  57.554  1.00  0.00    -0.337 N 
HETATM    4  O   UNL     1       6.105  25.194  57.470  1.00  0.00    -0.247 OA
HETATM    5  H   UNL     1       9.151  25.220  57.092  1.00  0.00     0.171 HD
HETATM    6  H   UNL     1       6.677  27.369  57.943  1.00  0.00     0.164 HD
ENDROOT
BRANCH   1   7
HETATM    7  C   UNL     1       8.183  23.663  56.106  1.00  0.00     0.069 A 
HETATM    8  C   UNL     1       7.988  23.401  54.741  1.00  0.00     0.096 A 
HETATM    9  C   UNL     1       7.828  22.085  54.298  1.00  0.00     0.039 A 
HETATM   10  C   UNL     1       7.938  21.021  55.192  1.00  0.00     0.003 A 
HETATM   11  C   UNL     1       8.211  21.271  56.535  1.00  0.00     0.002 A 
HETATM   12  C   UNL     1       8.341  22.585  56.988  1.00  0.00     0.032 A 
BRANCH   8  13
HETATM   13  O   UNL     1       7.961  24.360  53.760  1.00  0.00    -0.344 OA
BRANCH  13  14
HETATM   14  C   UNL     1       6.728  24.393  53.024  1.00  0.00     0.121 C 
HETATM   15  C   UNL     1       6.961  25.289  51.810  1.00  0.00     0.040 C 
HETATM   16  C   UNL     1       5.606  24.965  53.888  1.00  0.00     0.040 C 
ENDBRANCH  13  14
ENDBRANCH   8  13
ENDBRANCH   1   7
BRANCH   3  17
HETATM   17  C   UNL     1       8.398  27.796  56.805  1.00  0.00     0.183 C 
BRANCH  17  18
HETATM   18  C   UNL     1       8.909  29.035  57.525  1.00  0.00     0.053 A 
HETATM   19  N   UNL     1      10.068  29.620  57.113  1.00  0.00    -0.264 NA
HETATM   20  C   UNL     1      10.457  30.759  57.731  1.00  0.00     0.118 A 
HETATM   21  C   UNL     1       9.736  31.373  58.734  1.00  0.00     0.043 A 
HETATM   22  C   UNL     1       8.550  30.773  59.127  1.00  0.00     0.037 A 
HETATM   23 CL   UNL     1       7.594  31.496  60.361  1.00  0.00    -0.084 Cl
HETATM   24  C   UNL     1       8.120  29.596  58.525  1.00  0.00     0.052 A 
ENDBRANCH  17  18
ENDBRANCH   3  17
TORSDOF 5
ENDMDL
MODEL 2
REMARK VINA RESULT:      -8.0      1.806      2.119
REMARK  5 active torsions:
REMARK  status: ('A' for Active; 'I' for Inactive)
REMARK    1  A    between atoms: C_2  and  O_3 
REMARK    2  A    between atoms: O_3  and  C_4 
REMARK    3  A    between atoms: C_5  and  N_6 
REMARK       I    between atoms: N_6  and  C_7 
REMARK       I    between atoms: C_7  and  N_8 
REMARK    4  A    between atoms: N_8  and  C_9 
REMARK    5  A    between atoms: C_9  and  C_10 
ROOT
HETATM    1  N   UNL     1       7.521  25.741  55.711  1.00  0.00    -0.306 N 
HETATM    2  C   UNL     1       6.361  25.850  56.427  1.00  0.00     0.321 C 
HETATM    3  N   UNL     1       6.158  27.081  56.991  1.00  0.00    -0.337 N 
HETATM    4  O   UNL     1       5.536  24.968  56.634  1.00  0.00    -0.247 OA
HETATM    5  H   UNL     1       8.277  26.262  56.153  1.00  0.00     0.171 HD
HETATM    6  H   UNL     1       5.276  27.086  57.486  1.00  0.00     0.164 HD
ENDROOT
BRANCH   1   7
HETATM    7  C   UNL     1       7.880  24.625  54.929  1.00  0.00     0.069 A 
HETATM    8  C   UNL     1       7.596  24.501  53.560  1.00  0.00     0.096 A 
HETATM    9  C   UNL     1       7.913  23.317  52.886  1.00  0.00     0.039 A 
HETATM   10  C   UNL     1       8.582  22.287  53.546  1.00  0.00     0.003 A 
HETATM   11  C   UNL     1       8.937  22.438  54.884  1.00  0.00     0.002 A 
HETATM   12  C   UNL     1       8.595  23.605  55.570  1.00  0.00     0.032 A 
BRANCH   8  13
HETATM   13  O   UNL     1       7.031  25.484  52.789  1.00  0.00    -0.344 OA
BRANCH  13  14
HETATM   14  C   UNL     1       5.817  25.077  52.137  1.00  0.00     0.121 C 
HETATM   15  C   UNL     1       5.514  26.126  51.071  1.00  0.00     0.040 C 
HETATM   16  C   UNL     1       4.670  25.006  53.143  1.00  0.00     0.040 C 
ENDBRANCH  13  14
ENDBRANCH   8  13
ENDBRANCH   1   7
BRANCH   3  17
HETATM   17  C   UNL     1       6.566  28.337  56.385  1.00  0.00     0.183 C 
BRANCH  17  18
HETATM   18  C   UNL     1       7.568  29.176  57.165  1.00  0.00     0.053 A 
HETATM   19  N   UNL     1       7.147  29.887  58.247  1.00  0.00    -0.264 NA
HETATM   20  C   UNL     1       8.075  30.567  58.958  1.00  0.00     0.118 A 
HETATM   21  C   UNL     1       9.423  30.560  58.665  1.00  0.00     0.043 A 
HETATM   22  C   UNL     1       9.835  29.815  57.571  1.00  0.00     0.037 A 
HETATM   23 CL   UNL     1      11.505  29.749  57.161  1.00  0.00    -0.084 Cl
HETATM   24  C   UNL     1       8.911  29.111  56.807  1.00  0.00     0.052 A 
ENDBRANCH  17  18
ENDBRANCH   3  17
TORSDOF 5
ENDMDL
MODEL 3
REMARK VINA RESULT:      -7.8      3.221      7.612
REMARK  5 active torsions:
REMARK  status: ('A' for Active; 'I' for Inactive)
REMARK    1  A    between atoms: C_2  and  O_3 
REMARK    2  A    between atoms: O_3  and  C_4 
REMARK    3  A    between atoms: C_5  and  N_6 
REMARK       I    between atoms: N_6  and  C_7 
REMARK       I    between atoms: C_7  and  N_8 
REMARK    4  A    between atoms: N_8  and  C_9 
REMARK    5  A    between atoms: C_9  and  C_10 
ROOT
HETATM    1  N   UNL     1       8.014  27.956  56.522  1.00  0.00    -0.306 N 
HETATM    2  C   UNL     1       7.691  26.786  57.152  1.00  0.00     0.321 C 
HETATM    3  N   UNL     1       7.004  25.894  56.371  1.00  0.00    -0.337 N 
HETATM    4  O   UNL     1       7.917  26.489  58.319  1.00  0.00    -0.247 OA
HETATM    5  H   UNL     1       7.270  28.253  55.892  1.00  0.00     0.171 HD
HETATM    6  H   UNL     1       6.819  25.052  56.901  1.00  0.00     0.164 HD
ENDROOT
BRANCH   1   7
HETATM    7  C   UNL     1       8.833  28.963  57.070  1.00  0.00     0.069 A 
HETATM    8  C   UNL     1       8.381  29.942  57.967  1.00  0.00     0.096 A 
HETATM    9  C   UNL     1       9.246  30.956  58.389  1.00  0.00     0.039 A 
HETATM   10  C   UNL     1      10.582  30.957  57.987  1.00  0.00     0.003 A 
HETATM   11  C   UNL     1      11.056  29.941  57.161  1.00  0.00     0.002 A 
HETATM   12  C   UNL     1      10.187  28.944  56.711  1.00  0.00     0.032 A 
BRANCH   8  13
HETATM   13  O   UNL     1       7.119  29.984  58.504  1.00  0.00    -0.344 OA
BRANCH  13  14
HETATM   14  C   UNL     1       6.173  30.702  57.695  1.00  0.00     0.121 C 
HETATM   15  C   UNL     1       5.690  31.888  58.524  1.00  0.00     0.040 C 
HETATM   16  C   UNL     1       4.993  29.803  57.331  1.00  0.00     0.040 C 
ENDBRANCH  13  14
ENDBRANCH   8  13
ENDBRANCH   1   7
BRANCH   3  17
HETATM   17  C   UNL     1       7.213  25.726  54.943  1.00  0.00     0.183 C 
BRANCH  17  18
HETATM   18  C   UNL     1       7.443  24.305  54.452  1.00  0.00     0.053 A 
HETATM   19  N   UNL     1       7.801  24.094  53.155  1.00  0.00    -0.264 NA
HETATM   20  C   UNL     1       8.064  22.825  52.769  1.00  0.00     0.118 A 
HETATM   21  C   UNL     1       8.015  21.738  53.618  1.00  0.00     0.043 A 
HETATM   22  C   UNL     1       7.667  21.975  54.938  1.00  0.00     0.037 A 
HETATM   23 CL   UNL     1       7.604  20.667  56.054  1.00  0.00    -0.084 Cl
HETATM   24  C   UNL     1       7.378  23.264  55.373  1.00  0.00     0.052 A 
ENDBRANCH  17  18
ENDBRANCH   3  17
TORSDOF 5
ENDMDL
MODEL 4
REMARK VINA RESULT:      -7.7      1.581      3.159
REMARK  5 active torsions:
REMARK  status: ('A' for Active; 'I' for Inactive)
REMARK    1  A    between atoms: C_2  and  O_3 
REMARK    2  A    between atoms: O_3  and  C_4 
REMARK    3  A    between atoms: C_5  and  N_6 
REMARK       I    between atoms: N_6  and  C_7 
REMARK       I    between atoms: C_7  and  N_8 
REMARK    4  A    between atoms: N_8  and  C_9 
REMARK    5  A    between atoms: C_9  and  C_10 
ROOT
HETATM    1  N   UNL     1       7.211  26.728  55.319  1.00  0.00    -0.306 N 
HETATM    2  C   UNL     1       6.122  26.889  56.130  1.00  0.00     0.321 C 
HETATM    3  N   UNL     1       6.130  28.045  56.865  1.00  0.00    -0.337 N 
HETATM    4  O   UNL     1       5.192  26.105  56.283  1.00  0.00    -0.247 OA
HETATM    5  H   UNL     1       8.058  27.075  55.766  1.00  0.00     0.171 HD
HETATM    6  H   UNL     1       5.288  28.099  57.422  1.00  0.00     0.164 HD
ENDROOT
BRANCH   1   7
HETATM    7  C   UNL     1       7.360  25.695  54.372  1.00  0.00     0.069 A 
HETATM    8  C   UNL     1       7.463  24.335  54.702  1.00  0.00     0.096 A 
HETATM    9  C   UNL     1       7.699  23.389  53.700  1.00  0.00     0.039 A 
HETATM   10  C   UNL     1       7.755  23.777  52.362  1.00  0.00     0.003 A 
HETATM   11  C   UNL     1       7.574  25.115  52.022  1.00  0.00     0.002 A 
HETATM   12  C   UNL     1       7.369  26.069  53.022  1.00  0.00     0.032 A 
BRANCH   8  13
HETATM   13  O   UNL     1       7.326  23.828  55.970  1.00  0.00    -0.344 OA
BRANCH  13  14
HETATM   14  C   UNL     1       8.573  23.446  56.574  1.00  0.00     0.121 C 
HETATM   15  C   UNL     1       8.373  22.048  57.154  1.00  0.00     0.040 C 
HETATM   16  C   UNL     1       8.950  24.425  57.683  1.00  0.00     0.040 C 
ENDBRANCH  13  14
ENDBRANCH   8  13
ENDBRANCH   1   7
BRANCH   3  17
HETATM   17  C   UNL     1       6.678  29.308  56.399  1.00  0.00     0.183 C 
BRANCH  17  18
HETATM   18  C   UNL     1       8.087  29.649  56.858  1.00  0.00     0.053 A 
HETATM   19  N   UNL     1       9.151  29.252  56.106  1.00  0.00    -0.264 NA
HETATM   20  C   UNL     1      10.387  29.631  56.506  1.00  0.00     0.118 A 
HETATM   21  C   UNL     1      10.627  30.415  57.616  1.00  0.00     0.043 A 
HETATM   22  C   UNL     1       9.530  30.824  58.358  1.00  0.00     0.037 A 
HETATM   23 CL   UNL     1       9.758  31.819  59.743  1.00  0.00    -0.084 Cl
HETATM   24  C   UNL     1       8.244  30.448  57.986  1.00  0.00     0.052 A 
ENDBRANCH  17  18
ENDBRANCH   3  17
TORSDOF 5
ENDMDL
MODEL 5
REMARK VINA RESULT:      -7.7      5.042      7.999
REMARK  5 active torsions:
REMARK  status: ('A' for Active; 'I' for Inactive)
REMARK    1  A    between atoms: C_2  and  O_3 
REMARK    2  A    between atoms: O_3  and  C_4 
REMARK    3  A    between atoms: C_5  and  N_6 
REMARK       I    between atoms: N_6  and  C_7 
REMARK       I    between atoms: C_7  and  N_8 
REMARK    4  A    between atoms: N_8  and  C_9 
REMARK    5  A    between atoms: C_9  and  C_10 
ROOT
HETATM    1  N   UNL     1       6.487  25.370  52.573  1.00  0.00    -0.306 N 
HETATM    2  C   UNL     1       5.120  25.402  52.532  1.00  0.00     0.321 C 
HETATM    3  N   UNL     1       4.603  26.292  51.628  1.00  0.00    -0.337 N 
HETATM    4  O   UNL     1       4.345  24.761  53.231  1.00  0.00    -0.247 OA
HETATM    5  H   UNL     1       6.881  26.301  52.447  1.00  0.00     0.171 HD
HETATM    6  H   UNL     1       3.592  26.244  51.646  1.00  0.00     0.164 HD
ENDROOT
BRANCH   1   7
HETATM    7  C   UNL     1       7.245  24.445  53.317  1.00  0.00     0.069 A 
HETATM    8  C   UNL     1       7.627  24.635  54.654  1.00  0.00     0.096 A 
HETATM    9  C   UNL     1       8.455  23.702  55.284  1.00  0.00     0.039 A 
HETATM   10  C   UNL     1       8.843  22.540  54.618  1.00  0.00     0.003 A 
HETATM   11  C   UNL     1       8.402  22.307  53.319  1.00  0.00     0.002 A 
HETATM   12  C   UNL     1       7.599  23.251  52.674  1.00  0.00     0.032 A 
BRANCH   8  13
HETATM   13  O   UNL     1       7.226  25.689  55.436  1.00  0.00    -0.344 OA
BRANCH  13  14
HETATM   14  C   UNL     1       6.875  25.310  56.777  1.00  0.00     0.121 C 
HETATM   15  C   UNL     1       5.351  25.319  56.855  1.00  0.00     0.040 C 
HETATM   16  C   UNL     1       7.457  26.303  57.780  1.00  0.00     0.040 C 
ENDBRANCH  13  14
ENDBRANCH   8  13
ENDBRANCH   1   7
BRANCH   3  17
HETATM   17  C   UNL     1       5.213  26.606  50.347  1.00  0.00     0.183 C 
BRANCH  17  18
HETATM   18  C   UNL     1       4.282  26.656  49.145  1.00  0.00     0.053 A 
HETATM   19  N   UNL     1       3.660  25.518  48.731  1.00  0.00    -0.264 NA
HETATM   20  C   UNL     1       2.787  25.611  47.702  1.00  0.00     0.118 A 
HETATM   21  C   UNL     1       2.473  26.795  47.067  1.00  0.00     0.043 A 
HETATM   22  C   UNL     1       3.103  27.946  47.514  1.00  0.00     0.037 A 
HETATM   23 CL   UNL     1       2.744  29.459  46.777  1.00  0.00    -0.084 Cl
HETATM   24  C   UNL     1       4.015  27.891  48.562  1.00  0.00     0.052 A 
ENDBRANCH  17  18
ENDBRANCH   3  17
TORSDOF 5
ENDMDL
MODEL 6
REMARK VINA RESULT:      -7.5      3.848      8.116
REMARK  5 active torsions:
REMARK  status: ('A' for Active; 'I' for Inactive)
REMARK    1  A    between atoms: C_2  and  O_3 
REMARK    2  A    between atoms: O_3  and  C_4 
REMARK    3  A    between atoms: C_5  and  N_6 
REMARK       I    between atoms: N_6  and  C_7 
REMARK       I    between atoms: C_7  and  N_8 
REMARK    4  A    between atoms: N_8  and  C_9 
REMARK    5  A    between atoms: C_9  and  C_10 
ROOT
HETATM    1  N   UNL     1       8.707  30.152  58.723  1.00  0.00    -0.306 N 
HETATM    2  C   UNL     1       9.653  30.435  57.777  1.00  0.00     0.321 C 
HETATM    3  N   UNL     1       9.577  29.656  56.652  1.00  0.00    -0.337 N 
HETATM    4  O   UNL     1      10.552  31.264  57.855  1.00  0.00    -0.247 OA
HETATM    5  H   UNL     1       8.523  29.151  58.773  1.00  0.00     0.171 HD
HETATM    6  H   UNL     1      10.295  29.937  55.997  1.00  0.00     0.164 HD
ENDROOT
BRANCH   1   7
HETATM    7  C   UNL     1       8.496  30.904  59.896  1.00  0.00     0.069 A 
HETATM    8  C   UNL     1       7.674  32.039  59.966  1.00  0.00     0.096 A 
HETATM    9  C   UNL     1       7.596  32.773  61.154  1.00  0.00     0.039 A 
HETATM   10  C   UNL     1       8.269  32.340  62.296  1.00  0.00     0.003 A 
HETATM   11  C   UNL     1       9.021  31.170  62.254  1.00  0.00     0.002 A 
HETATM   12  C   UNL     1       9.128  30.450  61.062  1.00  0.00     0.032 A 
BRANCH   8  13
HETATM   13  O   UNL     1       6.894  32.500  58.937  1.00  0.00    -0.344 OA
BRANCH  13  14
HETATM   14  C   UNL     1       5.514  32.113  59.043  1.00  0.00     0.121 C 
HETATM   15  C   UNL     1       5.254  31.092  57.939  1.00  0.00     0.040 C 
HETATM   16  C   UNL     1       4.605  33.326  58.859  1.00  0.00     0.040 C 
ENDBRANCH  13  14
ENDBRANCH   8  13
ENDBRANCH   1   7
BRANCH   3  17
HETATM   17  C   UNL     1       8.336  29.163  56.080  1.00  0.00     0.183 C 
BRANCH  17  18
HETATM   18  C   UNL     1       7.990  27.708  56.358  1.00  0.00     0.053 A 
HETATM   19  N   UNL     1       8.122  27.218  57.621  1.00  0.00    -0.264 NA
HETATM   20  C   UNL     1       7.740  25.940  57.848  1.00  0.00     0.118 A 
HETATM   21  C   UNL     1       7.202  25.116  56.880  1.00  0.00     0.043 A 
HETATM   22  C   UNL     1       7.059  25.639  55.605  1.00  0.00     0.037 A 
HETATM   23 CL   UNL     1       6.379  24.671  54.355  1.00  0.00    -0.084 Cl
HETATM   24  C   UNL     1       7.449  26.944  55.327  1.00  0.00     0.052 A 
ENDBRANCH  17  18
ENDBRANCH   3  17
TORSDOF 5
ENDMDL
MODEL 7
REMARK VINA RESULT:      -7.3      4.055      6.831
REMARK  5 active torsions:
REMARK  status: ('A' for Active; 'I' for Inactive)
REMARK    1  A    between atoms: C_2  and  O_3 
REMARK    2  A    between atoms: O_3  and  C_4 
REMARK    3  A    between atoms: C_5  and  N_6 
REMARK       I    between atoms: N_6  and  C_7 
REMARK       I    between atoms: C_7  and  N_8 
REMARK    4  A    between atoms: N_8  and  C_9 
REMARK    5  A    between atoms: C_9  and  C_10 
ROOT
HETATM    1  N   UNL     1       6.874  25.852  56.042  1.00  0.00    -0.306 N 
HETATM    2  C   UNL     1       7.677  25.925  57.146  1.00  0.00     0.321 C 
HETATM    3  N   UNL     1       8.573  24.896  57.263  1.00  0.00    -0.337 N 
HETATM    4  O   UNL     1       7.643  26.775  58.029  1.00  0.00    -0.247 OA
HETATM    5  H   UNL     1       6.616  24.888  55.837  1.00  0.00     0.171 HD
HETATM    6  H   UNL     1       9.138  25.031  58.091  1.00  0.00     0.164 HD
ENDROOT
BRANCH   1   7
HETATM    7  C   UNL     1       5.976  26.858  55.634  1.00  0.00     0.069 A 
HETATM    8  C   UNL     1       5.797  27.260  54.302  1.00  0.00     0.096 A 
HETATM    9  C   UNL     1       4.947  28.329  54.002  1.00  0.00     0.039 A 
HETATM   10  C   UNL     1       4.213  28.951  55.012  1.00  0.00     0.003 A 
HETATM   11  C   UNL     1       4.327  28.504  56.325  1.00  0.00     0.002 A 
HETATM   12  C   UNL     1       5.198  27.457  56.634  1.00  0.00     0.032 A 
BRANCH   8  13
HETATM   13  O   UNL     1       6.390  26.659  53.221  1.00  0.00    -0.344 OA
BRANCH  13  14
HETATM   14  C   UNL     1       5.567  25.663  52.592  1.00  0.00     0.121 C 
HETATM   15  C   UNL     1       6.245  24.316  52.825  1.00  0.00     0.040 C 
HETATM   16  C   UNL     1       5.448  25.938  51.095  1.00  0.00     0.040 C 
ENDBRANCH  13  14
ENDBRANCH   8  13
ENDBRANCH   1   7
BRANCH   3  17
HETATM   17  C   UNL     1       9.220  24.242  56.139  1.00  0.00     0.183 C 
BRANCH  17  18
HETATM   18  C   UNL     1       8.832  22.794  55.879  1.00  0.00     0.053 A 
HETATM   19  N   UNL     1       8.444  22.008  56.920  1.00  0.00    -0.264 NA
HETATM   20  C   UNL     1       8.040  20.746  56.645  1.00  0.00     0.118 A 
HETATM   21  C   UNL     1       7.977  20.221  55.370  1.00  0.00     0.043 A 
HETATM   22  C   UNL     1       8.359  21.043  54.321  1.00  0.00     0.037 A 
HETATM   23 CL   UNL     1       8.286  20.457  52.706  1.00  0.00    -0.084 Cl
HETATM   24  C   UNL     1       8.790  22.343  54.563  1.00  0.00     0.052 A 
ENDBRANCH  17  18
ENDBRANCH   3  17
TORSDOF 5
ENDMDL
MODEL 8
REMARK VINA RESULT:      -7.3      4.782      9.470
REMARK  5 active torsions:
REMARK  status: ('A' for Active; 'I' for Inactive)
REMARK    1  A    between atoms: C_2  and  O_3 
REMARK    2  A    between atoms: O_3  and  C_4 
REMARK    3  A    between atoms: C_5  and  N_6 
REMARK       I    between atoms: N_6  and  C_7 
REMARK       I    between atoms: C_7  and  N_8 
REMARK    4  A    between atoms: N_8  and  C_9 
REMARK    5  A    between atoms: C_9  and  C_10 
ROOT
HETATM    1  N   UNL     1       7.056  31.476  60.416  1.00  0.00    -0.306 N 
HETATM    2  C   UNL     1       7.921  31.695  59.380  1.00  0.00     0.321 C 
HETATM    3  N   UNL     1       7.697  30.908  58.281  1.00  0.00    -0.337 N 
HETATM    4  O   UNL     1       8.867  32.473  59.359  1.00  0.00    -0.247 OA
HETATM    5  H   UNL     1       6.824  30.488  60.501  1.00  0.00     0.171 HD
HETATM    6  H   UNL     1       8.363  31.141  57.556  1.00  0.00     0.164 HD
ENDROOT
BRANCH   1   7
HETATM    7  C   UNL     1       6.999  32.252  61.591  1.00  0.00     0.069 A 
HETATM    8  C   UNL     1       6.077  33.288  61.805  1.00  0.00     0.096 A 
HETATM    9  C   UNL     1       6.154  34.063  62.967  1.00  0.00     0.039 A 
HETATM   10  C   UNL     1       7.092  33.763  63.954  1.00  0.00     0.003 A 
HETATM   11  C   UNL     1       7.957  32.685  63.782  1.00  0.00     0.002 A 
HETATM   12  C   UNL     1       7.905  31.928  62.610  1.00  0.00     0.032 A 
BRANCH   8  13
HETATM   13  O   UNL     1       5.054  33.609  60.951  1.00  0.00    -0.344 OA
BRANCH  13  14
HETATM   14  C   UNL     1       3.795  33.020  61.315  1.00  0.00     0.121 C 
HETATM   15  C   UNL     1       3.438  32.024  60.215  1.00  0.00     0.040 C 
HETATM   16  C   UNL     1       2.714  34.094  61.419  1.00  0.00     0.040 C 
ENDBRANCH  13  14
ENDBRANCH   8  13
ENDBRANCH   1   7
BRANCH   3  17
HETATM   17  C   UNL     1       6.382  30.477  57.837  1.00  0.00     0.183 C 
BRANCH  17  18
HETATM   18  C   UNL     1       6.236  29.009  57.469  1.00  0.00     0.053 A 
HETATM   19  N   UNL     1       5.077  28.573  56.901  1.00  0.00    -0.264 NA
HETATM   20  C   UNL     1       5.006  27.276  56.523  1.00  0.00     0.118 A 
HETATM   21  C   UNL     1       6.046  26.379  56.657  1.00  0.00     0.043 A 
HETATM   22  C   UNL     1       7.223  26.846  57.220  1.00  0.00     0.037 A 
HETATM   23 CL   UNL     1       8.565  25.784  57.399  1.00  0.00    -0.084 Cl
HETATM   24  C   UNL     1       7.334  28.169  57.632  1.00  0.00     0.052 A 
ENDBRANCH  17  18
ENDBRANCH   3  17
TORSDOF 5
ENDMDL
MODEL 9
REMARK VINA RESULT:      -7.3      5.492      8.675
REMARK  5 active torsions:
REMARK  status: ('A' for Active; 'I' for Inactive)
REMARK    1  A    between atoms: C_2  and  O_3 
REMARK    2  A    between atoms: O_3  and  C_4 
REMARK    3  A    between atoms: C_5  and  N_6 
REMARK       I    between atoms: N_6  and  C_7 
REMARK       I    between atoms: C_7  and  N_8 
REMARK    4  A    between atoms: N_8  and  C_9 
REMARK    5  A    between atoms: C_9  and  C_10 
ROOT
HETATM    1  N   UNL     1       5.610  26.976  50.121  1.00  0.00    -0.306 N 
HETATM    2  C   UNL     1       5.138  26.785  51.391  1.00  0.00     0.321 C 
HETATM    3  N   UNL     1       5.709  25.731  52.053  1.00  0.00    -0.337 N 
HETATM    4  O   UNL     1       4.257  27.423  51.955  1.00  0.00    -0.247 OA
HETATM    5  H   UNL     1       5.795  26.087  49.659  1.00  0.00     0.171 HD
HETATM    6  H   UNL     1       5.322  25.667  52.986  1.00  0.00     0.164 HD
ENDROOT
BRANCH   1   7
HETATM    7  C   UNL     1       5.280  28.072  49.299  1.00  0.00     0.069 A 
HETATM    8  C   UNL     1       4.695  27.953  48.029  1.00  0.00     0.096 A 
HETATM    9  C   UNL     1       4.484  29.093  47.247  1.00  0.00     0.039 A 
HETATM   10  C   UNL     1       4.778  30.359  47.753  1.00  0.00     0.003 A 
HETATM   11  C   UNL     1       5.284  30.488  49.043  1.00  0.00     0.002 A 
HETATM   12  C   UNL     1       5.526  29.350  49.816  1.00  0.00     0.032 A 
BRANCH   8  13
HETATM   13  O   UNL     1       4.276  26.772  47.471  1.00  0.00    -0.344 OA
BRANCH  13  14
HETATM   14  C   UNL     1       3.003  26.323  47.963  1.00  0.00     0.121 C 
HETATM   15  C   UNL     1       3.077  24.802  48.061  1.00  0.00     0.040 C 
HETATM   16  C   UNL     1       1.887  26.732  47.003  1.00  0.00     0.040 C 
ENDBRANCH  13  14
ENDBRANCH   8  13
ENDBRANCH   1   7
BRANCH   3  17
HETATM   17  C   UNL     1       7.094  25.319  51.898  1.00  0.00     0.183 C 
BRANCH  17  18
HETATM   18  C   UNL     1       7.638  24.356  52.943  1.00  0.00     0.053 A 
HETATM   19  N   UNL     1       7.838  24.793  54.217  1.00  0.00    -0.264 NA
HETATM   20  C   UNL     1       8.258  23.893  55.136  1.00  0.00     0.118 A 
HETATM   21  C   UNL     1       8.470  22.558  54.862  1.00  0.00     0.043 A 
HETATM   22  C   UNL     1       8.243  22.129  53.564  1.00  0.00     0.037 A 
HETATM   23 CL   UNL     1       8.471  20.472  53.159  1.00  0.00    -0.084 Cl
HETATM   24  C   UNL     1       7.821  23.023  52.587  1.00  0.00     0.052 A 
ENDBRANCH  17  18
ENDBRANCH   3  17
TORSDOF 5
ENDMDL
MODEL 10
REMARK VINA RESULT:      -7.2      5.089      7.890
REMARK  5 active torsions:
REMARK  status: ('A' for Active; 'I' for Inactive)
REMARK    1  A    between atoms: C_2  and  O_3 
REMARK    2  A    between atoms: O_3  and  C_4 
REMARK    3  A    between atoms: C_5  and  N_6 
REMARK       I    between atoms: N_6  and  C_7 
REMARK       I    between atoms: C_7  and  N_8 
REMARK    4  A    between atoms: N_8  and  C_9 
REMARK    5  A    between atoms: C_9  and  C_10 
ROOT
HETATM    1  N   UNL     1       6.497  27.977  53.447  1.00  0.00    -0.306 N 
HETATM    2  C   UNL     1       5.153  28.115  53.238  1.00  0.00     0.321 C 
HETATM    3  N   UNL     1       4.812  28.449  51.954  1.00  0.00    -0.337 N 
HETATM    4  O   UNL     1       4.261  28.009  54.072  1.00  0.00    -0.247 OA
HETATM    5  H   UNL     1       7.026  28.664  52.910  1.00  0.00     0.171 HD
HETATM    6  H   UNL     1       3.805  28.515  51.877  1.00  0.00     0.164 HD
ENDROOT
BRANCH   1   7
HETATM    7  C   UNL     1       7.080  27.507  54.640  1.00  0.00     0.069 A 
HETATM    8  C   UNL     1       7.156  26.152  54.997  1.00  0.00     0.096 A 
HETATM    9  C   UNL     1       7.673  25.786  56.244  1.00  0.00     0.039 A 
HETATM   10  C   UNL     1       8.188  26.754  57.106  1.00  0.00     0.003 A 
HETATM   11  C   UNL     1       8.188  28.092  56.722  1.00  0.00     0.002 A 
HETATM   12  C   UNL     1       7.645  28.466  55.491  1.00  0.00     0.032 A 
BRANCH   8  13
HETATM   13  O   UNL     1       6.771  25.111  54.191  1.00  0.00    -0.344 OA
BRANCH  13  14
HETATM   14  C   UNL     1       7.861  24.494  53.488  1.00  0.00     0.121 C 
HETATM   15  C   UNL     1       7.750  24.930  52.029  1.00  0.00     0.040 C 
HETATM   16  C   UNL     1       7.767  22.973  53.588  1.00  0.00     0.040 C 
ENDBRANCH  13  14
ENDBRANCH   8  13
ENDBRANCH   1   7
BRANCH   3  17
HETATM   17  C   UNL     1       5.522  27.990  50.772  1.00  0.00     0.183 C 
BRANCH  17  18
HETATM   18  C   UNL     1       4.670  27.624  49.566  1.00  0.00     0.053 A 
HETATM   19  N   UNL     1       4.441  28.556  48.600  1.00  0.00    -0.264 NA
HETATM   20  C   UNL     1       3.737  28.177  47.509  1.00  0.00     0.118 A 
HETATM   21  C   UNL     1       3.262  26.898  47.308  1.00  0.00     0.043 A 
HETATM   22  C   UNL     1       3.521  25.958  48.293  1.00  0.00     0.037 A 
HETATM   23 CL   UNL     1       2.973  24.339  48.097  1.00  0.00    -0.084 Cl
HETATM   24  C   UNL     1       4.232  26.310  49.436  1.00  0.00     0.052 A 
ENDBRANCH  17  18
ENDBRANCH   3  17
TORSDOF 5
ENDMDL
