MODEL 1
REMARK VINA RESULT:      -8.5      0.000      0.000
REMARK  6 active torsions:
REMARK  status: ('A' for Active; 'I' for Inactive)
REMARK    1  A    between atoms: C_2  and  O_3 
REMARK    2  A    between atoms: O_3  and  C_4 
REMARK    3  A    between atoms: C_13  and  C_14 
REMARK    4  A    between atoms: C_14  and  N_15 
REMARK    5  A    between atoms: N_15  and  C_16 
REMARK    6  A    between atoms: C_19  and  O_20 
ROOT
HETATM    1  C   UNL     1       9.740  31.097  58.365  1.00  0.00     0.070 A 
HETATM    2  C   UNL     1       8.409  30.670  58.398  1.00  0.00     0.067 A 
HETATM    3  C   UNL     1       7.932  29.796  57.423  1.00  0.00     0.048 A 
HETATM    4  C   UNL     1       8.773  29.333  56.407  1.00  0.00    -0.009 A 
HETATM    5  C   UNL     1      10.105  29.750  56.380  1.00  0.00     0.016 A 
HETATM    6  C   UNL     1      10.587  30.629  57.357  1.00  0.00     0.038 A 
HETATM    7  N   UNL     1       6.598  29.374  57.449  1.00  0.00    -0.322 N 
HETATM    8  C   UNL     1       6.052  28.519  56.528  1.00  0.00     0.253 A 
HETATM    9  O   UNL     1       4.879  28.165  56.608  1.00  0.00    -0.268 OA
HETATM   10  C   UNL     1       6.944  28.040  55.433  1.00  0.00     0.024 A 
HETATM   11  C   UNL     1       8.229  28.435  55.390  1.00  0.00     0.027 A 
HETATM   12  H   UNL     1       5.978  29.690  58.184  1.00  0.00     0.169 HD
ENDROOT
BRANCH  10  13
HETATM   13  C   UNL     1       6.318  27.171  54.379  1.00  0.00     0.136 C 
BRANCH  13  14
HETATM   14  N   UNL     1       5.965  25.889  54.978  1.00  0.00    -0.289 NA
HETATM   15  H   UNL     1       4.962  25.720  54.909  1.00  0.00     0.128 HD
BRANCH  14  16
HETATM   16  C   UNL     1       6.678  24.739  54.613  1.00  0.00     0.008 A 
HETATM   17  C   UNL     1       6.837  24.301  53.295  1.00  0.00     0.026 A 
HETATM   18  C   UNL     1       7.640  23.194  52.993  1.00  0.00     0.038 A 
HETATM   19  C   UNL     1       8.332  22.517  53.995  1.00  0.00     0.068 A 
HETATM   20  C   UNL     1       8.214  22.960  55.308  1.00  0.00     0.038 A 
HETATM   21  C   UNL     1       7.406  24.067  55.605  1.00  0.00     0.026 A 
BRANCH  19  22
HETATM   22  O   UNL     1       9.085  21.461  53.562  1.00  0.00    -0.356 OA
HETATM   23  C   UNL     1       8.395  20.414  52.893  1.00  0.00     0.210 C 
ENDBRANCH  19  22
ENDBRANCH  14  16
ENDBRANCH  13  14
ENDBRANCH  10  13
BRANCH   1  24
HETATM   24  O   UNL     1      10.085  31.963  59.365  1.00  0.00    -0.351 OA
BRANCH  24  25
HETATM   25  C   UNL     1       9.065  32.321  60.298  1.00  0.00     0.171 C 
HETATM   26  C   UNL     1       9.491  31.829  61.670  1.00  0.00     0.034 C 
ENDBRANCH  24  25
ENDBRANCH   1  24
TORSDOF 6
ENDMDL
MODEL 2
REMARK VINA RESULT:      -8.3      5.301      8.357
REMARK  6 active torsions:
REMARK  status: ('A' for Active; 'I' for Inactive)
REMARK    1  A    between atoms: C_2  and  O_3 
REMARK    2  A    between atoms: O_3  and  C_4 
REMARK    3  A    between atoms: C_13  and  C_14 
REMARK    4  A    between atoms: C_14  and  N_15 
REMARK    5  A    between atoms: N_15  and  C_16 
REMARK    6  A    between atoms: C_19  and  O_20 
ROOT
HETATM    1  C   UNL     1       7.661  22.996  54.962  1.00  0.00     0.070 A 
HETATM    2  C   UNL     1       6.745  24.037  55.140  1.00  0.00     0.067 A 
HETATM    3  C   UNL     1       6.423  24.872  54.072  1.00  0.00     0.048 A 
HETATM    4  C   UNL     1       7.003  24.679  52.815  1.00  0.00    -0.009 A 
HETATM    5  C   UNL     1       7.909  23.632  52.634  1.00  0.00     0.016 A 
HETATM    6  C   UNL     1       8.236  22.793  53.705  1.00  0.00     0.038 A 
HETATM    7  N   UNL     1       5.512  25.920  54.249  1.00  0.00    -0.322 N 
HETATM    8  C   UNL     1       5.144  26.785  53.252  1.00  0.00     0.253 A 
HETATM    9  O   UNL     1       4.326  27.678  53.456  1.00  0.00    -0.268 OA
HETATM   10  C   UNL     1       5.779  26.592  51.916  1.00  0.00     0.024 A 
HETATM   11  C   UNL     1       6.657  25.591  51.726  1.00  0.00     0.027 A 
HETATM   12  H   UNL     1       5.074  26.068  55.149  1.00  0.00     0.169 HD
ENDROOT
BRANCH  10  13
HETATM   13  C   UNL     1       5.436  27.594  50.851  1.00  0.00     0.136 C 
BRANCH  13  14
HETATM   14  N   UNL     1       5.225  26.888  49.592  1.00  0.00    -0.289 NA
HETATM   15  H   UNL     1       5.511  25.912  49.671  1.00  0.00     0.128 HD
BRANCH  14  16
HETATM   16  C   UNL     1       3.982  26.980  48.951  1.00  0.00     0.008 A 
HETATM   17  C   UNL     1       3.459  25.993  48.111  1.00  0.00     0.026 A 
HETATM   18  C   UNL     1       2.170  26.107  47.576  1.00  0.00     0.038 A 
HETATM   19  C   UNL     1       1.357  27.194  47.893  1.00  0.00     0.068 A 
HETATM   20  C   UNL     1       1.848  28.169  48.756  1.00  0.00     0.038 A 
HETATM   21  C   UNL     1       3.140  28.050  49.286  1.00  0.00     0.026 A 
BRANCH  19  22
HETATM   22  O   UNL     1       0.120  27.178  47.310  1.00  0.00    -0.356 OA
HETATM   23  C   UNL     1       0.048  27.585  45.950  1.00  0.00     0.210 C 
ENDBRANCH  19  22
ENDBRANCH  14  16
ENDBRANCH  13  14
ENDBRANCH  10  13
BRANCH   1  24
HETATM   24  O   UNL     1       7.906  22.255  56.085  1.00  0.00    -0.351 OA
BRANCH  24  25
HETATM   25  C   UNL     1       7.793  20.837  55.967  1.00  0.00     0.171 C 
HETATM   26  C   UNL     1       9.162  20.234  56.232  1.00  0.00     0.034 C 
ENDBRANCH  24  25
ENDBRANCH   1  24
TORSDOF 6
ENDMDL
MODEL 3
REMARK VINA RESULT:      -7.9      1.868      8.979
REMARK  6 active torsions:
REMARK  status: ('A' for Active; 'I' for Inactive)
REMARK    1  A    between atoms: C_2  and  O_3 
REMARK    2  A    between atoms: O_3  and  C_4 
REMARK    3  A    between atoms: C_13  and  C_14 
REMARK    4  A    between atoms: C_14  and  N_15 
REMARK    5  A    between atoms: N_15  and  C_16 
REMARK    6  A    between atoms: C_19  and  O_20 
ROOT
HETATM    1  C   UNL     1       7.911  23.233  55.637  1.00  0.00     0.070 A 
HETATM    2  C   UNL     1       7.302  24.318  54.999  1.00  0.00     0.067 A 
HETATM    3  C   UNL     1       7.357  25.586  55.574  1.00  0.00     0.048 A 
HETATM    4  C   UNL     1       8.020  25.791  56.787  1.00  0.00    -0.009 A 
HETATM    5  C   UNL     1       8.639  24.710  57.419  1.00  0.00     0.016 A 
HETATM    6  C   UNL     1       8.584  23.435  56.844  1.00  0.00     0.038 A 
HETATM    7  N   UNL     1       6.741  26.672  54.941  1.00  0.00    -0.322 N 
HETATM    8  C   UNL     1       6.748  27.948  55.442  1.00  0.00     0.253 A 
HETATM    9  O   UNL     1       6.208  28.870  54.837  1.00  0.00    -0.268 OA
HETATM   10  C   UNL     1       7.439  28.163  56.746  1.00  0.00     0.024 A 
HETATM   11  C   UNL     1       8.036  27.131  57.370  1.00  0.00     0.027 A 
HETATM   12  H   UNL     1       6.266  26.544  54.057  1.00  0.00     0.169 HD
ENDROOT
BRANCH  10  13
HETATM   13  C   UNL     1       7.370  29.545  57.330  1.00  0.00     0.136 C 
BRANCH  13  14
HETATM   14  N   UNL     1       8.350  29.649  58.407  1.00  0.00    -0.289 NA
HETATM   15  H   UNL     1       9.282  29.823  58.033  1.00  0.00     0.128 HD
BRANCH  14  16
HETATM   16  C   UNL     1       8.093  30.499  59.491  1.00  0.00     0.008 A 
HETATM   17  C   UNL     1       8.883  30.560  60.642  1.00  0.00     0.026 A 
HETATM   18  C   UNL     1       8.623  31.499  61.648  1.00  0.00     0.038 A 
HETATM   19  C   UNL     1       7.588  32.424  61.515  1.00  0.00     0.068 A 
HETATM   20  C   UNL     1       6.814  32.401  60.359  1.00  0.00     0.038 A 
HETATM   21  C   UNL     1       7.078  31.457  59.357  1.00  0.00     0.026 A 
BRANCH  19  22
HETATM   22  O   UNL     1       7.450  33.288  62.565  1.00  0.00    -0.356 OA
HETATM   23  C   UNL     1       7.860  32.816  63.841  1.00  0.00     0.210 C 
ENDBRANCH  19  22
ENDBRANCH  14  16
ENDBRANCH  13  14
ENDBRANCH  10  13
BRANCH   1  24
HETATM   24  O   UNL     1       7.777  22.039  54.983  1.00  0.00    -0.351 OA
BRANCH  24  25
HETATM   25  C   UNL     1       7.760  22.078  53.556  1.00  0.00     0.171 C 
HETATM   26  C   UNL     1       8.169  20.707  53.045  1.00  0.00     0.034 C 
ENDBRANCH  24  25
ENDBRANCH   1  24
TORSDOF 6
ENDMDL
MODEL 4
REMARK VINA RESULT:      -7.9      3.720      6.632
REMARK  6 active torsions:
REMARK  status: ('A' for Active; 'I' for Inactive)
REMARK    1  A    between atoms: C_2  and  O_3 
REMARK    2  A    between atoms: O_3  and  C_4 
REMARK    3  A    between atoms: C_13  and  C_14 
REMARK    4  A    between atoms: C_14  and  N_15 
REMARK    5  A    between atoms: N_15  and  C_16 
REMARK    6  A    between atoms: C_19  and  O_20 
ROOT
HETATM    1  C   UNL     1       6.146  34.286  64.096  1.00  0.00     0.070 A 
HETATM    2  C   UNL     1       5.826  34.073  62.752  1.00  0.00     0.067 A 
HETATM    3  C   UNL     1       6.625  33.245  61.967  1.00  0.00     0.048 A 
HETATM    4  C   UNL     1       7.749  32.616  62.510  1.00  0.00    -0.009 A 
HETATM    5  C   UNL     1       8.063  32.818  63.855  1.00  0.00     0.016 A 
HETATM    6  C   UNL     1       7.263  33.651  64.645  1.00  0.00     0.038 A 
HETATM    7  N   UNL     1       6.312  33.037  60.619  1.00  0.00    -0.322 N 
HETATM    8  C   UNL     1       7.047  32.240  59.781  1.00  0.00     0.253 A 
HETATM    9  O   UNL     1       6.717  32.076  58.609  1.00  0.00    -0.268 OA
HETATM   10  C   UNL     1       8.257  31.584  60.354  1.00  0.00     0.024 A 
HETATM   11  C   UNL     1       8.576  31.773  61.648  1.00  0.00     0.027 A 
HETATM   12  H   UNL     1       5.496  33.475  60.212  1.00  0.00     0.169 HD
ENDROOT
BRANCH  10  13
HETATM   13  C   UNL     1       9.105  30.781  59.410  1.00  0.00     0.136 C 
BRANCH  13  14
HETATM   14  N   UNL     1       8.457  29.495  59.175  1.00  0.00    -0.289 NA
HETATM   15  H   UNL     1       7.591  29.423  59.707  1.00  0.00     0.128 HD
BRANCH  14  16
HETATM   16  C   UNL     1       8.258  29.055  57.859  1.00  0.00     0.008 A 
HETATM   17  C   UNL     1       7.125  28.359  57.430  1.00  0.00     0.026 A 
HETATM   18  C   UNL     1       6.948  28.030  56.080  1.00  0.00     0.038 A 
HETATM   19  C   UNL     1       7.881  28.416  55.120  1.00  0.00     0.068 A 
HETATM   20  C   UNL     1       8.998  29.141  55.524  1.00  0.00     0.038 A 
HETATM   21  C   UNL     1       9.171  29.465  56.877  1.00  0.00     0.026 A 
BRANCH  19  22
HETATM   22  O   UNL     1       7.582  28.038  53.841  1.00  0.00    -0.356 OA
HETATM   23  C   UNL     1       6.230  28.185  53.429  1.00  0.00     0.210 C 
ENDBRANCH  19  22
ENDBRANCH  14  16
ENDBRANCH  13  14
ENDBRANCH  10  13
BRANCH   1  24
HETATM   24  O   UNL     1       5.295  35.128  64.758  1.00  0.00    -0.351 OA
BRANCH  24  25
HETATM   25  C   UNL     1       4.105  34.556  65.300  1.00  0.00     0.171 C 
HETATM   26  C   UNL     1       4.376  34.200  66.752  1.00  0.00     0.034 C 
ENDBRANCH  24  25
ENDBRANCH   1  24
TORSDOF 6
ENDMDL
MODEL 5
REMARK VINA RESULT:      -7.8      1.488      8.627
REMARK  6 active torsions:
REMARK  status: ('A' for Active; 'I' for Inactive)
REMARK    1  A    between atoms: C_2  and  O_3 
REMARK    2  A    between atoms: O_3  and  C_4 
REMARK    3  A    between atoms: C_13  and  C_14 
REMARK    4  A    between atoms: C_14  and  N_15 
REMARK    5  A    between atoms: N_15  and  C_16 
REMARK    6  A    between atoms: C_19  and  O_20 
ROOT
HETATM    1  C   UNL     1       7.752  22.048  55.474  1.00  0.00     0.070 A 
HETATM    2  C   UNL     1       7.247  23.014  54.600  1.00  0.00     0.067 A 
HETATM    3  C   UNL     1       7.333  24.366  54.928  1.00  0.00     0.048 A 
HETATM    4  C   UNL     1       7.926  24.772  56.127  1.00  0.00    -0.009 A 
HETATM    5  C   UNL     1       8.442  23.808  56.995  1.00  0.00     0.016 A 
HETATM    6  C   UNL     1       8.355  22.450  56.669  1.00  0.00     0.038 A 
HETATM    7  N   UNL     1       6.821  25.335  54.058  1.00  0.00    -0.322 N 
HETATM    8  C   UNL     1       6.864  26.681  54.307  1.00  0.00     0.253 A 
HETATM    9  O   UNL     1       6.416  27.491  53.501  1.00  0.00    -0.268 OA
HETATM   10  C   UNL     1       7.479  27.114  55.596  1.00  0.00     0.024 A 
HETATM   11  C   UNL     1       7.977  26.198  56.445  1.00  0.00     0.027 A 
HETATM   12  H   UNL     1       6.398  25.059  53.181  1.00  0.00     0.169 HD
ENDROOT
BRANCH  10  13
HETATM   13  C   UNL     1       7.448  28.584  55.902  1.00  0.00     0.136 C 
BRANCH  13  14
HETATM   14  N   UNL     1       8.813  29.045  56.130  1.00  0.00    -0.289 NA
HETATM   15  H   UNL     1       9.186  29.501  55.297  1.00  0.00     0.128 HD
BRANCH  14  16
HETATM   16  C   UNL     1       9.101  29.806  57.271  1.00  0.00     0.008 A 
HETATM   17  C   UNL     1      10.147  30.729  57.353  1.00  0.00     0.026 A 
HETATM   18  C   UNL     1      10.323  31.524  58.493  1.00  0.00     0.038 A 
HETATM   19  C   UNL     1       9.437  31.440  59.567  1.00  0.00     0.068 A 
HETATM   20  C   UNL     1       8.370  30.552  59.488  1.00  0.00     0.038 A 
HETATM   21  C   UNL     1       8.201  29.758  58.345  1.00  0.00     0.026 A 
BRANCH  19  22
HETATM   22  O   UNL     1       9.719  32.277  60.611  1.00  0.00    -0.356 OA
HETATM   23  C   UNL     1       9.094  31.984  61.853  1.00  0.00     0.210 C 
ENDBRANCH  19  22
ENDBRANCH  14  16
ENDBRANCH  13  14
ENDBRANCH  10  13
BRANCH   1  24
HETATM   24  O   UNL     1       7.597  20.757  55.049  1.00  0.00    -0.351 OA
BRANCH  24  25
HETATM   25  C   UNL     1       8.713  20.147  54.401  1.00  0.00     0.171 C 
HETATM   26  C   UNL     1       8.527  20.302  52.902  1.00  0.00     0.034 C 
ENDBRANCH  24  25
ENDBRANCH   1  24
TORSDOF 6
ENDMDL
MODEL 6
REMARK VINA RESULT:      -7.7      7.153     13.642
REMARK  6 active torsions:
REMARK  status: ('A' for Active; 'I' for Inactive)
REMARK    1  A    between atoms: C_2  and  O_3 
REMARK    2  A    between atoms: O_3  and  C_4 
REMARK    3  A    between atoms: C_13  and  C_14 
REMARK    4  A    between atoms: C_14  and  N_15 
REMARK    5  A    between atoms: N_15  and  C_16 
REMARK    6  A    between atoms: C_19  and  O_20 
ROOT
HETATM    1  C   UNL     1       7.817  32.106  60.449  1.00  0.00     0.070 A 
HETATM    2  C   UNL     1       6.551  32.482  60.906  1.00  0.00     0.067 A 
HETATM    3  C   UNL     1       6.372  32.856  62.237  1.00  0.00     0.048 A 
HETATM    4  C   UNL     1       7.450  32.864  63.126  1.00  0.00    -0.009 A 
HETATM    5  C   UNL     1       8.718  32.499  62.667  1.00  0.00     0.016 A 
HETATM    6  C   UNL     1       8.900  32.122  61.332  1.00  0.00     0.038 A 
HETATM    7  N   UNL     1       5.103  33.225  62.699  1.00  0.00    -0.322 N 
HETATM    8  C   UNL     1       4.845  33.603  63.991  1.00  0.00     0.253 A 
HETATM    9  O   UNL     1       3.716  33.936  64.340  1.00  0.00    -0.268 OA
HETATM   10  C   UNL     1       5.991  33.593  64.945  1.00  0.00     0.024 A 
HETATM   11  C   UNL     1       7.218  33.240  64.519  1.00  0.00     0.027 A 
HETATM   12  H   UNL     1       4.314  33.236  62.067  1.00  0.00     0.169 HD
ENDROOT
BRANCH  10  13
HETATM   13  C   UNL     1       5.685  33.926  66.377  1.00  0.00     0.136 C 
BRANCH  13  14
HETATM   14  N   UNL     1       6.914  34.361  67.031  1.00  0.00    -0.289 NA
HETATM   15  H   UNL     1       7.333  35.144  66.531  1.00  0.00     0.128 HD
BRANCH  14  16
HETATM   16  C   UNL     1       6.909  34.611  68.411  1.00  0.00     0.008 A 
HETATM   17  C   UNL     1       5.773  34.516  69.219  1.00  0.00     0.026 A 
HETATM   18  C   UNL     1       5.856  34.690  70.606  1.00  0.00     0.038 A 
HETATM   19  C   UNL     1       7.082  34.928  71.225  1.00  0.00     0.068 A 
HETATM   20  C   UNL     1       8.229  34.990  70.440  1.00  0.00     0.038 A 
HETATM   21  C   UNL     1       8.138  34.818  69.052  1.00  0.00     0.026 A 
BRANCH  19  22
HETATM   22  O   UNL     1       7.022  35.069  72.584  1.00  0.00    -0.356 OA
HETATM   23  C   UNL     1       5.772  34.800  73.202  1.00  0.00     0.210 C 
ENDBRANCH  19  22
ENDBRANCH  14  16
ENDBRANCH  13  14
ENDBRANCH  10  13
BRANCH   1  24
HETATM   24  O   UNL     1       7.863  31.748  59.130  1.00  0.00    -0.351 OA
BRANCH  24  25
HETATM   25  C   UNL     1       8.106  30.372  58.837  1.00  0.00     0.171 C 
HETATM   26  C   UNL     1       9.421  30.277  58.084  1.00  0.00     0.034 C 
ENDBRANCH  24  25
ENDBRANCH   1  24
TORSDOF 6
ENDMDL
MODEL 7
REMARK VINA RESULT:      -7.5      3.338      9.834
REMARK  6 active torsions:
REMARK  status: ('A' for Active; 'I' for Inactive)
REMARK    1  A    between atoms: C_2  and  O_3 
REMARK    2  A    between atoms: O_3  and  C_4 
REMARK    3  A    between atoms: C_13  and  C_14 
REMARK    4  A    between atoms: C_14  and  N_15 
REMARK    5  A    between atoms: N_15  and  C_16 
REMARK    6  A    between atoms: C_19  and  O_20 
ROOT
HETATM    1  C   UNL     1       6.501  27.944  55.262  1.00  0.00     0.070 A 
HETATM    2  C   UNL     1       6.052  29.169  55.765  1.00  0.00     0.067 A 
HETATM    3  C   UNL     1       6.649  29.719  56.897  1.00  0.00     0.048 A 
HETATM    4  C   UNL     1       7.703  29.061  57.539  1.00  0.00    -0.009 A 
HETATM    5  C   UNL     1       8.160  27.844  57.029  1.00  0.00     0.016 A 
HETATM    6  C   UNL     1       7.561  27.288  55.894  1.00  0.00     0.038 A 
HETATM    7  N   UNL     1       6.196  30.941  57.409  1.00  0.00    -0.322 N 
HETATM    8  C   UNL     1       6.728  31.547  58.516  1.00  0.00     0.253 A 
HETATM    9  O   UNL     1       6.305  32.629  58.912  1.00  0.00    -0.268 OA
HETATM   10  C   UNL     1       7.839  30.836  59.213  1.00  0.00     0.024 A 
HETATM   11  C   UNL     1       8.288  29.660  58.737  1.00  0.00     0.027 A 
HETATM   12  H   UNL     1       5.442  31.436  56.950  1.00  0.00     0.169 HD
ENDROOT
BRANCH  10  13
HETATM   13  C   UNL     1       8.361  31.463  60.474  1.00  0.00     0.136 C 
BRANCH  13  14
HETATM   14  N   UNL     1       7.682  30.857  61.614  1.00  0.00    -0.289 NA
HETATM   15  H   UNL     1       8.232  30.090  61.999  1.00  0.00     0.128 HD
BRANCH  14  16
HETATM   16  C   UNL     1       7.204  31.677  62.646  1.00  0.00     0.008 A 
HETATM   17  C   UNL     1       8.020  32.475  63.453  1.00  0.00     0.026 A 
HETATM   18  C   UNL     1       7.468  33.342  64.405  1.00  0.00     0.038 A 
HETATM   19  C   UNL     1       6.086  33.458  64.552  1.00  0.00     0.068 A 
HETATM   20  C   UNL     1       5.259  32.698  63.733  1.00  0.00     0.038 A 
HETATM   21  C   UNL     1       5.817  31.831  62.783  1.00  0.00     0.026 A 
BRANCH  19  22
HETATM   22  O   UNL     1       5.683  34.345  65.511  1.00  0.00    -0.356 OA
HETATM   23  C   UNL     1       4.439  34.081  66.145  1.00  0.00     0.210 C 
ENDBRANCH  19  22
ENDBRANCH  14  16
ENDBRANCH  13  14
ENDBRANCH  10  13
BRANCH   1  24
HETATM   24  O   UNL     1       5.828  27.501  54.157  1.00  0.00    -0.351 OA
BRANCH  24  25
HETATM   25  C   UNL     1       6.090  26.165  53.728  1.00  0.00     0.171 C 
HETATM   26  C   UNL     1       4.863  25.661  52.988  1.00  0.00     0.034 C 
ENDBRANCH  24  25
ENDBRANCH   1  24
TORSDOF 6
ENDMDL
MODEL 8
REMARK VINA RESULT:      -7.4      5.751     11.335
REMARK  6 active torsions:
REMARK  status: ('A' for Active; 'I' for Inactive)
REMARK    1  A    between atoms: C_2  and  O_3 
REMARK    2  A    between atoms: O_3  and  C_4 
REMARK    3  A    between atoms: C_13  and  C_14 
REMARK    4  A    between atoms: C_14  and  N_15 
REMARK    5  A    between atoms: N_15  and  C_16 
REMARK    6  A    between atoms: C_19  and  O_20 
ROOT
HETATM    1  C   UNL     1       9.016  31.032  59.694  1.00  0.00     0.070 A 
HETATM    2  C   UNL     1       7.665  31.098  60.044  1.00  0.00     0.067 A 
HETATM    3  C   UNL     1       7.283  31.697  61.243  1.00  0.00     0.048 A 
HETATM    4  C   UNL     1       8.240  32.241  62.105  1.00  0.00    -0.009 A 
HETATM    5  C   UNL     1       9.589  32.186  61.750  1.00  0.00     0.016 A 
HETATM    6  C   UNL     1       9.975  31.584  60.547  1.00  0.00     0.038 A 
HETATM    7  N   UNL     1       5.931  31.757  61.600  1.00  0.00    -0.322 N 
HETATM    8  C   UNL     1       5.475  32.326  62.760  1.00  0.00     0.253 A 
HETATM    9  O   UNL     1       4.275  32.369  63.016  1.00  0.00    -0.268 OA
HETATM   10  C   UNL     1       6.497  32.890  63.689  1.00  0.00     0.024 A 
HETATM   11  C   UNL     1       7.801  32.841  63.363  1.00  0.00     0.027 A 
HETATM   12  H   UNL     1       5.224  31.378  60.983  1.00  0.00     0.169 HD
ENDROOT
BRANCH  10  13
HETATM   13  C   UNL     1       5.998  33.436  64.996  1.00  0.00     0.136 C 
BRANCH  13  14
HETATM   14  N   UNL     1       6.237  34.875  65.025  1.00  0.00    -0.289 NA
HETATM   15  H   UNL     1       7.233  35.079  64.948  1.00  0.00     0.128 HD
BRANCH  14  16
HETATM   16  C   UNL     1       5.502  35.712  64.174  1.00  0.00     0.008 A 
HETATM   17  C   UNL     1       6.063  36.461  63.136  1.00  0.00     0.026 A 
HETATM   18  C   UNL     1       5.259  37.206  62.265  1.00  0.00     0.038 A 
HETATM   19  C   UNL     1       3.870  37.194  62.387  1.00  0.00     0.068 A 
HETATM   20  C   UNL     1       3.292  36.426  63.392  1.00  0.00     0.038 A 
HETATM   21  C   UNL     1       4.103  35.685  64.263  1.00  0.00     0.026 A 
BRANCH  19  22
HETATM   22  O   UNL     1       3.205  37.957  61.467  1.00  0.00    -0.356 OA
HETATM   23  C   UNL     1       3.092  37.424  60.155  1.00  0.00     0.210 C 
ENDBRANCH  19  22
ENDBRANCH  14  16
ENDBRANCH  13  14
ENDBRANCH  10  13
BRANCH   1  24
HETATM   24  O   UNL     1       9.266  30.409  58.502  1.00  0.00    -0.351 OA
BRANCH  24  25
HETATM   25  C   UNL     1      10.395  30.862  57.756  1.00  0.00     0.171 C 
HETATM   26  C   UNL     1      10.895  29.703  56.911  1.00  0.00     0.034 C 
ENDBRANCH  24  25
ENDBRANCH   1  24
TORSDOF 6
ENDMDL
MODEL 9
REMARK VINA RESULT:      -7.4      4.847      7.840
REMARK  6 active torsions:
REMARK  status: ('A' for Active; 'I' for Inactive)
REMARK    1  A    between atoms: C_2  and  O_3 
REMARK    2  A    between atoms: O_3  and  C_4 
REMARK    3  A    between atoms: C_13  and  C_14 
REMARK    4  A    between atoms: C_14  and  N_15 
REMARK    5  A    between atoms: N_15  and  C_16 
REMARK    6  A    between atoms: C_19  and  O_20 
ROOT
HETATM    1  C   UNL     1       5.641  33.929  66.165  1.00  0.00     0.070 A 
HETATM    2  C   UNL     1       4.711  33.583  65.181  1.00  0.00     0.067 A 
HETATM    3  C   UNL     1       5.143  33.249  63.899  1.00  0.00     0.048 A 
HETATM    4  C   UNL     1       6.504  33.250  63.582  1.00  0.00    -0.009 A 
HETATM    5  C   UNL     1       7.435  33.585  64.567  1.00  0.00     0.016 A 
HETATM    6  C   UNL     1       7.004  33.923  65.855  1.00  0.00     0.038 A 
HETATM    7  N   UNL     1       4.212  32.909  62.910  1.00  0.00    -0.322 N 
HETATM    8  C   UNL     1       4.554  32.571  61.627  1.00  0.00     0.253 A 
HETATM    9  O   UNL     1       3.699  32.263  60.802  1.00  0.00    -0.268 OA
HETATM   10  C   UNL     1       6.006  32.592  61.282  1.00  0.00     0.024 A 
HETATM   11  C   UNL     1       6.915  32.916  62.219  1.00  0.00     0.027 A 
HETATM   12  H   UNL     1       3.224  32.892  63.125  1.00  0.00     0.169 HD
ENDROOT
BRANCH  10  13
HETATM   13  C   UNL     1       6.368  32.302  59.854  1.00  0.00     0.136 C 
BRANCH  13  14
HETATM   14  N   UNL     1       7.193  31.100  59.813  1.00  0.00    -0.289 NA
HETATM   15  H   UNL     1       6.957  30.472  60.581  1.00  0.00     0.128 HD
BRANCH  14  16
HETATM   16  C   UNL     1       7.305  30.382  58.615  1.00  0.00     0.008 A 
HETATM   17  C   UNL     1       6.405  30.489  57.551  1.00  0.00     0.026 A 
HETATM   18  C   UNL     1       6.627  29.812  56.345  1.00  0.00     0.038 A 
HETATM   19  C   UNL     1       7.771  29.037  56.159  1.00  0.00     0.068 A 
HETATM   20  C   UNL     1       8.695  28.947  57.195  1.00  0.00     0.038 A 
HETATM   21  C   UNL     1       8.466  29.625  58.400  1.00  0.00     0.026 A 
BRANCH  19  22
HETATM   22  O   UNL     1       7.867  28.438  54.934  1.00  0.00    -0.356 OA
HETATM   23  C   UNL     1       7.414  27.095  54.840  1.00  0.00     0.210 C 
ENDBRANCH  19  22
ENDBRANCH  14  16
ENDBRANCH  13  14
ENDBRANCH  10  13
BRANCH   1  24
HETATM   24  O   UNL     1       5.096  34.251  67.377  1.00  0.00    -0.351 OA
BRANCH  24  25
HETATM   25  C   UNL     1       5.896  35.033  68.264  1.00  0.00     0.171 C 
HETATM   26  C   UNL     1       6.196  34.190  69.491  1.00  0.00     0.034 C 
ENDBRANCH  24  25
ENDBRANCH   1  24
TORSDOF 6
ENDMDL
MODEL 10
REMARK VINA RESULT:      -7.3      2.443      3.674
REMARK  6 active torsions:
REMARK  status: ('A' for Active; 'I' for Inactive)
REMARK    1  A    between atoms: C_2  and  O_3 
REMARK    2  A    between atoms: O_3  and  C_4 
REMARK    3  A    between atoms: C_13  and  C_14 
REMARK    4  A    between atoms: C_14  and  N_15 
REMARK    5  A    between atoms: N_15  and  C_16 
REMARK    6  A    between atoms: C_19  and  O_20 
ROOT
HETATM    1  C   UNL     1       7.369  32.817  61.930  1.00  0.00     0.070 A 
HETATM    2  C   UNL     1       6.571  32.539  60.817  1.00  0.00     0.067 A 
HETATM    3  C   UNL     1       6.977  31.583  59.887  1.00  0.00     0.048 A 
HETATM    4  C   UNL     1       8.180  30.891  60.057  1.00  0.00    -0.009 A 
HETATM    5  C   UNL     1       8.972  31.160  61.174  1.00  0.00     0.016 A 
HETATM    6  C   UNL     1       8.567  32.120  62.108  1.00  0.00     0.038 A 
HETATM    7  N   UNL     1       6.184  31.308  58.768  1.00  0.00    -0.322 N 
HETATM    8  C   UNL     1       6.513  30.387  57.809  1.00  0.00     0.253 A 
HETATM    9  O   UNL     1       5.771  30.170  56.855  1.00  0.00    -0.268 OA
HETATM   10  C   UNL     1       7.806  29.661  57.979  1.00  0.00     0.024 A 
HETATM   11  C   UNL     1       8.583  29.912  59.048  1.00  0.00     0.027 A 
HETATM   12  H   UNL     1       5.305  31.792  58.635  1.00  0.00     0.169 HD
ENDROOT
BRANCH  10  13
HETATM   13  C   UNL     1       8.201  28.715  56.882  1.00  0.00     0.136 C 
BRANCH  13  14
HETATM   14  N   UNL     1       7.266  27.595  56.868  1.00  0.00    -0.289 NA
HETATM   15  H   UNL     1       6.447  27.814  56.302  1.00  0.00     0.128 HD
BRANCH  14  16
HETATM   16  C   UNL     1       7.735  26.309  56.569  1.00  0.00     0.008 A 
HETATM   17  C   UNL     1       8.451  25.509  57.463  1.00  0.00     0.026 A 
HETATM   18  C   UNL     1       8.811  24.197  57.131  1.00  0.00     0.038 A 
HETATM   19  C   UNL     1       8.436  23.639  55.910  1.00  0.00     0.068 A 
HETATM   20  C   UNL     1       7.692  24.409  55.022  1.00  0.00     0.038 A 
HETATM   21  C   UNL     1       7.337  25.722  55.359  1.00  0.00     0.026 A 
BRANCH  19  22
HETATM   22  O   UNL     1       8.844  22.348  55.717  1.00  0.00    -0.356 OA
HETATM   23  C   UNL     1       9.160  21.969  54.385  1.00  0.00     0.210 C 
ENDBRANCH  19  22
ENDBRANCH  14  16
ENDBRANCH  13  14
ENDBRANCH  10  13
BRANCH   1  24
HETATM   24  O   UNL     1       6.871  33.782  62.761  1.00  0.00    -0.351 OA
BRANCH  24  25
HETATM   25  C   UNL     1       5.674  34.441  62.350  1.00  0.00     0.171 C 
HETATM   26  C   UNL     1       5.701  35.854  62.904  1.00  0.00     0.034 C 
ENDBRANCH  24  25
ENDBRANCH   1  24
TORSDOF 6
ENDMDL
