MODEL 1
REMARK VINA RESULT:     -10.7      0.000      0.000
REMARK  7 active torsions:
REMARK  status: ('A' for Active; 'I' for Inactive)
REMARK    1  A    between atoms: C_2  and  N_3 
REMARK    2  A    between atoms: C_2  and  C_26 
REMARK       I    between atoms: N_3  and  C_4 
REMARK    3  A    between atoms: C_4  and  C_5 
REMARK    4  A    between atoms: C_8  and  C_9 
REMARK       I    between atoms: C_9  and  N_10 
REMARK    5  A    between atoms: N_10  and  C_11 
REMARK    6  A    between atoms: N_20  and  C_21 
REMARK    7  A    between atoms: C_28  and  O_29 
ROOT
HETATM    1  C   UNL     1       7.235  29.743  58.082  1.00  0.00     0.098 A 
HETATM    2  C   UNL     1       7.144  28.280  57.790  1.00  0.00     0.206 A 
HETATM    3  O   UNL     1       7.941  27.489  58.300  1.00  0.00    -0.286 OA
HETATM    4  C   UNL     1       6.082  27.795  56.858  1.00  0.00     0.098 A 
HETATM    5  C   UNL     1       5.275  28.728  56.323  1.00  0.00     0.112 A 
HETATM    6  N   UNL     1       5.366  30.076  56.606  1.00  0.00    -0.360 N 
HETATM    7  C   UNL     1       6.353  30.539  57.455  1.00  0.00     0.112 A 
ENDROOT
BRANCH   1   8
HETATM    8  C   UNL     1       8.237  30.356  59.001  1.00  0.00     0.257 C 
HETATM    9  N   UNL     1       7.778  30.624  60.262  1.00  0.00    -0.348 N 
HETATM   10  H   UNL     1       6.795  30.443  60.466  1.00  0.00     0.163 HD
HETATM   11  O   UNL     1       9.384  30.599  58.637  1.00  0.00    -0.267 OA
BRANCH   9  12
HETATM   12  C   UNL     1       8.577  31.243  61.306  1.00  0.00     0.114 C 
HETATM   13  C   UNL     1       9.507  30.234  61.985  1.00  0.00     0.037 C 
BRANCH  12  14
HETATM   14  C   UNL     1       7.667  31.907  62.328  1.00  0.00    -0.033 A 
HETATM   15  C   UNL     1       6.268  31.826  62.188  1.00  0.00     0.046 A 
HETATM   16  C   UNL     1       5.422  32.428  63.123  1.00  0.00     0.068 A 
HETATM   17  C   UNL     1       5.974  33.105  64.214  1.00  0.00     0.037 A 
HETATM   18  C   UNL     1       7.355  33.196  64.367  1.00  0.00     0.003 A 
HETATM   19  C   UNL     1       8.197  32.605  63.427  1.00  0.00     0.009 A 
BRANCH  16  20
HETATM   20  O   UNL     1       4.054  32.426  63.092  1.00  0.00    -0.356 OA
HETATM   21  C   UNL     1       3.425  33.459  62.346  1.00  0.00     0.210 C 
ENDBRANCH  16  20
ENDBRANCH  12  14
ENDBRANCH   9  12
ENDBRANCH   1   8
BRANCH   4  22
HETATM   22  C   UNL     1       5.875  26.363  56.497  1.00  0.00     0.257 C 
HETATM   23  N   UNL     1       6.809  25.848  55.634  1.00  0.00    -0.352 N 
HETATM   24  H   UNL     1       7.605  26.439  55.395  1.00  0.00     0.163 HD
HETATM   25  O   UNL     1       4.940  25.712  56.951  1.00  0.00    -0.267 OA
BRANCH  23  26
HETATM   26  C   UNL     1       6.931  24.428  55.311  1.00  0.00     0.084 C 
HETATM   27  C   UNL     1       7.175  24.303  53.802  1.00  0.00     0.025 C 
HETATM   28  C   UNL     1       7.475  22.899  53.281  1.00  0.00     0.002 C 
HETATM   29  C   UNL     1       8.875  22.426  53.655  1.00  0.00     0.000 C 
HETATM   30  C   UNL     1       8.984  21.749  55.018  1.00  0.00     0.000 C 
HETATM   31  C   UNL     1       8.096  22.298  56.130  1.00  0.00     0.002 C 
HETATM   32  C   UNL     1       8.028  23.819  56.200  1.00  0.00     0.025 C 
ENDBRANCH  23  26
ENDBRANCH   4  22
BRANCH   6  33
HETATM   33  C   UNL     1       4.568  31.032  55.827  1.00  0.00     0.089 A 
HETATM   34  C   UNL     1       3.512  30.571  54.856  1.00  0.00     0.028 A 
HETATM   35  C   UNL     1       3.109  31.280  56.113  1.00  0.00     0.028 A 
ENDBRANCH   6  33
TORSDOF 7
ENDMDL
MODEL 2
REMARK VINA RESULT:      -9.8      1.666      9.649
REMARK  7 active torsions:
REMARK  status: ('A' for Active; 'I' for Inactive)
REMARK    1  A    between atoms: C_2  and  N_3 
REMARK    2  A    between atoms: C_2  and  C_26 
REMARK       I    between atoms: N_3  and  C_4 
REMARK    3  A    between atoms: C_4  and  C_5 
REMARK    4  A    between atoms: C_8  and  C_9 
REMARK       I    between atoms: C_9  and  N_10 
REMARK    5  A    between atoms: N_10  and  C_11 
REMARK    6  A    between atoms: N_20  and  C_21 
REMARK    7  A    between atoms: C_28  and  O_29 
ROOT
HETATM    1  C   UNL     1       5.775  27.975  56.899  1.00  0.00     0.098 A 
HETATM    2  C   UNL     1       6.604  28.845  57.788  1.00  0.00     0.206 A 
HETATM    3  O   UNL     1       7.516  28.363  58.464  1.00  0.00    -0.286 OA
HETATM    4  C   UNL     1       6.300  30.307  57.855  1.00  0.00     0.098 A 
HETATM    5  C   UNL     1       5.271  30.744  57.109  1.00  0.00     0.112 A 
HETATM    6  N   UNL     1       4.516  29.931  56.288  1.00  0.00    -0.360 N 
HETATM    7  C   UNL     1       4.778  28.576  56.228  1.00  0.00     0.112 A 
ENDROOT
BRANCH   1   8
HETATM    8  C   UNL     1       5.980  26.508  56.731  1.00  0.00     0.257 C 
HETATM    9  N   UNL     1       7.288  26.108  56.678  1.00  0.00    -0.348 N 
HETATM   10  H   UNL     1       8.012  26.826  56.701  1.00  0.00     0.163 HD
HETATM   11  O   UNL     1       5.035  25.729  56.645  1.00  0.00    -0.267 OA
BRANCH   9  12
HETATM   12  C   UNL     1       7.713  24.731  56.494  1.00  0.00     0.114 C 
HETATM   13  C   UNL     1       9.063  24.457  57.161  1.00  0.00     0.037 C 
BRANCH  12  14
HETATM   14  C   UNL     1       7.771  24.404  55.009  1.00  0.00    -0.033 A 
HETATM   15  C   UNL     1       7.885  23.067  54.583  1.00  0.00     0.046 A 
HETATM   16  C   UNL     1       7.936  22.754  53.222  1.00  0.00     0.068 A 
HETATM   17  C   UNL     1       7.857  23.780  52.277  1.00  0.00     0.037 A 
HETATM   18  C   UNL     1       7.744  25.108  52.681  1.00  0.00     0.003 A 
HETATM   19  C   UNL     1       7.708  25.419  54.039  1.00  0.00     0.009 A 
BRANCH  16  20
HETATM   20  O   UNL     1       8.053  21.500  52.686  1.00  0.00    -0.356 OA
HETATM   21  C   UNL     1       8.007  20.406  53.594  1.00  0.00     0.210 C 
ENDBRANCH  16  20
ENDBRANCH  12  14
ENDBRANCH   9  12
ENDBRANCH   1   8
BRANCH   4  22
HETATM   22  C   UNL     1       7.059  31.283  58.688  1.00  0.00     0.257 C 
HETATM   23  N   UNL     1       6.365  31.786  59.759  1.00  0.00    -0.352 N 
HETATM   24  H   UNL     1       5.446  31.389  59.953  1.00  0.00     0.163 HD
HETATM   25  O   UNL     1       8.216  31.593  58.424  1.00  0.00    -0.267 OA
BRANCH  23  26
HETATM   26  C   UNL     1       6.967  32.586  60.824  1.00  0.00     0.084 C 
HETATM   27  C   UNL     1       5.909  33.570  61.336  1.00  0.00     0.025 C 
HETATM   28  C   UNL     1       6.297  34.404  62.555  1.00  0.00     0.002 C 
HETATM   29  C   UNL     1       6.311  33.585  63.841  1.00  0.00     0.000 C 
HETATM   30  C   UNL     1       7.625  32.870  64.135  1.00  0.00     0.000 C 
HETATM   31  C   UNL     1       8.396  32.327  62.935  1.00  0.00     0.002 C 
HETATM   32  C   UNL     1       7.536  31.631  61.886  1.00  0.00     0.025 C 
ENDBRANCH  23  26
ENDBRANCH   4  22
BRANCH   6  33
HETATM   33  C   UNL     1       3.298  30.465  55.665  1.00  0.00     0.089 A 
HETATM   34  C   UNL     1       3.029  31.947  55.601  1.00  0.00     0.028 A 
HETATM   35  C   UNL     1       3.324  31.189  54.343  1.00  0.00     0.028 A 
ENDBRANCH   6  33
TORSDOF 7
ENDMDL
MODEL 3
REMARK VINA RESULT:      -9.7      2.043      3.268
REMARK  7 active torsions:
REMARK  status: ('A' for Active; 'I' for Inactive)
REMARK    1  A    between atoms: C_2  and  N_3 
REMARK    2  A    between atoms: C_2  and  C_26 
REMARK       I    between atoms: N_3  and  C_4 
REMARK    3  A    between atoms: C_4  and  C_5 
REMARK    4  A    between atoms: C_8  and  C_9 
REMARK       I    between atoms: C_9  and  N_10 
REMARK    5  A    between atoms: N_10  and  C_11 
REMARK    6  A    between atoms: N_20  and  C_21 
REMARK    7  A    between atoms: C_28  and  O_29 
ROOT
HETATM    1  C   UNL     1       6.157  29.829  57.606  1.00  0.00     0.098 A 
HETATM    2  C   UNL     1       5.789  28.642  56.777  1.00  0.00     0.206 A 
HETATM    3  O   UNL     1       4.605  28.360  56.575  1.00  0.00    -0.286 OA
HETATM    4  C   UNL     1       6.880  27.793  56.209  1.00  0.00     0.098 A 
HETATM    5  C   UNL     1       8.141  28.153  56.502  1.00  0.00     0.112 A 
HETATM    6  N   UNL     1       8.467  29.257  57.265  1.00  0.00    -0.360 N 
HETATM    7  C   UNL     1       7.468  30.041  57.808  1.00  0.00     0.112 A 
ENDROOT
BRANCH   1   8
HETATM    8  C   UNL     1       5.170  30.763  58.221  1.00  0.00     0.257 C 
HETATM    9  N   UNL     1       5.643  31.491  59.280  1.00  0.00    -0.348 N 
HETATM   10  H   UNL     1       6.594  31.309  59.602  1.00  0.00     0.163 HD
HETATM   11  O   UNL     1       4.021  30.860  57.800  1.00  0.00    -0.267 OA
BRANCH   9  12
HETATM   12  C   UNL     1       4.846  32.439  60.039  1.00  0.00     0.114 C 
HETATM   13  C   UNL     1       4.687  33.770  59.301  1.00  0.00     0.037 C 
BRANCH  12  14
HETATM   14  C   UNL     1       5.469  32.655  61.410  1.00  0.00    -0.033 A 
HETATM   15  C   UNL     1       4.651  32.745  62.553  1.00  0.00     0.046 A 
HETATM   16  C   UNL     1       5.213  32.941  63.817  1.00  0.00     0.068 A 
HETATM   17  C   UNL     1       6.600  33.032  63.947  1.00  0.00     0.037 A 
HETATM   18  C   UNL     1       7.424  32.946  62.827  1.00  0.00     0.003 A 
HETATM   19  C   UNL     1       6.861  32.765  61.565  1.00  0.00     0.009 A 
BRANCH  16  20
HETATM   20  O   UNL     1       4.526  33.051  64.996  1.00  0.00    -0.356 OA
HETATM   21  C   UNL     1       5.085  33.902  65.989  1.00  0.00     0.210 C 
ENDBRANCH  16  20
ENDBRANCH  12  14
ENDBRANCH   9  12
ENDBRANCH   1   8
BRANCH   4  22
HETATM   22  C   UNL     1       6.648  26.593  55.354  1.00  0.00     0.257 C 
HETATM   23  N   UNL     1       7.457  25.522  55.636  1.00  0.00    -0.352 N 
HETATM   24  H   UNL     1       8.067  25.594  56.451  1.00  0.00     0.163 HD
HETATM   25  O   UNL     1       5.791  26.582  54.477  1.00  0.00    -0.267 OA
BRANCH  23  26
HETATM   26  C   UNL     1       7.270  24.184  55.080  1.00  0.00     0.084 C 
HETATM   27  C   UNL     1       7.865  24.170  53.666  1.00  0.00     0.025 C 
HETATM   28  C   UNL     1       7.899  22.815  52.963  1.00  0.00     0.002 C 
HETATM   29  C   UNL     1       8.965  21.887  53.535  1.00  0.00     0.000 C 
HETATM   30  C   UNL     1       8.517  21.054  54.732  1.00  0.00     0.000 C 
HETATM   31  C   UNL     1       7.549  21.715  55.706  1.00  0.00     0.002 C 
HETATM   32  C   UNL     1       7.881  23.163  56.052  1.00  0.00     0.025 C 
ENDBRANCH  23  26
ENDBRANCH   4  22
BRANCH   6  33
HETATM   33  C   UNL     1       9.860  29.455  57.688  1.00  0.00     0.089 A 
HETATM   34  C   UNL     1      10.987  29.508  56.690  1.00  0.00     0.028 A 
HETATM   35  C   UNL     1      10.598  30.746  57.439  1.00  0.00     0.028 A 
ENDBRANCH   6  33
TORSDOF 7
ENDMDL
MODEL 4
REMARK VINA RESULT:      -9.6      1.384      1.683
REMARK  7 active torsions:
REMARK  status: ('A' for Active; 'I' for Inactive)
REMARK    1  A    between atoms: C_2  and  N_3 
REMARK    2  A    between atoms: C_2  and  C_26 
REMARK       I    between atoms: N_3  and  C_4 
REMARK    3  A    between atoms: C_4  and  C_5 
REMARK    4  A    between atoms: C_8  and  C_9 
REMARK       I    between atoms: C_9  and  N_10 
REMARK    5  A    between atoms: N_10  and  C_11 
REMARK    6  A    between atoms: N_20  and  C_21 
REMARK    7  A    between atoms: C_28  and  O_29 
ROOT
HETATM    1  C   UNL     1       7.034  30.710  58.329  1.00  0.00     0.098 A 
HETATM    2  C   UNL     1       6.885  29.317  57.810  1.00  0.00     0.206 A 
HETATM    3  O   UNL     1       7.634  28.419  58.201  1.00  0.00    -0.286 OA
HETATM    4  C   UNL     1       5.822  29.034  56.798  1.00  0.00     0.098 A 
HETATM    5  C   UNL     1       5.070  30.076  56.405  1.00  0.00     0.112 A 
HETATM    6  N   UNL     1       5.215  31.357  56.896  1.00  0.00    -0.360 N 
HETATM    7  C   UNL     1       6.203  31.635  57.821  1.00  0.00     0.112 A 
ENDROOT
BRANCH   1   8
HETATM    8  C   UNL     1       8.043  31.125  59.346  1.00  0.00     0.257 C 
HETATM    9  N   UNL     1       7.583  31.165  60.635  1.00  0.00    -0.348 N 
HETATM   10  H   UNL     1       6.596  30.968  60.800  1.00  0.00     0.163 HD
HETATM   11  O   UNL     1       9.196  31.408  59.035  1.00  0.00    -0.267 OA
BRANCH   9  12
HETATM   12  C   UNL     1       8.388  31.565  61.776  1.00  0.00     0.114 C 
HETATM   13  C   UNL     1       8.811  30.364  62.625  1.00  0.00     0.037 C 
BRANCH  12  14
HETATM   14  C   UNL     1       7.623  32.576  62.618  1.00  0.00    -0.033 A 
HETATM   15  C   UNL     1       6.526  33.267  62.070  1.00  0.00     0.046 A 
HETATM   16  C   UNL     1       5.814  34.195  62.836  1.00  0.00     0.068 A 
HETATM   17  C   UNL     1       6.189  34.425  64.161  1.00  0.00     0.037 A 
HETATM   18  C   UNL     1       7.272  33.750  64.718  1.00  0.00     0.003 A 
HETATM   19  C   UNL     1       7.989  32.836  63.950  1.00  0.00     0.009 A 
BRANCH  16  20
HETATM   20  O   UNL     1       4.739  34.931  62.416  1.00  0.00    -0.356 OA
HETATM   21  C   UNL     1       3.486  34.262  62.350  1.00  0.00     0.210 C 
ENDBRANCH  16  20
ENDBRANCH  12  14
ENDBRANCH   9  12
ENDBRANCH   1   8
BRANCH   4  22
HETATM   22  C   UNL     1       5.559  27.687  56.214  1.00  0.00     0.257 C 
HETATM   23  N   UNL     1       6.098  27.486  54.969  1.00  0.00    -0.352 N 
HETATM   24  H   UNL     1       6.703  28.216  54.595  1.00  0.00     0.163 HD
HETATM   25  O   UNL     1       4.914  26.837  56.819  1.00  0.00    -0.267 OA
BRANCH  23  26
HETATM   26  C   UNL     1       6.151  26.189  54.299  1.00  0.00     0.084 C 
HETATM   27  C   UNL     1       6.270  26.438  52.790  1.00  0.00     0.025 C 
HETATM   28  C   UNL     1       6.484  25.203  51.918  1.00  0.00     0.002 C 
HETATM   29  C   UNL     1       7.895  24.638  52.043  1.00  0.00     0.000 C 
HETATM   30  C   UNL     1       8.092  23.646  53.184  1.00  0.00     0.000 C 
HETATM   31  C   UNL     1       7.313  23.911  54.468  1.00  0.00     0.002 C 
HETATM   32  C   UNL     1       7.296  25.369  54.915  1.00  0.00     0.025 C 
ENDBRANCH  23  26
ENDBRANCH   4  22
BRANCH   6  33
HETATM   33  C   UNL     1       4.477  32.460  56.265  1.00  0.00     0.089 A 
HETATM   34  C   UNL     1       3.041  32.305  55.836  1.00  0.00     0.028 A 
HETATM   35  C   UNL     1       3.382  33.207  56.983  1.00  0.00     0.028 A 
ENDBRANCH   6  33
TORSDOF 7
ENDMDL
MODEL 5
REMARK VINA RESULT:      -9.4      2.762      4.783
REMARK  7 active torsions:
REMARK  status: ('A' for Active; 'I' for Inactive)
REMARK    1  A    between atoms: C_2  and  N_3 
REMARK    2  A    between atoms: C_2  and  C_26 
REMARK       I    between atoms: N_3  and  C_4 
REMARK    3  A    between atoms: C_4  and  C_5 
REMARK    4  A    between atoms: C_8  and  C_9 
REMARK       I    between atoms: C_9  and  N_10 
REMARK    5  A    between atoms: N_10  and  C_11 
REMARK    6  A    between atoms: N_20  and  C_21 
REMARK    7  A    between atoms: C_28  and  O_29 
ROOT
HETATM    1  C   UNL     1       5.331  28.834  54.814  1.00  0.00     0.098 A 
HETATM    2  C   UNL     1       6.306  27.701  54.788  1.00  0.00     0.206 A 
HETATM    3  O   UNL     1       6.876  27.341  55.819  1.00  0.00    -0.286 OA
HETATM    4  C   UNL     1       6.589  27.024  53.486  1.00  0.00     0.098 A 
HETATM    5  C   UNL     1       5.947  27.499  52.405  1.00  0.00     0.112 A 
HETATM    6  N   UNL     1       5.045  28.543  52.444  1.00  0.00    -0.360 N 
HETATM    7  C   UNL     1       4.785  29.187  53.638  1.00  0.00     0.112 A 
ENDROOT
BRANCH   1   8
HETATM    8  C   UNL     1       4.950  29.586  56.044  1.00  0.00     0.257 C 
HETATM    9  N   UNL     1       5.967  30.293  56.628  1.00  0.00    -0.348 N 
HETATM   10  H   UNL     1       6.901  30.214  56.226  1.00  0.00     0.163 HD
HETATM   11  O   UNL     1       3.807  29.562  56.489  1.00  0.00    -0.267 OA
BRANCH   9  12
HETATM   12  C   UNL     1       5.823  31.073  57.845  1.00  0.00     0.114 C 
HETATM   13  C   UNL     1       5.087  32.391  57.593  1.00  0.00     0.037 C 
BRANCH  12  14
HETATM   14  C   UNL     1       7.192  31.331  58.458  1.00  0.00    -0.033 A 
HETATM   15  C   UNL     1       8.355  30.870  57.812  1.00  0.00     0.046 A 
HETATM   16  C   UNL     1       9.617  31.104  58.363  1.00  0.00     0.068 A 
HETATM   17  C   UNL     1       9.723  31.816  59.561  1.00  0.00     0.037 A 
HETATM   18  C   UNL     1       8.583  32.278  60.214  1.00  0.00     0.003 A 
HETATM   19  C   UNL     1       7.324  32.032  59.669  1.00  0.00     0.009 A 
BRANCH  16  20
HETATM   20  O   UNL     1      10.815  30.703  57.836  1.00  0.00    -0.356 OA
HETATM   21  C   UNL     1      10.797  29.549  57.005  1.00  0.00     0.210 C 
ENDBRANCH  16  20
ENDBRANCH  12  14
ENDBRANCH   9  12
ENDBRANCH   1   8
BRANCH   4  22
HETATM   22  C   UNL     1       7.526  25.875  53.326  1.00  0.00     0.257 C 
HETATM   23  N   UNL     1       7.558  25.008  54.389  1.00  0.00    -0.352 N 
HETATM   24  H   UNL     1       6.883  25.159  55.140  1.00  0.00     0.163 HD
HETATM   25  O   UNL     1       8.203  25.730  52.314  1.00  0.00    -0.267 OA
BRANCH  23  26
HETATM   26  C   UNL     1       8.233  23.712  54.371  1.00  0.00     0.084 C 
HETATM   27  C   UNL     1       8.216  23.147  55.796  1.00  0.00     0.025 C 
HETATM   28  C   UNL     1       8.750  21.726  55.964  1.00  0.00     0.002 C 
HETATM   29  C   UNL     1       7.788  20.674  55.422  1.00  0.00     0.000 C 
HETATM   30  C   UNL     1       7.943  20.365  53.937  1.00  0.00     0.000 C 
HETATM   31  C   UNL     1       8.311  21.532  53.026  1.00  0.00     0.002 C 
HETATM   32  C   UNL     1       7.557  22.827  53.312  1.00  0.00     0.025 C 
ENDBRANCH  23  26
ENDBRANCH   4  22
BRANCH   6  33
HETATM   33  C   UNL     1       4.545  29.112  51.186  1.00  0.00     0.089 A 
HETATM   34  C   UNL     1       4.285  28.249  49.978  1.00  0.00     0.028 A 
HETATM   35  C   UNL     1       3.135  28.879  50.703  1.00  0.00     0.028 A 
ENDBRANCH   6  33
TORSDOF 7
ENDMDL
MODEL 6
REMARK VINA RESULT:      -9.3      5.016      9.175
REMARK  7 active torsions:
REMARK  status: ('A' for Active; 'I' for Inactive)
REMARK    1  A    between atoms: C_2  and  N_3 
REMARK    2  A    between atoms: C_2  and  C_26 
REMARK       I    between atoms: N_3  and  C_4 
REMARK    3  A    between atoms: C_4  and  C_5 
REMARK    4  A    between atoms: C_8  and  C_9 
REMARK       I    between atoms: C_9  and  N_10 
REMARK    5  A    between atoms: N_10  and  C_11 
REMARK    6  A    between atoms: N_20  and  C_21 
REMARK    7  A    between atoms: C_28  and  O_29 
ROOT
HETATM    1  C   UNL     1       4.949  27.726  55.096  1.00  0.00     0.098 A 
HETATM    2  C   UNL     1       4.988  27.708  53.602  1.00  0.00     0.206 A 
HETATM    3  O   UNL     1       5.432  26.729  52.999  1.00  0.00    -0.286 OA
HETATM    4  C   UNL     1       4.493  28.903  52.853  1.00  0.00     0.098 A 
HETATM    5  C   UNL     1       4.054  29.938  53.588  1.00  0.00     0.112 A 
HETATM    6  N   UNL     1       4.018  29.940  54.968  1.00  0.00    -0.360 N 
HETATM    7  C   UNL     1       4.486  28.848  55.673  1.00  0.00     0.112 A 
ENDROOT
BRANCH   1   8
HETATM    8  C   UNL     1       5.399  26.599  55.963  1.00  0.00     0.257 C 
HETATM    9  N   UNL     1       6.501  25.925  55.509  1.00  0.00    -0.348 N 
HETATM   10  H   UNL     1       6.894  26.196  54.607  1.00  0.00     0.163 HD
HETATM   11  O   UNL     1       4.814  26.308  57.001  1.00  0.00    -0.267 OA
BRANCH   9  12
HETATM   12  C   UNL     1       7.092  24.781  56.183  1.00  0.00     0.114 C 
HETATM   13  C   UNL     1       8.307  25.180  57.023  1.00  0.00     0.037 C 
BRANCH  12  14
HETATM   14  C   UNL     1       7.470  23.719  55.161  1.00  0.00    -0.033 A 
HETATM   15  C   UNL     1       7.958  22.469  55.587  1.00  0.00     0.046 A 
HETATM   16  C   UNL     1       8.305  21.485  54.658  1.00  0.00     0.068 A 
HETATM   17  C   UNL     1       8.150  21.742  53.294  1.00  0.00     0.037 A 
HETATM   18  C   UNL     1       7.669  22.973  52.855  1.00  0.00     0.003 A 
HETATM   19  C   UNL     1       7.336  23.958  53.783  1.00  0.00     0.009 A 
BRANCH  16  20
HETATM   20  O   UNL     1       8.795  20.240  54.947  1.00  0.00    -0.356 OA
HETATM   21  C   UNL     1       9.421  20.073  56.213  1.00  0.00     0.210 C 
ENDBRANCH  16  20
ENDBRANCH  12  14
ENDBRANCH   9  12
ENDBRANCH   1   8
BRANCH   4  22
HETATM   22  C   UNL     1       4.464  29.004  51.365  1.00  0.00     0.257 C 
HETATM   23  N   UNL     1       3.816  27.974  50.732  1.00  0.00    -0.352 N 
HETATM   24  H   UNL     1       3.334  27.292  51.316  1.00  0.00     0.163 HD
HETATM   25  O   UNL     1       4.978  29.948  50.773  1.00  0.00    -0.267 OA
BRANCH  23  26
HETATM   26  C   UNL     1       3.480  27.967  49.310  1.00  0.00     0.084 C 
HETATM   27  C   UNL     1       3.964  26.641  48.713  1.00  0.00     0.025 C 
HETATM   28  C   UNL     1       3.579  26.375  47.259  1.00  0.00     0.002 C 
HETATM   29  C   UNL     1       2.103  26.029  47.101  1.00  0.00     0.000 C 
HETATM   30  C   UNL     1       1.175  27.229  46.941  1.00  0.00     0.000 C 
HETATM   31  C   UNL     1       1.533  28.486  47.727  1.00  0.00     0.002 C 
HETATM   32  C   UNL     1       1.974  28.235  49.165  1.00  0.00     0.025 C 
ENDBRANCH  23  26
ENDBRANCH   4  22
BRANCH   6  33
HETATM   33  C   UNL     1       3.703  31.186  55.680  1.00  0.00     0.089 A 
HETATM   34  C   UNL     1       3.467  32.478  54.942  1.00  0.00     0.028 A 
HETATM   35  C   UNL     1       2.329  31.804  55.646  1.00  0.00     0.028 A 
ENDBRANCH   6  33
TORSDOF 7
ENDMDL
MODEL 7
REMARK VINA RESULT:      -9.2      2.741     10.031
REMARK  7 active torsions:
REMARK  status: ('A' for Active; 'I' for Inactive)
REMARK    1  A    between atoms: C_2  and  N_3 
REMARK    2  A    between atoms: C_2  and  C_26 
REMARK       I    between atoms: N_3  and  C_4 
REMARK    3  A    between atoms: C_4  and  C_5 
REMARK    4  A    between atoms: C_8  and  C_9 
REMARK       I    between atoms: C_9  and  N_10 
REMARK    5  A    between atoms: N_10  and  C_11 
REMARK    6  A    between atoms: N_20  and  C_21 
REMARK    7  A    between atoms: C_28  and  O_29 
ROOT
HETATM    1  C   UNL     1       7.215  28.412  55.646  1.00  0.00     0.098 A 
HETATM    2  C   UNL     1       6.004  29.115  56.168  1.00  0.00     0.206 A 
HETATM    3  O   UNL     1       4.916  28.997  55.599  1.00  0.00    -0.286 OA
HETATM    4  C   UNL     1       6.137  29.977  57.382  1.00  0.00     0.098 A 
HETATM    5  C   UNL     1       7.364  30.075  57.921  1.00  0.00     0.112 A 
HETATM    6  N   UNL     1       8.474  29.415  57.432  1.00  0.00    -0.360 N 
HETATM    7  C   UNL     1       8.367  28.628  56.303  1.00  0.00     0.112 A 
ENDROOT
BRANCH   1   8
HETATM    8  C   UNL     1       7.218  27.516  54.454  1.00  0.00     0.257 C 
HETATM    9  N   UNL     1       6.306  26.495  54.496  1.00  0.00    -0.348 N 
HETATM   10  H   UNL     1       5.741  26.388  55.338  1.00  0.00     0.163 HD
HETATM   11  O   UNL     1       7.988  27.690  53.515  1.00  0.00    -0.267 OA
BRANCH   9  12
HETATM   12  C   UNL     1       6.156  25.493  53.454  1.00  0.00     0.114 C 
HETATM   13  C   UNL     1       4.688  25.123  53.226  1.00  0.00     0.037 C 
BRANCH  12  14
HETATM   14  C   UNL     1       6.974  24.259  53.805  1.00  0.00    -0.033 A 
HETATM   15  C   UNL     1       7.199  23.919  55.152  1.00  0.00     0.046 A 
HETATM   16  C   UNL     1       7.946  22.785  55.485  1.00  0.00     0.068 A 
HETATM   17  C   UNL     1       8.458  21.976  54.469  1.00  0.00     0.037 A 
HETATM   18  C   UNL     1       8.245  22.298  53.131  1.00  0.00     0.003 A 
HETATM   19  C   UNL     1       7.512  23.436  52.800  1.00  0.00     0.009 A 
BRANCH  16  20
HETATM   20  O   UNL     1       8.239  22.357  56.752  1.00  0.00    -0.356 OA
HETATM   21  C   UNL     1       8.434  20.959  56.929  1.00  0.00     0.210 C 
ENDBRANCH  16  20
ENDBRANCH  12  14
ENDBRANCH   9  12
ENDBRANCH   1   8
BRANCH   4  22
HETATM   22  C   UNL     1       5.006  30.718  58.010  1.00  0.00     0.257 C 
HETATM   23  N   UNL     1       5.363  31.530  59.057  1.00  0.00    -0.352 N 
HETATM   24  H   UNL     1       6.358  31.636  59.252  1.00  0.00     0.163 HD
HETATM   25  O   UNL     1       3.855  30.603  57.604  1.00  0.00    -0.267 OA
BRANCH  23  26
HETATM   26  C   UNL     1       4.469  32.502  59.682  1.00  0.00     0.084 C 
HETATM   27  C   UNL     1       4.857  32.623  61.161  1.00  0.00     0.025 C 
HETATM   28  C   UNL     1       4.131  33.701  61.963  1.00  0.00     0.002 C 
HETATM   29  C   UNL     1       4.608  35.107  61.614  1.00  0.00     0.000 C 
HETATM   30  C   UNL     1       3.891  35.755  60.433  1.00  0.00     0.000 C 
HETATM   31  C   UNL     1       3.483  34.834  59.288  1.00  0.00     0.002 C 
HETATM   32  C   UNL     1       4.540  33.813  58.883  1.00  0.00     0.025 C 
ENDBRANCH  23  26
ENDBRANCH   4  22
BRANCH   6  33
HETATM   33  C   UNL     1       9.801  29.738  57.973  1.00  0.00     0.089 A 
HETATM   34  C   UNL     1      11.026  29.759  57.095  1.00  0.00     0.028 A 
HETATM   35  C   UNL     1      10.498  31.039  57.666  1.00  0.00     0.028 A 
ENDBRANCH   6  33
TORSDOF 7
ENDMDL
MODEL 8
REMARK VINA RESULT:      -8.6      6.507     11.172
REMARK  7 active torsions:
REMARK  status: ('A' for Active; 'I' for Inactive)
REMARK    1  A    between atoms: C_2  and  N_3 
REMARK    2  A    between atoms: C_2  and  C_26 
REMARK       I    between atoms: N_3  and  C_4 
REMARK    3  A    between atoms: C_4  and  C_5 
REMARK    4  A    between atoms: C_8  and  C_9 
REMARK       I    between atoms: C_9  and  N_10 
REMARK    5  A    between atoms: N_10  and  C_11 
REMARK    6  A    between atoms: N_20  and  C_21 
REMARK    7  A    between atoms: C_28  and  O_29 
ROOT
HETATM    1  C   UNL     1       5.110  26.815  51.227  1.00  0.00     0.098 A 
HETATM    2  C   UNL     1       5.442  28.262  51.060  1.00  0.00     0.206 A 
HETATM    3  O   UNL     1       5.775  28.945  52.032  1.00  0.00    -0.286 OA
HETATM    4  C   UNL     1       5.349  28.872  49.699  1.00  0.00     0.098 A 
HETATM    5  C   UNL     1       4.949  28.064  48.701  1.00  0.00     0.112 A 
HETATM    6  N   UNL     1       4.651  26.727  48.868  1.00  0.00    -0.360 N 
HETATM    7  C   UNL     1       4.719  26.155  50.123  1.00  0.00     0.112 A 
ENDROOT
BRANCH   1   8
HETATM    8  C   UNL     1       5.173  26.082  52.524  1.00  0.00     0.257 C 
HETATM    9  N   UNL     1       6.311  26.295  53.254  1.00  0.00    -0.348 N 
HETATM   10  H   UNL     1       7.042  26.879  52.848  1.00  0.00     0.163 HD
HETATM   11  O   UNL     1       4.265  25.344  52.895  1.00  0.00    -0.267 OA
BRANCH   9  12
HETATM   12  C   UNL     1       6.590  25.662  54.532  1.00  0.00     0.114 C 
HETATM   13  C   UNL     1       7.527  26.511  55.396  1.00  0.00     0.037 C 
BRANCH  12  14
HETATM   14  C   UNL     1       7.177  24.277  54.305  1.00  0.00    -0.033 A 
HETATM   15  C   UNL     1       7.153  23.320  55.338  1.00  0.00     0.046 A 
HETATM   16  C   UNL     1       7.685  22.044  55.140  1.00  0.00     0.068 A 
HETATM   17  C   UNL     1       8.233  21.712  53.899  1.00  0.00     0.037 A 
HETATM   18  C   UNL     1       8.265  22.646  52.866  1.00  0.00     0.003 A 
HETATM   19  C   UNL     1       7.745  23.923  53.070  1.00  0.00     0.009 A 
BRANCH  16  20
HETATM   20  O   UNL     1       7.728  21.035  56.064  1.00  0.00    -0.356 OA
HETATM   21  C   UNL     1       8.718  20.032  55.877  1.00  0.00     0.210 C 
ENDBRANCH  16  20
ENDBRANCH  12  14
ENDBRANCH   9  12
ENDBRANCH   1   8
BRANCH   4  22
HETATM   22  C   UNL     1       5.668  30.297  49.396  1.00  0.00     0.257 C 
HETATM   23  N   UNL     1       4.937  30.844  48.372  1.00  0.00    -0.352 N 
HETATM   24  H   UNL     1       4.184  30.279  47.977  1.00  0.00     0.163 HD
HETATM   25  O   UNL     1       6.516  30.916  50.029  1.00  0.00    -0.267 OA
BRANCH  23  26
HETATM   26  C   UNL     1       4.925  32.267  48.042  1.00  0.00     0.084 C 
HETATM   27  C   UNL     1       5.284  32.414  46.559  1.00  0.00     0.025 C 
HETATM   28  C   UNL     1       5.186  33.823  45.978  1.00  0.00     0.002 C 
HETATM   29  C   UNL     1       3.743  34.274  45.782  1.00  0.00     0.000 C 
HETATM   30  C   UNL     1       3.101  34.926  47.003  1.00  0.00     0.000 C 
HETATM   31  C   UNL     1       3.496  34.369  48.367  1.00  0.00     0.002 C 
HETATM   32  C   UNL     1       3.559  32.848  48.441  1.00  0.00     0.025 C 
ENDBRANCH  23  26
ENDBRANCH   4  22
BRANCH   6  33
HETATM   33  C   UNL     1       4.040  25.980  47.760  1.00  0.00     0.089 A 
HETATM   34  C   UNL     1       3.039  24.881  48.006  1.00  0.00     0.028 A 
HETATM   35  C   UNL     1       2.595  26.163  47.369  1.00  0.00     0.028 A 
ENDBRANCH   6  33
TORSDOF 7
ENDMDL
MODEL 9
REMARK VINA RESULT:      -8.6      2.432      4.839
REMARK  7 active torsions:
REMARK  status: ('A' for Active; 'I' for Inactive)
REMARK    1  A    between atoms: C_2  and  N_3 
REMARK    2  A    between atoms: C_2  and  C_26 
REMARK       I    between atoms: N_3  and  C_4 
REMARK    3  A    between atoms: C_4  and  C_5 
REMARK    4  A    between atoms: C_8  and  C_9 
REMARK       I    between atoms: C_9  and  N_10 
REMARK    5  A    between atoms: N_10  and  C_11 
REMARK    6  A    between atoms: N_20  and  C_21 
REMARK    7  A    between atoms: C_28  and  O_29 
ROOT
HETATM    1  C   UNL     1       5.973  31.579  58.903  1.00  0.00     0.098 A 
HETATM    2  C   UNL     1       6.209  30.689  57.725  1.00  0.00     0.206 A 
HETATM    3  O   UNL     1       5.295  30.436  56.937  1.00  0.00    -0.286 OA
HETATM    4  C   UNL     1       7.568  30.098  57.529  1.00  0.00     0.098 A 
HETATM    5  C   UNL     1       8.498  30.400  58.451  1.00  0.00     0.112 A 
HETATM    6  N   UNL     1       8.267  31.229  59.531  1.00  0.00    -0.360 N 
HETATM    7  C   UNL     1       7.013  31.769  59.732  1.00  0.00     0.112 A 
ENDROOT
BRANCH   1   8
HETATM    8  C   UNL     1       4.672  32.240  59.209  1.00  0.00     0.257 C 
HETATM    9  N   UNL     1       4.763  33.559  59.563  1.00  0.00    -0.348 N 
HETATM   10  H   UNL     1       5.692  33.973  59.646  1.00  0.00     0.163 HD
HETATM   11  O   UNL     1       3.607  31.633  59.146  1.00  0.00    -0.267 OA
BRANCH   9  12
HETATM   12  C   UNL     1       3.625  34.386  59.926  1.00  0.00     0.114 C 
HETATM   13  C   UNL     1       3.517  35.629  59.038  1.00  0.00     0.037 C 
BRANCH  12  14
HETATM   14  C   UNL     1       3.720  34.781  61.392  1.00  0.00    -0.033 A 
HETATM   15  C   UNL     1       3.993  33.806  62.371  1.00  0.00     0.046 A 
HETATM   16  C   UNL     1       4.086  34.158  63.720  1.00  0.00     0.068 A 
HETATM   17  C   UNL     1       3.920  35.493  64.096  1.00  0.00     0.037 A 
HETATM   18  C   UNL     1       3.648  36.469  63.141  1.00  0.00     0.003 A 
HETATM   19  C   UNL     1       3.543  36.115  61.798  1.00  0.00     0.009 A 
BRANCH  16  20
HETATM   20  O   UNL     1       4.339  33.305  64.760  1.00  0.00    -0.356 OA
HETATM   21  C   UNL     1       4.569  33.893  66.034  1.00  0.00     0.210 C 
ENDBRANCH  16  20
ENDBRANCH  12  14
ENDBRANCH   9  12
ENDBRANCH   1   8
BRANCH   4  22
HETATM   22  C   UNL     1       7.937  29.209  56.389  1.00  0.00     0.257 C 
HETATM   23  N   UNL     1       7.097  28.142  56.198  1.00  0.00    -0.352 N 
HETATM   24  H   UNL     1       6.254  28.098  56.771  1.00  0.00     0.163 HD
HETATM   25  O   UNL     1       8.916  29.436  55.686  1.00  0.00    -0.267 OA
BRANCH  23  26
HETATM   26  C   UNL     1       7.137  27.267  55.029  1.00  0.00     0.084 C 
HETATM   27  C   UNL     1       6.915  25.826  55.505  1.00  0.00     0.025 C 
HETATM   28  C   UNL     1       6.777  24.768  54.412  1.00  0.00     0.002 C 
HETATM   29  C   UNL     1       5.438  24.849  53.688  1.00  0.00     0.000 C 
HETATM   30  C   UNL     1       5.400  25.815  52.508  1.00  0.00     0.000 C 
HETATM   31  C   UNL     1       6.216  27.096  52.643  1.00  0.00     0.002 C 
HETATM   32  C   UNL     1       6.113  27.778  54.003  1.00  0.00     0.025 C 
ENDBRANCH  23  26
ENDBRANCH   4  22
BRANCH   6  33
HETATM   33  C   UNL     1       9.287  31.343  60.583  1.00  0.00     0.089 A 
HETATM   34  C   UNL     1       8.949  31.868  61.954  1.00  0.00     0.028 A 
HETATM   35  C   UNL     1       9.312  30.425  61.778  1.00  0.00     0.028 A 
ENDBRANCH   6  33
TORSDOF 7
ENDMDL
MODEL 10
REMARK VINA RESULT:      -8.4      6.156     10.733
REMARK  7 active torsions:
REMARK  status: ('A' for Active; 'I' for Inactive)
REMARK    1  A    between atoms: C_2  and  N_3 
REMARK    2  A    between atoms: C_2  and  C_26 
REMARK       I    between atoms: N_3  and  C_4 
REMARK    3  A    between atoms: C_4  and  C_5 
REMARK    4  A    between atoms: C_8  and  C_9 
REMARK       I    between atoms: C_9  and  N_10 
REMARK    5  A    between atoms: N_10  and  C_11 
REMARK    6  A    between atoms: N_20  and  C_21 
REMARK    7  A    between atoms: C_28  and  O_29 
ROOT
HETATM    1  C   UNL     1       5.207  26.966  51.550  1.00  0.00     0.098 A 
HETATM    2  C   UNL     1       5.415  28.446  51.570  1.00  0.00     0.206 A 
HETATM    3  O   UNL     1       5.612  29.037  52.634  1.00  0.00    -0.286 OA
HETATM    4  C   UNL     1       5.364  29.199  50.280  1.00  0.00     0.098 A 
HETATM    5  C   UNL     1       5.114  28.482  49.171  1.00  0.00     0.112 A 
HETATM    6  N   UNL     1       4.930  27.114  49.166  1.00  0.00    -0.360 N 
HETATM    7  C   UNL     1       4.960  26.408  50.353  1.00  0.00     0.112 A 
ENDROOT
BRANCH   1   8
HETATM    8  C   UNL     1       5.245  26.095  52.761  1.00  0.00     0.257 C 
HETATM    9  N   UNL     1       6.277  26.348  53.623  1.00  0.00    -0.348 N 
HETATM   10  H   UNL     1       6.962  27.056  53.360  1.00  0.00     0.163 HD
HETATM   11  O   UNL     1       4.406  25.220  52.953  1.00  0.00    -0.267 OA
BRANCH   9  12
HETATM   12  C   UNL     1       6.516  25.604  54.848  1.00  0.00     0.114 C 
HETATM   13  C   UNL     1       7.387  26.390  55.832  1.00  0.00     0.037 C 
BRANCH  12  14
HETATM   14  C   UNL     1       7.153  24.262  54.520  1.00  0.00    -0.033 A 
HETATM   15  C   UNL     1       7.135  23.220  55.466  1.00  0.00     0.046 A 
HETATM   16  C   UNL     1       7.714  21.982  55.175  1.00  0.00     0.068 A 
HETATM   17  C   UNL     1       8.302  21.775  53.925  1.00  0.00     0.037 A 
HETATM   18  C   UNL     1       8.330  22.795  52.977  1.00  0.00     0.003 A 
HETATM   19  C   UNL     1       7.764  24.033  53.275  1.00  0.00     0.009 A 
BRANCH  16  20
HETATM   20  O   UNL     1       7.766  20.899  56.010  1.00  0.00    -0.356 OA
HETATM   21  C   UNL     1       8.784  19.939  55.757  1.00  0.00     0.210 C 
ENDBRANCH  16  20
ENDBRANCH  12  14
ENDBRANCH   9  12
ENDBRANCH   1   8
BRANCH   4  22
HETATM   22  C   UNL     1       5.570  30.671  50.162  1.00  0.00     0.257 C 
HETATM   23  N   UNL     1       4.567  31.437  50.701  1.00  0.00    -0.352 N 
HETATM   24  H   UNL     1       3.831  30.953  51.214  1.00  0.00     0.163 HD
HETATM   25  O   UNL     1       6.568  31.141  49.626  1.00  0.00    -0.267 OA
BRANCH  23  26
HETATM   26  C   UNL     1       4.651  32.883  50.890  1.00  0.00     0.084 C 
HETATM   27  C   UNL     1       3.471  33.528  50.154  1.00  0.00     0.025 C 
HETATM   28  C   UNL     1       3.295  35.032  50.348  1.00  0.00     0.002 C 
HETATM   29  C   UNL     1       2.761  35.383  51.733  1.00  0.00     0.000 C 
HETATM   30  C   UNL     1       3.827  35.549  52.811  1.00  0.00     0.000 C 
HETATM   31  C   UNL     1       5.039  34.628  52.726  1.00  0.00     0.002 C 
HETATM   32  C   UNL     1       4.715  33.174  52.397  1.00  0.00     0.025 C 
ENDBRANCH  23  26
ENDBRANCH   4  22
BRANCH   6  33
HETATM   33  C   UNL     1       4.472  26.452  47.937  1.00  0.00     0.089 A 
HETATM   34  C   UNL     1       3.360  25.436  47.955  1.00  0.00     0.028 A 
HETATM   35  C   UNL     1       3.141  26.767  47.303  1.00  0.00     0.028 A 
ENDBRANCH   6  33
TORSDOF 7
ENDMDL
