MODEL 1
REMARK VINA RESULT:     -10.7      0.000      0.000
REMARK  4 active torsions:
REMARK  status: ('A' for Active; 'I' for Inactive)
REMARK    1  A    between atoms: C_2  and  C_3 
REMARK       I    between atoms: C_3  and  N_4 
REMARK    2  A    between atoms: N_4  and  N_5 
REMARK    3  A    between atoms: N_5  and  C_6 
REMARK    4  A    between atoms: N_7  and  C_8 
ROOT
HETATM    1  C   UNL     1       5.592  26.438  51.251  1.00  0.00     0.208 A 
HETATM    2  N   UNL     1       5.185  27.540  52.000  1.00  0.00    -0.251 N 
HETATM    3  C   UNL     1       5.247  27.505  53.393  1.00  0.00     0.264 A 
HETATM    4  O   UNL     1       4.866  28.426  54.115  1.00  0.00    -0.267 OA
HETATM    5  C   UNL     1       5.876  26.300  54.016  1.00  0.00     0.049 A 
HETATM    6  C   UNL     1       6.313  25.357  53.158  1.00  0.00     0.083 A 
HETATM    7  C   UNL     1       7.052  24.180  53.693  1.00  0.00    -0.000 A 
HETATM    8  C   UNL     1       6.958  23.850  55.053  1.00  0.00    -0.044 A 
HETATM    9  C   UNL     1       7.634  22.732  55.563  1.00  0.00     0.008 A 
HETATM   10  C   UNL     1       8.427  21.951  54.724  1.00  0.00     0.001 A 
HETATM   11  C   UNL     1       8.539  22.275  53.376  1.00  0.00     0.001 A 
HETATM   12  C   UNL     1       7.854  23.380  52.864  1.00  0.00     0.014 A 
HETATM   13  C   UNL     1       6.073  24.680  55.938  1.00  0.00     0.054 C 
HETATM   14  C   UNL     1       6.077  26.182  55.541  1.00  0.00    -0.002 C 
HETATM   15  C   UNL     1       7.411  26.848  55.963  1.00  0.00     0.015 C 
HETATM   16  C   UNL     1       7.044  28.281  56.314  1.00  0.00     0.001 C 
HETATM   17  C   UNL     1       5.689  28.162  56.993  1.00  0.00     0.001 C 
HETATM   18  C   UNL     1       5.032  26.890  56.446  1.00  0.00     0.015 C 
HETATM   19  N   UNL     1       6.139  25.391  51.804  1.00  0.00    -0.217 NA
ENDROOT
BRANCH   1  20
HETATM   20  N   UNL     1       5.375  26.404  49.879  1.00  0.00    -0.171 NA
HETATM   21  H   UNL     1       5.732  27.201  49.341  1.00  0.00     0.156 HD
BRANCH  20  22
HETATM   22  N   UNL     1       4.070  26.044  49.481  1.00  0.00    -0.284 N 
HETATM   23  C   UNL     1       3.791  26.179  48.133  1.00  0.00     0.231 C 
HETATM   24  O   UNL     1       4.660  26.426  47.300  1.00  0.00    -0.272 OA
HETATM   25  H   UNL     1       3.359  26.215  50.193  1.00  0.00     0.184 HD
BRANCH  23  26
HETATM   26  C   UNL     1       2.321  26.015  47.813  1.00  0.00     0.100 C 
HETATM   27  C   UNL     1       1.530  27.281  48.094  1.00  0.00     0.014 C 
ENDBRANCH  23  26
ENDBRANCH  20  22
ENDBRANCH   1  20
BRANCH   2  28
HETATM   28  C   UNL     1       4.728  28.746  51.359  1.00  0.00     0.045 A 
HETATM   29  C   UNL     1       5.645  29.707  50.899  1.00  0.00     0.030 A 
HETATM   30  C   UNL     1       5.208  30.870  50.260  1.00  0.00     0.002 A 
HETATM   31  C   UNL     1       3.848  31.097  50.079  1.00  0.00     0.000 A 
HETATM   32  C   UNL     1       2.923  30.165  50.544  1.00  0.00     0.002 A 
HETATM   33  C   UNL     1       3.360  29.001  51.183  1.00  0.00     0.030 A 
ENDBRANCH   2  28
TORSDOF 4
ENDMDL
MODEL 2
REMARK VINA RESULT:     -10.0      3.362      6.418
REMARK  4 active torsions:
REMARK  status: ('A' for Active; 'I' for Inactive)
REMARK    1  A    between atoms: C_2  and  C_3 
REMARK       I    between atoms: C_3  and  N_4 
REMARK    2  A    between atoms: N_4  and  N_5 
REMARK    3  A    between atoms: N_5  and  C_6 
REMARK    4  A    between atoms: N_7  and  C_8 
ROOT
HETATM    1  C   UNL     1       7.020  27.102  56.586  1.00  0.00     0.208 A 
HETATM    2  N   UNL     1       6.253  27.702  55.589  1.00  0.00    -0.251 N 
HETATM    3  C   UNL     1       6.165  27.123  54.323  1.00  0.00     0.264 A 
HETATM    4  O   UNL     1       5.540  27.621  53.388  1.00  0.00    -0.267 OA
HETATM    5  C   UNL     1       6.822  25.793  54.138  1.00  0.00     0.049 A 
HETATM    6  C   UNL     1       7.445  25.290  55.221  1.00  0.00     0.083 A 
HETATM    7  C   UNL     1       8.025  23.921  55.151  1.00  0.00    -0.000 A 
HETATM    8  C   UNL     1       8.273  23.325  53.905  1.00  0.00    -0.044 A 
HETATM    9  C   UNL     1       8.838  22.044  53.828  1.00  0.00     0.008 A 
HETATM   10  C   UNL     1       9.136  21.338  54.993  1.00  0.00     0.001 A 
HETATM   11  C   UNL     1       8.883  21.912  56.234  1.00  0.00     0.001 A 
HETATM   12  C   UNL     1       8.334  23.195  56.312  1.00  0.00     0.014 A 
HETATM   13  C   UNL     1       7.978  24.109  52.659  1.00  0.00     0.054 C 
HETATM   14  C   UNL     1       6.725  25.015  52.809  1.00  0.00    -0.002 C 
HETATM   15  C   UNL     1       5.434  24.157  52.778  1.00  0.00     0.015 C 
HETATM   16  C   UNL     1       4.389  25.041  52.117  1.00  0.00     0.001 C 
HETATM   17  C   UNL     1       5.159  25.786  51.039  1.00  0.00     0.001 C 
HETATM   18  C   UNL     1       6.617  25.854  51.507  1.00  0.00     0.015 C 
HETATM   19  N   UNL     1       7.589  25.941  56.413  1.00  0.00    -0.217 NA
ENDROOT
BRANCH   1  20
HETATM   20  N   UNL     1       7.245  27.760  57.788  1.00  0.00    -0.171 NA
HETATM   21  H   UNL     1       6.473  28.331  58.147  1.00  0.00     0.156 HD
BRANCH  20  22
HETATM   22  N   UNL     1       8.485  28.426  57.892  1.00  0.00    -0.284 N 
HETATM   23  C   UNL     1       8.437  29.717  58.388  1.00  0.00     0.231 C 
HETATM   24  O   UNL     1       7.417  30.199  58.874  1.00  0.00    -0.272 OA
HETATM   25  H   UNL     1       9.161  28.153  57.178  1.00  0.00     0.184 HD
BRANCH  23  26
HETATM   26  C   UNL     1       9.750  30.456  58.244  1.00  0.00     0.100 C 
HETATM   27  C   UNL     1      10.620  29.866  57.147  1.00  0.00     0.014 C 
ENDBRANCH  23  26
ENDBRANCH  20  22
ENDBRANCH   1  20
BRANCH   2  28
HETATM   28  C   UNL     1       5.506  28.907  55.850  1.00  0.00     0.045 A 
HETATM   29  C   UNL     1       4.166  28.844  56.269  1.00  0.00     0.030 A 
HETATM   30  C   UNL     1       3.443  30.008  56.542  1.00  0.00     0.002 A 
HETATM   31  C   UNL     1       4.044  31.254  56.391  1.00  0.00     0.000 A 
HETATM   32  C   UNL     1       5.366  31.336  55.960  1.00  0.00     0.002 A 
HETATM   33  C   UNL     1       6.089  30.172  55.688  1.00  0.00     0.030 A 
ENDBRANCH   2  28
TORSDOF 4
ENDMDL
MODEL 3
REMARK VINA RESULT:      -9.4      1.767      7.927
REMARK  4 active torsions:
REMARK  status: ('A' for Active; 'I' for Inactive)
REMARK    1  A    between atoms: C_2  and  C_3 
REMARK       I    between atoms: C_3  and  N_4 
REMARK    2  A    between atoms: N_4  and  N_5 
REMARK    3  A    between atoms: N_5  and  C_6 
REMARK    4  A    between atoms: N_7  and  C_8 
ROOT
HETATM    1  C   UNL     1       6.314  28.353  52.319  1.00  0.00     0.208 A 
HETATM    2  N   UNL     1       5.930  27.088  51.877  1.00  0.00    -0.251 N 
HETATM    3  C   UNL     1       5.099  26.953  50.766  1.00  0.00     0.264 A 
HETATM    4  O   UNL     1       4.689  25.870  50.349  1.00  0.00    -0.267 OA
HETATM    5  C   UNL     1       4.754  28.201  50.019  1.00  0.00     0.049 A 
HETATM    6  C   UNL     1       5.279  29.342  50.508  1.00  0.00     0.083 A 
HETATM    7  C   UNL     1       5.077  30.611  49.758  1.00  0.00    -0.000 A 
HETATM    8  C   UNL     1       4.055  30.706  48.801  1.00  0.00    -0.044 A 
HETATM    9  C   UNL     1       3.843  31.904  48.102  1.00  0.00     0.008 A 
HETATM   10  C   UNL     1       4.663  33.006  48.336  1.00  0.00     0.001 A 
HETATM   11  C   UNL     1       5.688  32.921  49.273  1.00  0.00     0.001 A 
HETATM   12  C   UNL     1       5.891  31.732  49.981  1.00  0.00     0.014 A 
HETATM   13  C   UNL     1       3.157  29.522  48.582  1.00  0.00     0.054 C 
HETATM   14  C   UNL     1       3.910  28.171  48.728  1.00  0.00    -0.002 C 
HETATM   15  C   UNL     1       4.817  27.924  47.496  1.00  0.00     0.015 C 
HETATM   16  C   UNL     1       4.820  26.417  47.303  1.00  0.00     0.001 C 
HETATM   17  C   UNL     1       3.399  25.996  47.638  1.00  0.00     0.001 C 
HETATM   18  C   UNL     1       2.846  27.047  48.607  1.00  0.00     0.015 C 
HETATM   19  N   UNL     1       6.008  29.435  51.659  1.00  0.00    -0.217 NA
ENDROOT
BRANCH   1  20
HETATM   20  N   UNL     1       7.001  28.498  53.517  1.00  0.00    -0.171 NA
HETATM   21  H   UNL     1       7.639  27.738  53.773  1.00  0.00     0.156 HD
BRANCH  20  22
HETATM   22  N   UNL     1       6.219  28.921  54.615  1.00  0.00    -0.284 N 
HETATM   23  C   UNL     1       6.445  28.258  55.808  1.00  0.00     0.231 C 
HETATM   24  O   UNL     1       7.381  27.476  55.961  1.00  0.00    -0.272 OA
HETATM   25  H   UNL     1       5.289  29.252  54.356  1.00  0.00     0.184 HD
BRANCH  23  26
HETATM   26  C   UNL     1       5.418  28.581  56.870  1.00  0.00     0.100 C 
HETATM   27  C   UNL     1       4.113  29.076  56.270  1.00  0.00     0.014 C 
ENDBRANCH  23  26
ENDBRANCH  20  22
ENDBRANCH   1  20
BRANCH   2  28
HETATM   28  C   UNL     1       6.409  25.896  52.531  1.00  0.00     0.045 A 
HETATM   29  C   UNL     1       5.739  25.374  53.651  1.00  0.00     0.030 A 
HETATM   30  C   UNL     1       6.187  24.208  54.278  1.00  0.00     0.002 A 
HETATM   31  C   UNL     1       7.317  23.552  53.803  1.00  0.00     0.000 A 
HETATM   32  C   UNL     1       8.005  24.064  52.705  1.00  0.00     0.002 A 
HETATM   33  C   UNL     1       7.556  25.230  52.078  1.00  0.00     0.030 A 
ENDBRANCH   2  28
TORSDOF 4
ENDMDL
MODEL 4
REMARK VINA RESULT:      -9.4      0.975      1.028
REMARK  4 active torsions:
REMARK  status: ('A' for Active; 'I' for Inactive)
REMARK    1  A    between atoms: C_2  and  C_3 
REMARK       I    between atoms: C_3  and  N_4 
REMARK    2  A    between atoms: N_4  and  N_5 
REMARK    3  A    between atoms: N_5  and  C_6 
REMARK    4  A    between atoms: N_7  and  C_8 
ROOT
HETATM    1  C   UNL     1       5.445  27.363  51.053  1.00  0.00     0.208 A 
HETATM    2  N   UNL     1       5.082  28.419  51.886  1.00  0.00    -0.251 N 
HETATM    3  C   UNL     1       5.170  28.285  53.272  1.00  0.00     0.264 A 
HETATM    4  O   UNL     1       4.828  29.161  54.065  1.00  0.00    -0.267 OA
HETATM    5  C   UNL     1       5.778  27.023  53.795  1.00  0.00     0.049 A 
HETATM    6  C   UNL     1       6.173  26.132  52.864  1.00  0.00     0.083 A 
HETATM    7  C   UNL     1       6.890  24.902  53.298  1.00  0.00    -0.000 A 
HETATM    8  C   UNL     1       6.814  24.479  54.634  1.00  0.00    -0.044 A 
HETATM    9  C   UNL     1       7.469  23.310  55.049  1.00  0.00     0.008 A 
HETATM   10  C   UNL     1       8.225  22.570  54.141  1.00  0.00     0.001 A 
HETATM   11  C   UNL     1       8.319  22.987  52.817  1.00  0.00     0.001 A 
HETATM   12  C   UNL     1       7.654  24.142  52.399  1.00  0.00     0.014 A 
HETATM   13  C   UNL     1       5.969  25.267  55.594  1.00  0.00     0.054 C 
HETATM   14  C   UNL     1       6.005  26.792  55.303  1.00  0.00    -0.002 C 
HETATM   15  C   UNL     1       7.365  27.392  55.743  1.00  0.00     0.015 C 
HETATM   16  C   UNL     1       7.043  28.805  56.201  1.00  0.00     0.001 C 
HETATM   17  C   UNL     1       5.699  28.674  56.899  1.00  0.00     0.001 C 
HETATM   18  C   UNL     1       4.998  27.461  56.278  1.00  0.00     0.015 C 
HETATM   19  N   UNL     1       5.974  26.267  51.520  1.00  0.00    -0.217 NA
ENDROOT
BRANCH   1  20
HETATM   20  N   UNL     1       5.201  27.433  49.687  1.00  0.00    -0.171 NA
HETATM   21  H   UNL     1       4.805  28.312  49.338  1.00  0.00     0.156 HD
BRANCH  20  22
HETATM   22  N   UNL     1       4.556  26.308  49.129  1.00  0.00    -0.284 N 
HETATM   23  C   UNL     1       4.345  26.349  47.763  1.00  0.00     0.231 C 
HETATM   24  O   UNL     1       4.836  27.216  47.045  1.00  0.00    -0.272 OA
HETATM   25  H   UNL     1       3.890  25.859  49.759  1.00  0.00     0.184 HD
BRANCH  23  26
HETATM   26  C   UNL     1       3.441  25.240  47.269  1.00  0.00     0.100 C 
HETATM   27  C   UNL     1       2.885  24.405  48.410  1.00  0.00     0.014 C 
ENDBRANCH  23  26
ENDBRANCH  20  22
ENDBRANCH   1  20
BRANCH   2  28
HETATM   28  C   UNL     1       4.645  29.680  51.341  1.00  0.00     0.045 A 
HETATM   29  C   UNL     1       5.568  30.576  50.776  1.00  0.00     0.030 A 
HETATM   30  C   UNL     1       5.148  31.791  50.229  1.00  0.00     0.002 A 
HETATM   31  C   UNL     1       3.800  32.135  50.248  1.00  0.00     0.000 A 
HETATM   32  C   UNL     1       2.873  31.267  50.820  1.00  0.00     0.002 A 
HETATM   33  C   UNL     1       3.293  30.051  51.366  1.00  0.00     0.030 A 
ENDBRANCH   2  28
TORSDOF 4
ENDMDL
MODEL 5
REMARK VINA RESULT:      -9.2      1.783      6.705
REMARK  4 active torsions:
REMARK  status: ('A' for Active; 'I' for Inactive)
REMARK    1  A    between atoms: C_2  and  C_3 
REMARK       I    between atoms: C_3  and  N_4 
REMARK    2  A    between atoms: N_4  and  N_5 
REMARK    3  A    between atoms: N_5  and  C_6 
REMARK    4  A    between atoms: N_7  and  C_8 
ROOT
HETATM    1  C   UNL     1       5.543  25.682  52.724  1.00  0.00     0.208 A 
HETATM    2  N   UNL     1       5.809  26.966  53.196  1.00  0.00    -0.251 N 
HETATM    3  C   UNL     1       5.701  28.065  52.345  1.00  0.00     0.264 A 
HETATM    4  O   UNL     1       5.960  29.219  52.686  1.00  0.00    -0.267 OA
HETATM    5  C   UNL     1       5.176  27.810  50.969  1.00  0.00     0.049 A 
HETATM    6  C   UNL     1       4.868  26.528  50.686  1.00  0.00     0.083 A 
HETATM    7  C   UNL     1       4.235  26.209  49.377  1.00  0.00    -0.000 A 
HETATM    8  C   UNL     1       4.314  27.123  48.316  1.00  0.00    -0.044 A 
HETATM    9  C   UNL     1       3.737  26.823  47.073  1.00  0.00     0.008 A 
HETATM   10  C   UNL     1       3.058  25.620  46.888  1.00  0.00     0.001 A 
HETATM   11  C   UNL     1       2.962  24.710  47.936  1.00  0.00     0.001 A 
HETATM   12  C   UNL     1       3.549  25.002  49.171  1.00  0.00     0.014 A 
HETATM   13  C   UNL     1       5.077  28.401  48.519  1.00  0.00     0.054 C 
HETATM   14  C   UNL     1       4.934  28.955  49.963  1.00  0.00    -0.002 C 
HETATM   15  C   UNL     1       3.525  29.566  50.170  1.00  0.00     0.015 C 
HETATM   16  C   UNL     1       3.732  30.716  51.141  1.00  0.00     0.001 C 
HETATM   17  C   UNL     1       5.066  31.316  50.729  1.00  0.00     0.001 C 
HETATM   18  C   UNL     1       5.868  30.192  50.066  1.00  0.00     0.015 C 
HETATM   19  N   UNL     1       5.086  25.470  51.521  1.00  0.00    -0.217 NA
ENDROOT
BRANCH   1  20
HETATM   20  N   UNL     1       5.811  24.574  53.518  1.00  0.00    -0.171 NA
HETATM   21  H   UNL     1       5.972  24.754  54.514  1.00  0.00     0.156 HD
BRANCH  20  22
HETATM   22  N   UNL     1       6.752  23.664  52.990  1.00  0.00    -0.284 N 
HETATM   23  C   UNL     1       7.443  22.904  53.916  1.00  0.00     0.231 C 
HETATM   24  O   UNL     1       7.144  22.884  55.108  1.00  0.00    -0.272 OA
HETATM   25  H   UNL     1       7.192  23.980  52.124  1.00  0.00     0.184 HD
BRANCH  23  26
HETATM   26  C   UNL     1       8.598  22.136  53.310  1.00  0.00     0.100 C 
HETATM   27  C   UNL     1       8.233  20.689  53.022  1.00  0.00     0.014 C 
ENDBRANCH  23  26
ENDBRANCH  20  22
ENDBRANCH   1  20
BRANCH   2  28
HETATM   28  C   UNL     1       6.164  27.191  54.574  1.00  0.00     0.045 A 
HETATM   29  C   UNL     1       5.173  27.444  55.539  1.00  0.00     0.030 A 
HETATM   30  C   UNL     1       5.509  27.645  56.880  1.00  0.00     0.002 A 
HETATM   31  C   UNL     1       6.841  27.608  57.278  1.00  0.00     0.000 A 
HETATM   32  C   UNL     1       7.839  27.377  56.333  1.00  0.00     0.002 A 
HETATM   33  C   UNL     1       7.502  27.175  54.992  1.00  0.00     0.030 A 
ENDBRANCH   2  28
TORSDOF 4
ENDMDL
MODEL 6
REMARK VINA RESULT:      -8.8      7.070     10.573
REMARK  4 active torsions:
REMARK  status: ('A' for Active; 'I' for Inactive)
REMARK    1  A    between atoms: C_2  and  C_3 
REMARK       I    between atoms: C_3  and  N_4 
REMARK    2  A    between atoms: N_4  and  N_5 
REMARK    3  A    between atoms: N_5  and  C_6 
REMARK    4  A    between atoms: N_7  and  C_8 
ROOT
HETATM    1  C   UNL     1       5.753  31.604  59.119  1.00  0.00     0.208 A 
HETATM    2  N   UNL     1       4.687  32.291  58.541  1.00  0.00    -0.251 N 
HETATM    3  C   UNL     1       3.937  33.190  59.297  1.00  0.00     0.264 A 
HETATM    4  O   UNL     1       2.959  33.798  58.862  1.00  0.00    -0.267 OA
HETATM    5  C   UNL     1       4.406  33.465  60.690  1.00  0.00     0.049 A 
HETATM    6  C   UNL     1       5.511  32.799  61.079  1.00  0.00     0.083 A 
HETATM    7  C   UNL     1       6.107  33.101  62.409  1.00  0.00    -0.000 A 
HETATM    8  C   UNL     1       5.343  33.752  63.390  1.00  0.00    -0.044 A 
HETATM    9  C   UNL     1       5.889  34.023  64.653  1.00  0.00     0.008 A 
HETATM   10  C   UNL     1       7.206  33.670  64.938  1.00  0.00     0.001 A 
HETATM   11  C   UNL     1       7.979  33.036  63.970  1.00  0.00     0.001 A 
HETATM   12  C   UNL     1       7.431  32.752  62.715  1.00  0.00     0.014 A 
HETATM   13  C   UNL     1       3.914  34.097  63.081  1.00  0.00     0.054 C 
HETATM   14  C   UNL     1       3.709  34.501  61.596  1.00  0.00    -0.002 C 
HETATM   15  C   UNL     1       4.283  35.917  61.338  1.00  0.00     0.015 C 
HETATM   16  C   UNL     1       3.382  36.522  60.274  1.00  0.00     0.001 C 
HETATM   17  C   UNL     1       1.993  36.022  60.635  1.00  0.00     0.001 C 
HETATM   18  C   UNL     1       2.182  34.702  61.391  1.00  0.00     0.015 C 
HETATM   19  N   UNL     1       6.154  31.851  60.335  1.00  0.00    -0.217 NA
ENDROOT
BRANCH   1  20
HETATM   20  N   UNL     1       6.394  30.589  58.421  1.00  0.00    -0.171 NA
HETATM   21  H   UNL     1       6.274  29.638  58.786  1.00  0.00     0.156 HD
BRANCH  20  22
HETATM   22  N   UNL     1       7.735  30.850  58.066  1.00  0.00    -0.284 N 
HETATM   23  C   UNL     1       8.594  29.767  58.111  1.00  0.00     0.231 C 
HETATM   24  O   UNL     1       8.196  28.615  58.275  1.00  0.00    -0.272 OA
HETATM   25  H   UNL     1       8.050  31.791  58.306  1.00  0.00     0.184 HD
BRANCH  23  26
HETATM   26  C   UNL     1      10.048  30.156  57.962  1.00  0.00     0.100 C 
HETATM   27  C   UNL     1      10.629  29.697  56.636  1.00  0.00     0.014 C 
ENDBRANCH  23  26
ENDBRANCH  20  22
ENDBRANCH   1  20
BRANCH   2  28
HETATM   28  C   UNL     1       4.358  32.116  57.149  1.00  0.00     0.045 A 
HETATM   29  C   UNL     1       4.938  32.936  56.166  1.00  0.00     0.030 A 
HETATM   30  C   UNL     1       4.638  32.759  54.813  1.00  0.00     0.002 A 
HETATM   31  C   UNL     1       3.745  31.767  54.421  1.00  0.00     0.000 A 
HETATM   32  C   UNL     1       3.146  30.957  55.382  1.00  0.00     0.002 A 
HETATM   33  C   UNL     1       3.447  31.133  56.736  1.00  0.00     0.030 A 
ENDBRANCH   2  28
TORSDOF 4
ENDMDL
MODEL 7
REMARK VINA RESULT:      -8.8      3.108      6.583
REMARK  4 active torsions:
REMARK  status: ('A' for Active; 'I' for Inactive)
REMARK    1  A    between atoms: C_2  and  C_3 
REMARK       I    between atoms: C_3  and  N_4 
REMARK    2  A    between atoms: N_4  and  N_5 
REMARK    3  A    between atoms: N_5  and  C_6 
REMARK    4  A    between atoms: N_7  and  C_8 
ROOT
HETATM    1  C   UNL     1       7.183  27.406  55.211  1.00  0.00     0.208 A 
HETATM    2  N   UNL     1       5.962  27.621  54.574  1.00  0.00    -0.251 N 
HETATM    3  C   UNL     1       5.093  28.610  55.033  1.00  0.00     0.264 A 
HETATM    4  O   UNL     1       3.985  28.825  54.543  1.00  0.00    -0.267 OA
HETATM    5  C   UNL     1       5.586  29.488  56.138  1.00  0.00     0.049 A 
HETATM    6  C   UNL     1       6.828  29.224  56.589  1.00  0.00     0.083 A 
HETATM    7  C   UNL     1       7.435  30.123  57.608  1.00  0.00    -0.000 A 
HETATM    8  C   UNL     1       6.619  30.974  58.369  1.00  0.00    -0.044 A 
HETATM    9  C   UNL     1       7.178  31.810  59.346  1.00  0.00     0.008 A 
HETATM   10  C   UNL     1       8.556  31.821  59.554  1.00  0.00     0.001 A 
HETATM   11  C   UNL     1       9.378  30.991  58.797  1.00  0.00     0.001 A 
HETATM   12  C   UNL     1       8.820  30.146  57.834  1.00  0.00     0.014 A 
HETATM   13  C   UNL     1       5.133  30.928  58.158  1.00  0.00     0.054 C 
HETATM   14  C   UNL     1       4.751  30.669  56.675  1.00  0.00    -0.002 C 
HETATM   15  C   UNL     1       5.002  31.940  55.824  1.00  0.00     0.015 C 
HETATM   16  C   UNL     1       3.928  31.915  54.750  1.00  0.00     0.001 C 
HETATM   17  C   UNL     1       2.698  31.379  55.465  1.00  0.00     0.001 C 
HETATM   18  C   UNL     1       3.206  30.519  56.628  1.00  0.00     0.015 C 
HETATM   19  N   UNL     1       7.603  28.178  56.174  1.00  0.00    -0.217 NA
ENDROOT
BRANCH   1  20
HETATM   20  N   UNL     1       7.972  26.317  54.864  1.00  0.00    -0.171 NA
HETATM   21  H   UNL     1       7.992  26.066  53.870  1.00  0.00     0.156 HD
BRANCH  20  22
HETATM   22  N   UNL     1       7.833  25.181  55.691  1.00  0.00    -0.284 N 
HETATM   23  C   UNL     1       7.934  23.956  55.056  1.00  0.00     0.231 C 
HETATM   24  O   UNL     1       8.295  23.847  53.887  1.00  0.00    -0.272 OA
HETATM   25  H   UNL     1       7.206  25.322  56.484  1.00  0.00     0.184 HD
BRANCH  23  26
HETATM   26  C   UNL     1       7.535  22.795  55.941  1.00  0.00     0.100 C 
HETATM   27  C   UNL     1       7.769  21.455  55.264  1.00  0.00     0.014 C 
ENDBRANCH  23  26
ENDBRANCH  20  22
ENDBRANCH   1  20
BRANCH   2  28
HETATM   28  C   UNL     1       5.586  26.856  53.412  1.00  0.00     0.045 A 
HETATM   29  C   UNL     1       5.773  27.376  52.119  1.00  0.00     0.030 A 
HETATM   30  C   UNL     1       5.428  26.632  50.988  1.00  0.00     0.002 A 
HETATM   31  C   UNL     1       4.880  25.361  51.130  1.00  0.00     0.000 A 
HETATM   32  C   UNL     1       4.670  24.837  52.404  1.00  0.00     0.002 A 
HETATM   33  C   UNL     1       5.016  25.581  53.535  1.00  0.00     0.030 A 
ENDBRANCH   2  28
TORSDOF 4
ENDMDL
MODEL 8
REMARK VINA RESULT:      -8.7      2.318      2.819
REMARK  4 active torsions:
REMARK  status: ('A' for Active; 'I' for Inactive)
REMARK    1  A    between atoms: C_2  and  C_3 
REMARK       I    between atoms: C_3  and  N_4 
REMARK    2  A    between atoms: N_4  and  N_5 
REMARK    3  A    between atoms: N_5  and  C_6 
REMARK    4  A    between atoms: N_7  and  C_8 
ROOT
HETATM    1  C   UNL     1       4.309  27.967  53.396  1.00  0.00     0.208 A 
HETATM    2  N   UNL     1       4.582  29.014  54.275  1.00  0.00    -0.251 N 
HETATM    3  C   UNL     1       5.522  28.853  55.292  1.00  0.00     0.264 A 
HETATM    4  O   UNL     1       5.780  29.721  56.125  1.00  0.00    -0.267 OA
HETATM    5  C   UNL     1       6.292  27.572  55.309  1.00  0.00     0.049 A 
HETATM    6  C   UNL     1       5.988  26.691  54.335  1.00  0.00     0.083 A 
HETATM    7  C   UNL     1       6.787  25.441  54.214  1.00  0.00    -0.000 A 
HETATM    8  C   UNL     1       7.561  24.995  55.296  1.00  0.00    -0.044 A 
HETATM    9  C   UNL     1       8.303  23.808  55.199  1.00  0.00     0.008 A 
HETATM   10  C   UNL     1       8.296  23.072  54.016  1.00  0.00     0.001 A 
HETATM   11  C   UNL     1       7.542  23.511  52.932  1.00  0.00     0.001 A 
HETATM   12  C   UNL     1       6.792  24.685  53.032  1.00  0.00     0.014 A 
HETATM   13  C   UNL     1       7.534  25.780  56.576  1.00  0.00     0.054 C 
HETATM   14  C   UNL     1       7.416  27.309  56.333  1.00  0.00    -0.002 C 
HETATM   15  C   UNL     1       8.762  27.878  55.816  1.00  0.00     0.015 C 
HETATM   16  C   UNL     1       8.837  29.288  56.379  1.00  0.00     0.001 C 
HETATM   17  C   UNL     1       8.234  29.167  57.769  1.00  0.00     0.001 C 
HETATM   18  C   UNL     1       7.268  27.977  57.727  1.00  0.00     0.015 C 
HETATM   19  N   UNL     1       4.987  26.853  53.420  1.00  0.00    -0.217 NA
ENDROOT
BRANCH   1  20
HETATM   20  N   UNL     1       3.259  28.066  52.493  1.00  0.00    -0.171 NA
HETATM   21  H   UNL     1       2.388  27.590  52.752  1.00  0.00     0.156 HD
BRANCH  20  22
HETATM   22  N   UNL     1       3.600  27.841  51.141  1.00  0.00    -0.284 N 
HETATM   23  C   UNL     1       2.935  28.622  50.213  1.00  0.00     0.231 C 
HETATM   24  O   UNL     1       2.225  29.572  50.537  1.00  0.00    -0.272 OA
HETATM   25  H   UNL     1       3.862  26.876  50.937  1.00  0.00     0.184 HD
BRANCH  23  26
HETATM   26  C   UNL     1       3.159  28.168  48.787  1.00  0.00     0.100 C 
HETATM   27  C   UNL     1       4.041  26.933  48.713  1.00  0.00     0.014 C 
ENDBRANCH  23  26
ENDBRANCH  20  22
ENDBRANCH   1  20
BRANCH   2  28
HETATM   28  C   UNL     1       3.930  30.291  54.133  1.00  0.00     0.045 A 
HETATM   29  C   UNL     1       4.168  31.098  53.007  1.00  0.00     0.030 A 
HETATM   30  C   UNL     1       3.525  32.329  52.855  1.00  0.00     0.002 A 
HETATM   31  C   UNL     1       2.641  32.779  53.830  1.00  0.00     0.000 A 
HETATM   32  C   UNL     1       2.406  32.001  54.962  1.00  0.00     0.002 A 
HETATM   33  C   UNL     1       3.049  30.770  55.114  1.00  0.00     0.030 A 
ENDBRANCH   2  28
TORSDOF 4
ENDMDL
MODEL 9
REMARK VINA RESULT:      -8.7      1.857      8.043
REMARK  4 active torsions:
REMARK  status: ('A' for Active; 'I' for Inactive)
REMARK    1  A    between atoms: C_2  and  C_3 
REMARK       I    between atoms: C_3  and  N_4 
REMARK    2  A    between atoms: N_4  and  N_5 
REMARK    3  A    between atoms: N_5  and  C_6 
REMARK    4  A    between atoms: N_7  and  C_8 
ROOT
HETATM    1  C   UNL     1       5.047  28.076  53.027  1.00  0.00     0.208 A 
HETATM    2  N   UNL     1       5.241  26.973  52.198  1.00  0.00    -0.251 N 
HETATM    3  C   UNL     1       4.648  26.927  50.937  1.00  0.00     0.264 A 
HETATM    4  O   UNL     1       4.745  25.968  50.172  1.00  0.00    -0.267 OA
HETATM    5  C   UNL     1       3.915  28.150  50.486  1.00  0.00     0.049 A 
HETATM    6  C   UNL     1       3.894  29.177  51.358  1.00  0.00     0.083 A 
HETATM    7  C   UNL     1       3.282  30.468  50.941  1.00  0.00    -0.000 A 
HETATM    8  C   UNL     1       2.408  30.510  49.844  1.00  0.00    -0.044 A 
HETATM    9  C   UNL     1       1.811  31.718  49.455  1.00  0.00     0.008 A 
HETATM   10  C   UNL     1       2.101  32.896  50.141  1.00  0.00     0.001 A 
HETATM   11  C   UNL     1       2.975  32.870  51.223  1.00  0.00     0.001 A 
HETATM   12  C   UNL     1       3.559  31.664  51.621  1.00  0.00     0.014 A 
HETATM   13  C   UNL     1       2.079  29.228  49.134  1.00  0.00     0.054 C 
HETATM   14  C   UNL     1       3.286  28.252  49.080  1.00  0.00    -0.002 C 
HETATM   15  C   UNL     1       4.336  28.748  48.054  1.00  0.00     0.015 C 
HETATM   16  C   UNL     1       4.954  27.485  47.479  1.00  0.00     0.001 C 
HETATM   17  C   UNL     1       3.790  26.514  47.376  1.00  0.00     0.001 C 
HETATM   18  C   UNL     1       2.771  26.933  48.441  1.00  0.00     0.015 C 
HETATM   19  N   UNL     1       4.405  29.137  52.624  1.00  0.00    -0.217 NA
ENDROOT
BRANCH   1  20
HETATM   20  N   UNL     1       5.495  28.052  54.342  1.00  0.00    -0.171 NA
HETATM   21  H   UNL     1       4.781  28.160  55.069  1.00  0.00     0.156 HD
BRANCH  20  22
HETATM   22  N   UNL     1       6.638  28.837  54.606  1.00  0.00    -0.284 N 
HETATM   23  C   UNL     1       7.661  28.204  55.288  1.00  0.00     0.231 C 
HETATM   24  O   UNL     1       7.663  26.993  55.499  1.00  0.00    -0.272 OA
HETATM   25  H   UNL     1       6.435  29.827  54.748  1.00  0.00     0.184 HD
BRANCH  23  26
HETATM   26  C   UNL     1       8.742  29.155  55.753  1.00  0.00     0.100 C 
HETATM   27  C   UNL     1       9.261  28.798  57.136  1.00  0.00     0.014 C 
ENDBRANCH  23  26
ENDBRANCH  20  22
ENDBRANCH   1  20
BRANCH   2  28
HETATM   28  C   UNL     1       6.084  25.877  52.605  1.00  0.00     0.045 A 
HETATM   29  C   UNL     1       7.400  25.766  52.125  1.00  0.00     0.030 A 
HETATM   30  C   UNL     1       8.228  24.716  52.530  1.00  0.00     0.002 A 
HETATM   31  C   UNL     1       7.750  23.754  53.413  1.00  0.00     0.000 A 
HETATM   32  C   UNL     1       6.442  23.836  53.886  1.00  0.00     0.002 A 
HETATM   33  C   UNL     1       5.615  24.887  53.480  1.00  0.00     0.030 A 
ENDBRANCH   2  28
TORSDOF 4
ENDMDL
MODEL 10
REMARK VINA RESULT:      -8.2     16.164     18.484
REMARK  4 active torsions:
REMARK  status: ('A' for Active; 'I' for Inactive)
REMARK    1  A    between atoms: C_2  and  C_3 
REMARK       I    between atoms: C_3  and  N_4 
REMARK    2  A    between atoms: N_4  and  N_5 
REMARK    3  A    between atoms: N_5  and  C_6 
REMARK    4  A    between atoms: N_7  and  C_8 
ROOT
HETATM    1  C   UNL     1      10.481   9.310  56.517  1.00  0.00     0.208 A 
HETATM    2  N   UNL     1       9.902   9.873  55.382  1.00  0.00    -0.251 N 
HETATM    3  C   UNL     1      10.645  10.722  54.561  1.00  0.00     0.264 A 
HETATM    4  O   UNL     1      10.185  11.285  53.568  1.00  0.00    -0.267 OA
HETATM    5  C   UNL     1      12.094  10.889  54.890  1.00  0.00     0.049 A 
HETATM    6  C   UNL     1      12.535  10.203  55.962  1.00  0.00     0.083 A 
HETATM    7  C   UNL     1      13.988  10.227  56.288  1.00  0.00    -0.000 A 
HETATM    8  C   UNL     1      14.811  11.230  55.755  1.00  0.00    -0.044 A 
HETATM    9  C   UNL     1      16.177  11.273  56.072  1.00  0.00     0.008 A 
HETATM   10  C   UNL     1      16.734  10.302  56.902  1.00  0.00     0.001 A 
HETATM   11  C   UNL     1      15.931   9.294  57.427  1.00  0.00     0.001 A 
HETATM   12  C   UNL     1      14.567   9.260  57.124  1.00  0.00     0.014 A 
HETATM   13  C   UNL     1      14.191  12.289  54.889  1.00  0.00     0.054 C 
HETATM   14  C   UNL     1      13.037  11.736  54.009  1.00  0.00    -0.002 C 
HETATM   15  C   UNL     1      13.605  10.881  52.849  1.00  0.00     0.015 C 
HETATM   16  C   UNL     1      12.643  11.095  51.692  1.00  0.00     0.001 C 
HETATM   17  C   UNL     1      12.252  12.560  51.799  1.00  0.00     0.001 C 
HETATM   18  C   UNL     1      12.410  12.951  53.272  1.00  0.00     0.015 C 
HETATM   19  N   UNL     1      11.746   9.463  56.795  1.00  0.00    -0.217 NA
ENDROOT
BRANCH   1  20
HETATM   20  N   UNL     1       9.701   8.603  57.424  1.00  0.00    -0.171 NA
HETATM   21  H   UNL     1       8.915   8.073  57.033  1.00  0.00     0.156 HD
BRANCH  20  22
HETATM   22  N   UNL     1       9.331   9.313  58.587  1.00  0.00    -0.284 N 
HETATM   23  C   UNL     1       7.998   9.227  58.948  1.00  0.00     0.231 C 
HETATM   24  O   UNL     1       7.216   8.448  58.406  1.00  0.00    -0.272 OA
HETATM   25  H   UNL     1       9.871  10.165  58.740  1.00  0.00     0.184 HD
BRANCH  23  26
HETATM   26  C   UNL     1       7.617  10.196  60.046  1.00  0.00     0.100 C 
HETATM   27  C   UNL     1       8.801  10.549  60.931  1.00  0.00     0.014 C 
ENDBRANCH  23  26
ENDBRANCH  20  22
ENDBRANCH   1  20
BRANCH   2  28
HETATM   28  C   UNL     1       8.545   9.567  55.010  1.00  0.00     0.045 A 
HETATM   29  C   UNL     1       8.254   8.444  54.216  1.00  0.00     0.030 A 
HETATM   30  C   UNL     1       6.938   8.130  53.867  1.00  0.00     0.002 A 
HETATM   31  C   UNL     1       5.891   8.940  54.297  1.00  0.00     0.000 A 
HETATM   32  C   UNL     1       6.161  10.067  55.070  1.00  0.00     0.002 A 
HETATM   33  C   UNL     1       7.478  10.380  55.419  1.00  0.00     0.030 A 
ENDBRANCH   2  28
TORSDOF 4
ENDMDL
