MODEL 1
REMARK VINA RESULT:      -8.1      0.000      0.000
REMARK  8 active torsions:
REMARK  status: ('A' for Active; 'I' for Inactive)
REMARK    1  A    between atoms: C_2  and  C_3 
REMARK    2  A    between atoms: C_3  and  N_4 
REMARK    3  A    between atoms: C_7  and  C_8 
REMARK       I    between atoms: C_8  and  N_9 
REMARK    4  A    between atoms: N_9  and  N_10 
REMARK       I    between atoms: N_10  and  C_11 
REMARK    5  A    between atoms: C_11  and  C_12 
REMARK    6  A    between atoms: C_15  and  O_16 
REMARK    7  A    between atoms: O_16  and  C_17 
REMARK    8  A    between atoms: C_23  and  C_24 
ROOT
HETATM    1  C   UNL     1       6.152  28.436  56.659  1.00  0.00     0.273 C 
HETATM    2  N   UNL     1       7.278  29.048  57.177  1.00  0.00    -0.263 N 
HETATM    3  O   UNL     1       5.078  28.473  57.254  1.00  0.00    -0.266 OA
HETATM    4  H   UNL     1       8.214  28.942  56.788  1.00  0.00     0.190 HD
ENDROOT
BRANCH   2   5
HETATM    5  N   UNL     1       7.182  29.705  58.409  1.00  0.00    -0.263 N 
HETATM    6  C   UNL     1       8.226  30.518  58.795  1.00  0.00     0.270 C 
HETATM    7  O   UNL     1       9.218  30.697  58.090  1.00  0.00    -0.266 OA
HETATM    8  H   UNL     1       6.438  29.390  59.029  1.00  0.00     0.190 HD
BRANCH   6   9
HETATM    9  C   UNL     1       8.110  31.163  60.131  1.00  0.00     0.033 A 
HETATM   10  C   UNL     1       8.896  30.669  61.179  1.00  0.00     0.020 A 
HETATM   11  C   UNL     1       8.826  31.256  62.444  1.00  0.00     0.038 A 
HETATM   12  C   UNL     1       7.987  32.347  62.680  1.00  0.00     0.068 A 
HETATM   13  C   UNL     1       7.209  32.848  61.635  1.00  0.00     0.038 A 
HETATM   14  C   UNL     1       7.271  32.261  60.363  1.00  0.00     0.020 A 
BRANCH  12  15
HETATM   15  O   UNL     1       8.023  32.828  63.959  1.00  0.00    -0.352 OA
BRANCH  15  16
HETATM   16  C   UNL     1       7.030  33.788  64.321  1.00  0.00     0.171 C 
HETATM   17  C   UNL     1       6.917  33.795  65.835  1.00  0.00     0.034 C 
ENDBRANCH  15  16
ENDBRANCH  12  15
ENDBRANCH   6   9
ENDBRANCH   2   5
BRANCH   1  18
HETATM   18  C   UNL     1       6.363  27.803  55.368  1.00  0.00     0.077 A 
HETATM   19  C   UNL     1       6.751  28.484  54.187  1.00  0.00     0.158 A 
HETATM   20  N   UNL     1       6.869  27.684  53.133  1.00  0.00    -0.183 NA
HETATM   21  N   UNL     1       6.514  26.474  53.607  1.00  0.00    -0.268 N 
HETATM   22  C   UNL     1       6.256  26.474  54.966  1.00  0.00     0.052 A 
BRANCH  21  23
HETATM   23  C   UNL     1       6.415  25.362  52.660  1.00  0.00     0.106 C 
HETATM   24  C   UNL     1       5.746  25.815  51.356  1.00  0.00     0.034 C 
BRANCH  23  25
HETATM   25  C   UNL     1       7.780  24.712  52.374  1.00  0.00     0.022 C 
HETATM   26  C   UNL     1       7.835  23.242  52.767  1.00  0.00     0.007 C 
ENDBRANCH  23  25
ENDBRANCH  21  23
BRANCH  22  27
HETATM   27  C   UNL     1       5.972  25.206  55.778  1.00  0.00     0.038 A 
HETATM   28  C   UNL     1       7.106  24.320  56.236  1.00  0.00     0.011 A 
HETATM   29  C   UNL     1       6.340  25.119  57.237  1.00  0.00     0.011 A 
ENDBRANCH  22  27
ENDBRANCH   1  18
TORSDOF 8
ENDMDL
MODEL 2
REMARK VINA RESULT:      -7.7      2.883      9.569
REMARK  8 active torsions:
REMARK  status: ('A' for Active; 'I' for Inactive)
REMARK    1  A    between atoms: C_2  and  C_3 
REMARK    2  A    between atoms: C_3  and  N_4 
REMARK    3  A    between atoms: C_7  and  C_8 
REMARK       I    between atoms: C_8  and  N_9 
REMARK    4  A    between atoms: N_9  and  N_10 
REMARK       I    between atoms: N_10  and  C_11 
REMARK    5  A    between atoms: C_11  and  C_12 
REMARK    6  A    between atoms: C_15  and  O_16 
REMARK    7  A    between atoms: O_16  and  C_17 
REMARK    8  A    between atoms: C_23  and  C_24 
ROOT
HETATM    1  C   UNL     1       5.574  29.776  57.118  1.00  0.00     0.273 C 
HETATM    2  N   UNL     1       5.329  28.495  57.578  1.00  0.00    -0.263 N 
HETATM    3  O   UNL     1       6.164  29.969  56.058  1.00  0.00    -0.266 OA
HETATM    4  H   UNL     1       4.957  28.284  58.503  1.00  0.00     0.190 HD
ENDROOT
BRANCH   2   5
HETATM    5  N   UNL     1       5.781  27.409  56.821  1.00  0.00    -0.263 N 
HETATM    6  C   UNL     1       6.975  26.820  57.178  1.00  0.00     0.270 C 
HETATM    7  O   UNL     1       7.636  27.202  58.141  1.00  0.00    -0.266 OA
HETATM    8  H   UNL     1       5.300  27.246  55.938  1.00  0.00     0.190 HD
BRANCH   6   9
HETATM    9  C   UNL     1       7.448  25.698  56.321  1.00  0.00     0.033 A 
HETATM   10  C   UNL     1       8.266  24.720  56.897  1.00  0.00     0.020 A 
HETATM   11  C   UNL     1       8.718  23.644  56.129  1.00  0.00     0.038 A 
HETATM   12  C   UNL     1       8.352  23.520  54.787  1.00  0.00     0.068 A 
HETATM   13  C   UNL     1       7.529  24.490  54.213  1.00  0.00     0.038 A 
HETATM   14  C   UNL     1       7.074  25.575  54.976  1.00  0.00     0.020 A 
BRANCH  12  15
HETATM   15  O   UNL     1       8.857  22.418  54.157  1.00  0.00    -0.352 OA
BRANCH  15  16
HETATM   16  C   UNL     1       8.015  21.268  54.083  1.00  0.00     0.171 C 
HETATM   17  C   UNL     1       8.431  20.461  52.865  1.00  0.00     0.034 C 
ENDBRANCH  15  16
ENDBRANCH  12  15
ENDBRANCH   6   9
ENDBRANCH   2   5
BRANCH   1  18
HETATM   18  C   UNL     1       5.043  30.824  57.973  1.00  0.00     0.077 A 
HETATM   19  C   UNL     1       3.665  31.106  58.147  1.00  0.00     0.158 A 
HETATM   20  N   UNL     1       3.435  32.120  58.974  1.00  0.00    -0.183 NA
HETATM   21  N   UNL     1       4.669  32.542  59.315  1.00  0.00    -0.268 N 
HETATM   22  C   UNL     1       5.679  31.758  58.788  1.00  0.00     0.052 A 
BRANCH  21  23
HETATM   23  C   UNL     1       4.784  33.746  60.137  1.00  0.00     0.106 C 
HETATM   24  C   UNL     1       3.671  34.746  59.800  1.00  0.00     0.034 C 
BRANCH  23  25
HETATM   25  C   UNL     1       4.793  33.430  61.644  1.00  0.00     0.022 C 
HETATM   26  C   UNL     1       5.919  34.129  62.394  1.00  0.00     0.007 C 
ENDBRANCH  23  25
ENDBRANCH  21  23
BRANCH  22  27
HETATM   27  C   UNL     1       7.161  31.933  59.135  1.00  0.00     0.038 A 
HETATM   28  C   UNL     1       7.698  31.455  60.463  1.00  0.00     0.011 A 
HETATM   29  C   UNL     1       8.087  30.746  59.208  1.00  0.00     0.011 A 
ENDBRANCH  22  27
ENDBRANCH   1  18
TORSDOF 8
ENDMDL
MODEL 3
REMARK VINA RESULT:      -7.5      2.189      9.871
REMARK  8 active torsions:
REMARK  status: ('A' for Active; 'I' for Inactive)
REMARK    1  A    between atoms: C_2  and  C_3 
REMARK    2  A    between atoms: C_3  and  N_4 
REMARK    3  A    between atoms: C_7  and  C_8 
REMARK       I    between atoms: C_8  and  N_9 
REMARK    4  A    between atoms: N_9  and  N_10 
REMARK       I    between atoms: N_10  and  C_11 
REMARK    5  A    between atoms: C_11  and  C_12 
REMARK    6  A    between atoms: C_15  and  O_16 
REMARK    7  A    between atoms: O_16  and  C_17 
REMARK    8  A    between atoms: C_23  and  C_24 
ROOT
HETATM    1  C   UNL     1       7.603  30.700  58.598  1.00  0.00     0.273 C 
HETATM    2  N   UNL     1       6.855  29.546  58.457  1.00  0.00    -0.263 N 
HETATM    3  O   UNL     1       8.640  30.867  57.962  1.00  0.00    -0.266 OA
HETATM    4  H   UNL     1       6.060  29.307  59.048  1.00  0.00     0.190 HD
ENDROOT
BRANCH   2   5
HETATM    5  N   UNL     1       7.307  28.552  57.582  1.00  0.00    -0.263 N 
HETATM    6  C   UNL     1       6.365  27.808  56.903  1.00  0.00     0.270 C 
HETATM    7  O   UNL     1       5.158  28.002  57.025  1.00  0.00    -0.266 OA
HETATM    8  H   UNL     1       8.293  28.310  57.649  1.00  0.00     0.190 HD
BRANCH   6   9
HETATM    9  C   UNL     1       6.882  26.728  56.018  1.00  0.00     0.033 A 
HETATM   10  C   UNL     1       7.221  25.500  56.596  1.00  0.00     0.020 A 
HETATM   11  C   UNL     1       7.696  24.457  55.796  1.00  0.00     0.038 A 
HETATM   12  C   UNL     1       7.826  24.618  54.415  1.00  0.00     0.068 A 
HETATM   13  C   UNL     1       7.480  25.839  53.835  1.00  0.00     0.038 A 
HETATM   14  C   UNL     1       7.006  26.892  54.631  1.00  0.00     0.020 A 
BRANCH  12  15
HETATM   15  O   UNL     1       8.293  23.517  53.754  1.00  0.00    -0.352 OA
BRANCH  15  16
HETATM   16  C   UNL     1       7.704  22.260  54.084  1.00  0.00     0.171 C 
HETATM   17  C   UNL     1       8.350  21.197  53.213  1.00  0.00     0.034 C 
ENDBRANCH  15  16
ENDBRANCH  12  15
ENDBRANCH   6   9
ENDBRANCH   2   5
BRANCH   1  18
HETATM   18  C   UNL     1       7.029  31.670  59.515  1.00  0.00     0.077 A 
HETATM   19  C   UNL     1       5.795  32.339  59.318  1.00  0.00     0.158 A 
HETATM   20  N   UNL     1       5.493  33.186  60.295  1.00  0.00    -0.183 NA
HETATM   21  N   UNL     1       6.553  33.112  61.123  1.00  0.00    -0.268 N 
HETATM   22  C   UNL     1       7.485  32.168  60.734  1.00  0.00     0.052 A 
BRANCH  21  23
HETATM   23  C   UNL     1       6.604  34.025  62.265  1.00  0.00     0.106 C 
HETATM   24  C   UNL     1       5.594  35.167  62.096  1.00  0.00     0.034 C 
BRANCH  23  25
HETATM   25  C   UNL     1       6.385  33.301  63.606  1.00  0.00     0.022 C 
HETATM   26  C   UNL     1       5.198  32.349  63.583  1.00  0.00     0.007 C 
ENDBRANCH  23  25
ENDBRANCH  21  23
BRANCH  22  27
HETATM   27  C   UNL     1       8.709  31.783  61.572  1.00  0.00     0.038 A 
HETATM   28  C   UNL     1       8.609  30.706  62.625  1.00  0.00     0.011 A 
HETATM   29  C   UNL     1       9.396  30.456  61.381  1.00  0.00     0.011 A 
ENDBRANCH  22  27
ENDBRANCH   1  18
TORSDOF 8
ENDMDL
MODEL 4
REMARK VINA RESULT:      -7.4      4.597      5.657
REMARK  8 active torsions:
REMARK  status: ('A' for Active; 'I' for Inactive)
REMARK    1  A    between atoms: C_2  and  C_3 
REMARK    2  A    between atoms: C_3  and  N_4 
REMARK    3  A    between atoms: C_7  and  C_8 
REMARK       I    between atoms: C_8  and  N_9 
REMARK    4  A    between atoms: N_9  and  N_10 
REMARK       I    between atoms: N_10  and  C_11 
REMARK    5  A    between atoms: C_11  and  C_12 
REMARK    6  A    between atoms: C_15  and  O_16 
REMARK    7  A    between atoms: O_16  and  C_17 
REMARK    8  A    between atoms: C_23  and  C_24 
ROOT
HETATM    1  C   UNL     1       6.962  26.459  54.036  1.00  0.00     0.273 C 
HETATM    2  N   UNL     1       5.601  26.639  54.201  1.00  0.00    -0.263 N 
HETATM    3  O   UNL     1       7.742  27.406  54.113  1.00  0.00    -0.266 OA
HETATM    4  H   UNL     1       4.906  25.914  54.025  1.00  0.00     0.190 HD
ENDROOT
BRANCH   2   5
HETATM    5  N   UNL     1       5.115  27.928  54.443  1.00  0.00    -0.263 N 
HETATM    6  C   UNL     1       4.663  28.224  55.711  1.00  0.00     0.270 C 
HETATM    7  O   UNL     1       4.692  27.406  56.629  1.00  0.00    -0.266 OA
HETATM    8  H   UNL     1       4.944  28.505  53.621  1.00  0.00     0.190 HD
BRANCH   6   9
HETATM    9  C   UNL     1       4.110  29.590  55.920  1.00  0.00     0.033 A 
HETATM   10  C   UNL     1       4.100  30.113  57.218  1.00  0.00     0.020 A 
HETATM   11  C   UNL     1       3.601  31.397  57.452  1.00  0.00     0.038 A 
HETATM   12  C   UNL     1       3.122  32.180  56.400  1.00  0.00     0.068 A 
HETATM   13  C   UNL     1       3.139  31.664  55.103  1.00  0.00     0.038 A 
HETATM   14  C   UNL     1       3.634  30.375  54.860  1.00  0.00     0.020 A 
BRANCH  12  15
HETATM   15  O   UNL     1       2.672  33.417  56.768  1.00  0.00    -0.352 OA
BRANCH  15  16
HETATM   16  C   UNL     1       3.217  34.540  56.076  1.00  0.00     0.171 C 
HETATM   17  C   UNL     1       4.634  34.757  56.578  1.00  0.00     0.034 C 
ENDBRANCH  15  16
ENDBRANCH  12  15
ENDBRANCH   6   9
ENDBRANCH   2   5
BRANCH   1  18
HETATM   18  C   UNL     1       7.355  25.079  53.811  1.00  0.00     0.077 A 
HETATM   19  C   UNL     1       7.718  24.536  52.553  1.00  0.00     0.158 A 
HETATM   20  N   UNL     1       8.028  23.245  52.606  1.00  0.00    -0.183 NA
HETATM   21  N   UNL     1       7.825  22.919  53.897  1.00  0.00    -0.268 N 
HETATM   22  C   UNL     1       7.476  24.001  54.685  1.00  0.00     0.052 A 
BRANCH  21  23
HETATM   23  C   UNL     1       7.960  21.515  54.285  1.00  0.00     0.106 C 
HETATM   24  C   UNL     1       7.869  20.599  53.058  1.00  0.00     0.034 C 
BRANCH  23  25
HETATM   25  C   UNL     1       9.255  21.245  55.071  1.00  0.00     0.022 C 
HETATM   26  C   UNL     1       9.021  20.468  56.359  1.00  0.00     0.007 C 
ENDBRANCH  23  25
ENDBRANCH  21  23
BRANCH  22  27
HETATM   27  C   UNL     1       7.329  23.932  56.209  1.00  0.00     0.038 A 
HETATM   28  C   UNL     1       8.523  24.156  57.105  1.00  0.00     0.011 A 
HETATM   29  C   UNL     1       7.432  25.174  57.056  1.00  0.00     0.011 A 
ENDBRANCH  22  27
ENDBRANCH   1  18
TORSDOF 8
ENDMDL
MODEL 5
REMARK VINA RESULT:      -7.4      2.672     10.408
REMARK  8 active torsions:
REMARK  status: ('A' for Active; 'I' for Inactive)
REMARK    1  A    between atoms: C_2  and  C_3 
REMARK    2  A    between atoms: C_3  and  N_4 
REMARK    3  A    between atoms: C_7  and  C_8 
REMARK       I    between atoms: C_8  and  N_9 
REMARK    4  A    between atoms: N_9  and  N_10 
REMARK       I    between atoms: N_10  and  C_11 
REMARK    5  A    between atoms: C_11  and  C_12 
REMARK    6  A    between atoms: C_15  and  O_16 
REMARK    7  A    between atoms: O_16  and  C_17 
REMARK    8  A    between atoms: C_23  and  C_24 
ROOT
HETATM    1  C   UNL     1       6.406  32.267  59.791  1.00  0.00     0.273 C 
HETATM    2  N   UNL     1       5.551  31.318  59.261  1.00  0.00    -0.263 N 
HETATM    3  O   UNL     1       7.571  32.357  59.411  1.00  0.00    -0.266 OA
HETATM    4  H   UNL     1       4.620  31.123  59.626  1.00  0.00     0.190 HD
ENDROOT
BRANCH   2   5
HETATM    5  N   UNL     1       6.040  30.440  58.287  1.00  0.00    -0.263 N 
HETATM    6  C   UNL     1       5.141  29.897  57.393  1.00  0.00     0.270 C 
HETATM    7  O   UNL     1       3.944  30.173  57.412  1.00  0.00    -0.266 OA
HETATM    8  H   UNL     1       6.992  30.106  58.420  1.00  0.00     0.190 HD
BRANCH   6   9
HETATM    9  C   UNL     1       5.689  28.931  56.402  1.00  0.00     0.033 A 
HETATM   10  C   UNL     1       7.008  29.102  55.966  1.00  0.00     0.020 A 
HETATM   11  C   UNL     1       7.563  28.208  55.047  1.00  0.00     0.038 A 
HETATM   12  C   UNL     1       6.820  27.128  54.562  1.00  0.00     0.068 A 
HETATM   13  C   UNL     1       5.508  26.951  55.002  1.00  0.00     0.038 A 
HETATM   14  C   UNL     1       4.943  27.846  55.922  1.00  0.00     0.020 A 
BRANCH  12  15
HETATM   15  O   UNL     1       7.487  26.329  53.677  1.00  0.00    -0.352 OA
BRANCH  15  16
HETATM   16  C   UNL     1       7.656  24.958  54.036  1.00  0.00     0.171 C 
HETATM   17  C   UNL     1       7.513  24.123  52.776  1.00  0.00     0.034 C 
ENDBRANCH  15  16
ENDBRANCH  12  15
ENDBRANCH   6   9
ENDBRANCH   2   5
BRANCH   1  18
HETATM   18  C   UNL     1       5.787  33.136  60.777  1.00  0.00     0.077 A 
HETATM   19  C   UNL     1       4.795  34.107  60.491  1.00  0.00     0.158 A 
HETATM   20  N   UNL     1       4.395  34.782  61.563  1.00  0.00    -0.183 NA
HETATM   21  N   UNL     1       5.158  34.288  62.557  1.00  0.00    -0.268 N 
HETATM   22  C   UNL     1       5.976  33.249  62.153  1.00  0.00     0.052 A 
BRANCH  21  23
HETATM   23  C   UNL     1       5.058  34.908  63.879  1.00  0.00     0.106 C 
HETATM   24  C   UNL     1       4.670  36.387  63.760  1.00  0.00     0.034 C 
BRANCH  23  25
HETATM   25  C   UNL     1       4.080  34.162  64.804  1.00  0.00     0.022 C 
HETATM   26  C   UNL     1       4.655  33.893  66.188  1.00  0.00     0.007 C 
ENDBRANCH  23  25
ENDBRANCH  21  23
BRANCH  22  27
HETATM   27  C   UNL     1       6.835  32.419  63.112  1.00  0.00     0.038 A 
HETATM   28  C   UNL     1       8.332  32.349  62.935  1.00  0.00     0.011 A 
HETATM   29  C   UNL     1       7.758  33.083  64.101  1.00  0.00     0.011 A 
ENDBRANCH  22  27
ENDBRANCH   1  18
TORSDOF 8
ENDMDL
MODEL 6
REMARK VINA RESULT:      -7.4      2.450      9.905
REMARK  8 active torsions:
REMARK  status: ('A' for Active; 'I' for Inactive)
REMARK    1  A    between atoms: C_2  and  C_3 
REMARK    2  A    between atoms: C_3  and  N_4 
REMARK    3  A    between atoms: C_7  and  C_8 
REMARK       I    between atoms: C_8  and  N_9 
REMARK    4  A    between atoms: N_9  and  N_10 
REMARK       I    between atoms: N_10  and  C_11 
REMARK    5  A    between atoms: C_11  and  C_12 
REMARK    6  A    between atoms: C_15  and  O_16 
REMARK    7  A    between atoms: O_16  and  C_17 
REMARK    8  A    between atoms: C_23  and  C_24 
ROOT
HETATM    1  C   UNL     1       8.271  29.947  58.600  1.00  0.00     0.273 C 
HETATM    2  N   UNL     1       7.546  28.775  58.493  1.00  0.00    -0.263 N 
HETATM    3  O   UNL     1       9.200  30.193  57.833  1.00  0.00    -0.266 OA
HETATM    4  H   UNL     1       6.853  28.470  59.175  1.00  0.00     0.190 HD
ENDROOT
BRANCH   2   5
HETATM    5  N   UNL     1       7.895  27.855  57.498  1.00  0.00    -0.263 N 
HETATM    6  C   UNL     1       6.879  27.207  56.827  1.00  0.00     0.270 C 
HETATM    7  O   UNL     1       5.692  27.426  57.059  1.00  0.00    -0.266 OA
HETATM    8  H   UNL     1       8.874  27.577  57.467  1.00  0.00     0.190 HD
BRANCH   6   9
HETATM    9  C   UNL     1       7.288  26.201  55.810  1.00  0.00     0.033 A 
HETATM   10  C   UNL     1       7.723  24.946  56.253  1.00  0.00     0.020 A 
HETATM   11  C   UNL     1       8.102  23.970  55.329  1.00  0.00     0.038 A 
HETATM   12  C   UNL     1       8.040  24.223  53.956  1.00  0.00     0.068 A 
HETATM   13  C   UNL     1       7.599  25.470  53.512  1.00  0.00     0.038 A 
HETATM   14  C   UNL     1       7.220  26.456  54.434  1.00  0.00     0.020 A 
BRANCH  12  15
HETATM   15  O   UNL     1       8.431  23.179  53.166  1.00  0.00    -0.352 OA
BRANCH  15  16
HETATM   16  C   UNL     1       8.763  21.955  53.820  1.00  0.00     0.171 C 
HETATM   17  C   UNL     1       8.193  20.814  52.995  1.00  0.00     0.034 C 
ENDBRANCH  15  16
ENDBRANCH  12  15
ENDBRANCH   6   9
ENDBRANCH   2   5
BRANCH   1  18
HETATM   18  C   UNL     1       7.809  30.836  59.652  1.00  0.00     0.077 A 
HETATM   19  C   UNL     1       8.405  30.953  60.933  1.00  0.00     0.158 A 
HETATM   20  N   UNL     1       7.791  31.828  61.722  1.00  0.00    -0.183 NA
HETATM   21  N   UNL     1       6.756  32.261  60.976  1.00  0.00    -0.268 N 
HETATM   22  C   UNL     1       6.750  31.741  59.694  1.00  0.00     0.052 A 
BRANCH  21  23
HETATM   23  C   UNL     1       5.785  33.162  61.598  1.00  0.00     0.106 C 
HETATM   24  C   UNL     1       4.814  32.384  62.494  1.00  0.00     0.034 C 
BRANCH  23  25
HETATM   25  C   UNL     1       6.461  34.299  62.385  1.00  0.00     0.022 C 
HETATM   26  C   UNL     1       5.653  35.589  62.383  1.00  0.00     0.007 C 
ENDBRANCH  23  25
ENDBRANCH  21  23
BRANCH  22  27
HETATM   27  C   UNL     1       5.769  32.178  58.602  1.00  0.00     0.038 A 
HETATM   28  C   UNL     1       4.890  31.164  57.910  1.00  0.00     0.011 A 
HETATM   29  C   UNL     1       4.281  32.159  58.842  1.00  0.00     0.011 A 
ENDBRANCH  22  27
ENDBRANCH   1  18
TORSDOF 8
ENDMDL
MODEL 7
REMARK VINA RESULT:      -7.2      3.366     10.646
REMARK  8 active torsions:
REMARK  status: ('A' for Active; 'I' for Inactive)
REMARK    1  A    between atoms: C_2  and  C_3 
REMARK    2  A    between atoms: C_3  and  N_4 
REMARK    3  A    between atoms: C_7  and  C_8 
REMARK       I    between atoms: C_8  and  N_9 
REMARK    4  A    between atoms: N_9  and  N_10 
REMARK       I    between atoms: N_10  and  C_11 
REMARK    5  A    between atoms: C_11  and  C_12 
REMARK    6  A    between atoms: C_15  and  O_16 
REMARK    7  A    between atoms: O_16  and  C_17 
REMARK    8  A    between atoms: C_23  and  C_24 
ROOT
HETATM    1  C   UNL     1       4.623  32.582  61.291  1.00  0.00     0.273 C 
HETATM    2  N   UNL     1       5.796  32.527  60.561  1.00  0.00    -0.263 N 
HETATM    3  O   UNL     1       3.787  31.684  61.219  1.00  0.00    -0.266 OA
HETATM    4  H   UNL     1       6.459  33.298  60.491  1.00  0.00     0.190 HD
ENDROOT
BRANCH   2   5
HETATM    5  N   UNL     1       6.015  31.433  59.718  1.00  0.00    -0.263 N 
HETATM    6  C   UNL     1       7.206  31.374  59.026  1.00  0.00     0.270 C 
HETATM    7  O   UNL     1       8.078  32.232  59.141  1.00  0.00    -0.266 OA
HETATM    8  H   UNL     1       5.204  30.850  59.518  1.00  0.00     0.190 HD
BRANCH   6   9
HETATM    9  C   UNL     1       7.384  30.220  58.103  1.00  0.00     0.033 A 
HETATM   10  C   UNL     1       6.350  29.917  57.210  1.00  0.00     0.020 A 
HETATM   11  C   UNL     1       6.484  28.850  56.318  1.00  0.00     0.038 A 
HETATM   12  C   UNL     1       7.652  28.083  56.292  1.00  0.00     0.068 A 
HETATM   13  C   UNL     1       8.688  28.390  57.175  1.00  0.00     0.038 A 
HETATM   14  C   UNL     1       8.559  29.456  58.076  1.00  0.00     0.020 A 
BRANCH  12  15
HETATM   15  O   UNL     1       7.654  27.078  55.367  1.00  0.00    -0.352 OA
BRANCH  15  16
HETATM   16  C   UNL     1       6.671  26.054  55.516  1.00  0.00     0.171 C 
HETATM   17  C   UNL     1       7.237  24.993  56.443  1.00  0.00     0.034 C 
ENDBRANCH  15  16
ENDBRANCH  12  15
ENDBRANCH   6   9
ENDBRANCH   2   5
BRANCH   1  18
HETATM   18  C   UNL     1       4.512  33.751  62.147  1.00  0.00     0.077 A 
HETATM   19  C   UNL     1       3.695  34.877  61.875  1.00  0.00     0.158 A 
HETATM   20  N   UNL     1       3.774  35.822  62.806  1.00  0.00    -0.183 NA
HETATM   21  N   UNL     1       4.681  35.339  63.677  1.00  0.00    -0.268 N 
HETATM   22  C   UNL     1       5.117  34.065  63.361  1.00  0.00     0.052 A 
BRANCH  21  23
HETATM   23  C   UNL     1       5.103  36.198  64.784  1.00  0.00     0.106 C 
HETATM   24  C   UNL     1       5.240  37.654  64.322  1.00  0.00     0.034 C 
BRANCH  23  25
HETATM   25  C   UNL     1       4.161  36.099  65.996  1.00  0.00     0.022 C 
HETATM   26  C   UNL     1       4.826  35.485  67.220  1.00  0.00     0.007 C 
ENDBRANCH  23  25
ENDBRANCH  21  23
BRANCH  22  27
HETATM   27  C   UNL     1       6.037  33.233  64.261  1.00  0.00     0.038 A 
HETATM   28  C   UNL     1       7.428  32.864  63.803  1.00  0.00     0.011 A 
HETATM   29  C   UNL     1       7.249  33.847  64.913  1.00  0.00     0.011 A 
ENDBRANCH  22  27
ENDBRANCH   1  18
TORSDOF 8
ENDMDL
MODEL 8
REMARK VINA RESULT:      -7.1      7.956     10.919
REMARK  8 active torsions:
REMARK  status: ('A' for Active; 'I' for Inactive)
REMARK    1  A    between atoms: C_2  and  C_3 
REMARK    2  A    between atoms: C_3  and  N_4 
REMARK    3  A    between atoms: C_7  and  C_8 
REMARK       I    between atoms: C_8  and  N_9 
REMARK    4  A    between atoms: N_9  and  N_10 
REMARK       I    between atoms: N_10  and  C_11 
REMARK    5  A    between atoms: C_11  and  C_12 
REMARK    6  A    between atoms: C_15  and  O_16 
REMARK    7  A    between atoms: O_16  and  C_17 
REMARK    8  A    between atoms: C_23  and  C_24 
ROOT
HETATM    1  C   UNL     1       3.179  26.391  48.518  1.00  0.00     0.273 C 
HETATM    2  N   UNL     1       3.689  26.790  49.740  1.00  0.00    -0.263 N 
HETATM    3  O   UNL     1       3.453  25.291  48.044  1.00  0.00    -0.266 OA
HETATM    4  H   UNL     1       3.594  27.732  50.116  1.00  0.00     0.190 HD
ENDROOT
BRANCH   2   5
HETATM    5  N   UNL     1       4.541  25.922  50.430  1.00  0.00    -0.263 N 
HETATM    6  C   UNL     1       4.945  26.281  51.699  1.00  0.00     0.270 C 
HETATM    7  O   UNL     1       4.567  27.317  52.242  1.00  0.00    -0.266 OA
HETATM    8  H   UNL     1       4.966  25.177  49.881  1.00  0.00     0.190 HD
BRANCH   6   9
HETATM    9  C   UNL     1       5.889  25.357  52.384  1.00  0.00     0.033 A 
HETATM   10  C   UNL     1       7.101  25.055  51.752  1.00  0.00     0.020 A 
HETATM   11  C   UNL     1       8.020  24.203  52.369  1.00  0.00     0.038 A 
HETATM   12  C   UNL     1       7.753  23.654  53.626  1.00  0.00     0.068 A 
HETATM   13  C   UNL     1       6.549  23.960  54.262  1.00  0.00     0.038 A 
HETATM   14  C   UNL     1       5.620  24.812  53.647  1.00  0.00     0.020 A 
BRANCH  12  15
HETATM   15  O   UNL     1       8.740  22.845  54.116  1.00  0.00    -0.352 OA
BRANCH  15  16
HETATM   16  C   UNL     1       8.388  21.494  54.410  1.00  0.00     0.171 C 
HETATM   17  C   UNL     1       8.458  20.701  53.116  1.00  0.00     0.034 C 
ENDBRANCH  15  16
ENDBRANCH  12  15
ENDBRANCH   6   9
ENDBRANCH   2   5
BRANCH   1  18
HETATM   18  C   UNL     1       2.291  27.361  47.901  1.00  0.00     0.077 A 
HETATM   19  C   UNL     1       0.945  27.108  47.536  1.00  0.00     0.158 A 
HETATM   20  N   UNL     1       0.345  28.154  46.979  1.00  0.00    -0.183 NA
HETATM   21  N   UNL     1       1.311  29.092  46.934  1.00  0.00    -0.268 N 
HETATM   22  C   UNL     1       2.492  28.689  47.531  1.00  0.00     0.052 A 
BRANCH  21  23
HETATM   23  C   UNL     1       1.018  30.355  46.255  1.00  0.00     0.106 C 
HETATM   24  C   UNL     1      -0.246  30.232  45.396  1.00  0.00     0.034 C 
BRANCH  23  25
HETATM   25  C   UNL     1       0.896  31.534  47.237  1.00  0.00     0.022 C 
HETATM   26  C   UNL     1      -0.266  31.383  48.209  1.00  0.00     0.007 C 
ENDBRANCH  23  25
ENDBRANCH  21  23
BRANCH  22  27
HETATM   27  C   UNL     1       3.697  29.611  47.742  1.00  0.00     0.038 A 
HETATM   28  C   UNL     1       5.080  29.173  47.322  1.00  0.00     0.011 A 
HETATM   29  C   UNL     1       4.389  30.264  46.574  1.00  0.00     0.011 A 
ENDBRANCH  22  27
ENDBRANCH   1  18
TORSDOF 8
ENDMDL
MODEL 9
REMARK VINA RESULT:      -7.1      2.743     10.074
REMARK  8 active torsions:
REMARK  status: ('A' for Active; 'I' for Inactive)
REMARK    1  A    between atoms: C_2  and  C_3 
REMARK    2  A    between atoms: C_3  and  N_4 
REMARK    3  A    between atoms: C_7  and  C_8 
REMARK       I    between atoms: C_8  and  N_9 
REMARK    4  A    between atoms: N_9  and  N_10 
REMARK       I    between atoms: N_10  and  C_11 
REMARK    5  A    between atoms: C_11  and  C_12 
REMARK    6  A    between atoms: C_15  and  O_16 
REMARK    7  A    between atoms: O_16  and  C_17 
REMARK    8  A    between atoms: C_23  and  C_24 
ROOT
HETATM    1  C   UNL     1       5.019  31.481  58.270  1.00  0.00     0.273 C 
HETATM    2  N   UNL     1       4.350  30.272  58.336  1.00  0.00    -0.263 N 
HETATM    3  O   UNL     1       5.488  31.891  57.210  1.00  0.00    -0.266 OA
HETATM    4  H   UNL     1       4.054  29.833  59.207  1.00  0.00     0.190 HD
ENDROOT
BRANCH   2   5
HETATM    5  N   UNL     1       4.225  29.506  57.173  1.00  0.00    -0.263 N 
HETATM    6  C   UNL     1       5.215  28.589  56.889  1.00  0.00     0.270 C 
HETATM    7  O   UNL     1       6.181  28.412  57.629  1.00  0.00    -0.266 OA
HETATM    8  H   UNL     1       3.515  29.810  56.509  1.00  0.00     0.190 HD
BRANCH   6   9
HETATM    9  C   UNL     1       5.073  27.826  55.619  1.00  0.00     0.033 A 
HETATM   10  C   UNL     1       5.727  26.594  55.507  1.00  0.00     0.020 A 
HETATM   11  C   UNL     1       5.607  25.841  54.336  1.00  0.00     0.038 A 
HETATM   12  C   UNL     1       4.825  26.296  53.272  1.00  0.00     0.068 A 
HETATM   13  C   UNL     1       4.165  27.520  53.385  1.00  0.00     0.038 A 
HETATM   14  C   UNL     1       4.284  28.283  54.555  1.00  0.00     0.020 A 
BRANCH  12  15
HETATM   15  O   UNL     1       4.788  25.459  52.192  1.00  0.00    -0.352 OA
BRANCH  15  16
HETATM   16  C   UNL     1       5.652  25.767  51.099  1.00  0.00     0.171 C 
HETATM   17  C   UNL     1       4.795  26.297  49.962  1.00  0.00     0.034 C 
ENDBRANCH  15  16
ENDBRANCH  12  15
ENDBRANCH   6   9
ENDBRANCH   2   5
BRANCH   1  18
HETATM   18  C   UNL     1       5.070  32.200  59.531  1.00  0.00     0.077 A 
HETATM   19  C   UNL     1       3.937  32.651  60.252  1.00  0.00     0.158 A 
HETATM   20  N   UNL     1       4.247  33.293  61.373  1.00  0.00    -0.183 NA
HETATM   21  N   UNL     1       5.594  33.306  61.373  1.00  0.00    -0.268 N 
HETATM   22  C   UNL     1       6.147  32.608  60.315  1.00  0.00     0.052 A 
BRANCH  21  23
HETATM   23  C   UNL     1       6.278  34.056  62.428  1.00  0.00     0.106 C 
HETATM   24  C   UNL     1       5.702  35.472  62.552  1.00  0.00     0.034 C 
BRANCH  23  25
HETATM   25  C   UNL     1       6.234  33.331  63.785  1.00  0.00     0.022 C 
HETATM   26  C   UNL     1       7.617  33.076  64.370  1.00  0.00     0.007 C 
ENDBRANCH  23  25
ENDBRANCH  21  23
BRANCH  22  27
HETATM   27  C   UNL     1       7.649  32.349  60.160  1.00  0.00     0.038 A 
HETATM   28  C   UNL     1       8.364  31.404  61.095  1.00  0.00     0.011 A 
HETATM   29  C   UNL     1       8.161  31.020  59.667  1.00  0.00     0.011 A 
ENDBRANCH  22  27
ENDBRANCH   1  18
TORSDOF 8
ENDMDL
MODEL 10
REMARK VINA RESULT:      -7.0      6.051     10.512
REMARK  8 active torsions:
REMARK  status: ('A' for Active; 'I' for Inactive)
REMARK    1  A    between atoms: C_2  and  C_3 
REMARK    2  A    between atoms: C_3  and  N_4 
REMARK    3  A    between atoms: C_7  and  C_8 
REMARK       I    between atoms: C_8  and  N_9 
REMARK    4  A    between atoms: N_9  and  N_10 
REMARK       I    between atoms: N_10  and  C_11 
REMARK    5  A    between atoms: C_11  and  C_12 
REMARK    6  A    between atoms: C_15  and  O_16 
REMARK    7  A    between atoms: O_16  and  C_17 
REMARK    8  A    between atoms: C_23  and  C_24 
ROOT
HETATM    1  C   UNL     1       5.348  27.263  53.529  1.00  0.00     0.273 C 
HETATM    2  N   UNL     1       4.666  26.620  52.512  1.00  0.00    -0.263 N 
HETATM    3  O   UNL     1       5.389  28.490  53.590  1.00  0.00    -0.266 OA
HETATM    4  H   UNL     1       4.706  25.615  52.347  1.00  0.00     0.190 HD
ENDROOT
BRANCH   2   5
HETATM    5  N   UNL     1       4.029  27.391  51.534  1.00  0.00    -0.263 N 
HETATM    6  C   UNL     1       4.273  27.092  50.210  1.00  0.00     0.270 C 
HETATM    7  O   UNL     1       5.006  26.167  49.868  1.00  0.00    -0.266 OA
HETATM    8  H   UNL     1       3.582  28.247  51.858  1.00  0.00     0.190 HD
BRANCH   6   9
HETATM    9  C   UNL     1       3.616  27.964  49.198  1.00  0.00     0.033 A 
HETATM   10  C   UNL     1       2.624  27.406  48.384  1.00  0.00     0.020 A 
HETATM   11  C   UNL     1       1.974  28.195  47.432  1.00  0.00     0.038 A 
HETATM   12  C   UNL     1       2.291  29.548  47.288  1.00  0.00     0.068 A 
HETATM   13  C   UNL     1       3.274  30.109  48.106  1.00  0.00     0.038 A 
HETATM   14  C   UNL     1       3.933  29.322  49.061  1.00  0.00     0.020 A 
BRANCH  12  15
HETATM   15  O   UNL     1       1.574  30.203  46.327  1.00  0.00    -0.352 OA
BRANCH  15  16
HETATM   16  C   UNL     1       0.243  29.750  46.084  1.00  0.00     0.171 C 
HETATM   17  C   UNL     1      -0.713  30.742  46.722  1.00  0.00     0.034 C 
ENDBRANCH  15  16
ENDBRANCH  12  15
ENDBRANCH   6   9
ENDBRANCH   2   5
BRANCH   1  18
HETATM   18  C   UNL     1       5.952  26.365  54.497  1.00  0.00     0.077 A 
HETATM   19  C   UNL     1       5.474  26.155  55.815  1.00  0.00     0.158 A 
HETATM   20  N   UNL     1       6.206  25.292  56.510  1.00  0.00    -0.183 NA
HETATM   21  N   UNL     1       7.202  24.961  55.664  1.00  0.00    -0.268 N 
HETATM   22  C   UNL     1       7.067  25.533  54.412  1.00  0.00     0.052 A 
BRANCH  21  23
HETATM   23  C   UNL     1       8.277  24.103  56.163  1.00  0.00     0.106 C 
HETATM   24  C   UNL     1       8.779  24.595  57.526  1.00  0.00     0.034 C 
BRANCH  23  25
HETATM   25  C   UNL     1       7.859  22.624  56.240  1.00  0.00     0.022 C 
HETATM   26  C   UNL     1       8.848  21.688  55.559  1.00  0.00     0.007 C 
ENDBRANCH  23  25
ENDBRANCH  21  23
BRANCH  22  27
HETATM   27  C   UNL     1       7.980  25.209  53.226  1.00  0.00     0.038 A 
HETATM   28  C   UNL     1       7.976  23.830  52.610  1.00  0.00     0.011 A 
HETATM   29  C   UNL     1       7.414  24.985  51.847  1.00  0.00     0.011 A 
ENDBRANCH  22  27
ENDBRANCH   1  18
TORSDOF 8
ENDMDL
