MODEL 1
REMARK VINA RESULT:     -10.1      0.000      0.000
REMARK  7 active torsions:
REMARK  status: ('A' for Active; 'I' for Inactive)
REMARK    1  A    between atoms: O_2  and  C_3 
REMARK    2  A    between atoms: C_3  and  C_4 
REMARK    3  A    between atoms: C_6  and  N_7 
REMARK       I    between atoms: N_7  and  C_8 
REMARK    4  A    between atoms: C_8  and  C_9 
REMARK    5  A    between atoms: C_17  and  C_18 
REMARK    6  A    between atoms: C_18  and  N_19 
REMARK       I    between atoms: N_19  and  C_20 
REMARK    7  A    between atoms: C_20  and  C_21 
ROOT
HETATM    1  C   UNL     1       5.559  27.851  55.515  1.00  0.00     0.042 A 
HETATM    2  C   UNL     1       5.927  26.540  55.176  1.00  0.00     0.047 A 
HETATM    3  C   UNL     1       7.091  25.973  55.700  1.00  0.00     0.036 A 
HETATM    4  C   UNL     1       7.884  26.733  56.572  1.00  0.00     0.038 A 
HETATM    5  C   UNL     1       7.517  28.036  56.946  1.00  0.00    -0.037 A 
HETATM    6  C   UNL     1       6.360  28.595  56.393  1.00  0.00     0.026 A 
ENDROOT
BRANCH   5   7
HETATM    7  C   UNL     1       8.337  28.804  57.947  1.00  0.00     0.161 C 
BRANCH   7   8
HETATM    8  N   UNL     1       7.546  29.743  58.701  1.00  0.00    -0.351 N 
HETATM    9  C   UNL     1       8.116  30.702  59.501  1.00  0.00     0.270 C 
HETATM   10  O   UNL     1       9.325  30.913  59.507  1.00  0.00    -0.266 OA
HETATM   11  H   UNL     1       6.545  29.720  58.592  1.00  0.00     0.163 HD
BRANCH   9  12
HETATM   12  C   UNL     1       7.209  31.448  60.337  1.00  0.00     0.126 A 
HETATM   13  N   UNL     1       5.996  31.860  59.839  1.00  0.00    -0.272 N 
HETATM   14  H   UNL     1       5.637  31.687  58.905  1.00  0.00     0.189 HD
HETATM   15  N   UNL     1       5.248  32.569  60.700  1.00  0.00    -0.178 NA
HETATM   16  C   UNL     1       6.013  32.636  61.788  1.00  0.00     0.063 A 
HETATM   17  C   UNL     1       7.251  31.960  61.625  1.00  0.00     0.002 A 
HETATM   18  C   UNL     1       5.623  33.397  63.006  1.00  0.00     0.062 C 
HETATM   19  C   UNL     1       8.280  31.918  62.701  1.00  0.00     0.043 C 
HETATM   20  C   UNL     1       8.012  32.979  63.785  1.00  0.00     0.005 C 
HETATM   21  C   UNL     1       6.529  33.035  64.193  1.00  0.00     0.006 C 
ENDBRANCH   9  12
ENDBRANCH   7   8
ENDBRANCH   5   7
BRANCH   3  22
HETATM   22  N   UNL     1       7.513  24.650  55.438  1.00  0.00    -0.323 N 
HETATM   23  C   UNL     1       7.932  24.128  54.225  1.00  0.00     0.256 C 
HETATM   24  O   UNL     1       8.119  24.758  53.190  1.00  0.00    -0.267 OA
HETATM   25  H   UNL     1       7.525  24.035  56.241  1.00  0.00     0.169 HD
BRANCH  23  26
HETATM   26  C   UNL     1       8.190  22.658  54.203  1.00  0.00     0.035 A 
HETATM   27  C   UNL     1       8.589  21.947  55.336  1.00  0.00     0.036 A 
HETATM   28  C   UNL     1       8.775  20.581  55.211  1.00  0.00     0.117 A 
HETATM   29  N   UNL     1       8.587  19.898  54.062  1.00  0.00    -0.273 NA
HETATM   30  C   UNL     1       8.178  20.605  52.988  1.00  0.00     0.117 A 
HETATM   31  C   UNL     1       7.967  21.971  53.007  1.00  0.00     0.036 A 
ENDBRANCH  23  26
ENDBRANCH   3  22
BRANCH   1  32
HETATM   32  C   UNL     1       4.322  28.492  54.992  1.00  0.00     0.293 C 
HETATM   33  O   UNL     1       3.779  29.440  55.539  1.00  0.00    -0.259 OA
BRANCH  32  34
HETATM   34  O   UNL     1       3.885  27.860  53.876  1.00  0.00    -0.323 OA
HETATM   35  C   UNL     1       3.524  28.736  52.808  1.00  0.00     0.213 C 
ENDBRANCH  32  34
ENDBRANCH   1  32
TORSDOF 7
ENDMDL
MODEL 2
REMARK VINA RESULT:     -10.1      3.036      4.555
REMARK  7 active torsions:
REMARK  status: ('A' for Active; 'I' for Inactive)
REMARK    1  A    between atoms: O_2  and  C_3 
REMARK    2  A    between atoms: C_3  and  C_4 
REMARK    3  A    between atoms: C_6  and  N_7 
REMARK       I    between atoms: N_7  and  C_8 
REMARK    4  A    between atoms: C_8  and  C_9 
REMARK    5  A    between atoms: C_17  and  C_18 
REMARK    6  A    between atoms: C_18  and  N_19 
REMARK       I    between atoms: N_19  and  C_20 
REMARK    7  A    between atoms: C_20  and  C_21 
ROOT
HETATM    1  C   UNL     1       5.069  26.997  51.168  1.00  0.00     0.042 A 
HETATM    2  C   UNL     1       5.626  25.741  51.452  1.00  0.00     0.047 A 
HETATM    3  C   UNL     1       5.805  25.329  52.775  1.00  0.00     0.036 A 
HETATM    4  C   UNL     1       5.417  26.188  53.813  1.00  0.00     0.038 A 
HETATM    5  C   UNL     1       4.831  27.436  53.549  1.00  0.00    -0.037 A 
HETATM    6  C   UNL     1       4.681  27.842  52.218  1.00  0.00     0.026 A 
ENDROOT
BRANCH   5   7
HETATM    7  C   UNL     1       4.346  28.308  54.675  1.00  0.00     0.161 C 
BRANCH   7   8
HETATM    8  N   UNL     1       5.429  28.922  55.401  1.00  0.00    -0.351 N 
HETATM    9  C   UNL     1       5.802  28.498  56.652  1.00  0.00     0.270 C 
HETATM   10  O   UNL     1       5.339  27.483  57.163  1.00  0.00    -0.266 OA
HETATM   11  H   UNL     1       5.954  29.651  54.947  1.00  0.00     0.163 HD
BRANCH   9  12
HETATM   12  C   UNL     1       6.772  29.318  57.334  1.00  0.00     0.126 A 
HETATM   13  N   UNL     1       6.372  30.158  58.347  1.00  0.00    -0.272 N 
HETATM   14  H   UNL     1       5.426  30.270  58.699  1.00  0.00     0.189 HD
HETATM   15  N   UNL     1       7.358  30.891  58.889  1.00  0.00    -0.178 NA
HETATM   16  C   UNL     1       8.430  30.530  58.188  1.00  0.00     0.063 A 
HETATM   17  C   UNL     1       8.132  29.555  57.200  1.00  0.00     0.002 A 
HETATM   18  C   UNL     1       9.772  31.141  58.389  1.00  0.00     0.062 C 
HETATM   19  C   UNL     1       9.170  29.015  56.279  1.00  0.00     0.043 C 
HETATM   20  C   UNL     1      10.434  29.894  56.269  1.00  0.00     0.005 C 
HETATM   21  C   UNL     1      10.862  30.318  57.685  1.00  0.00     0.006 C 
ENDBRANCH   9  12
ENDBRANCH   7   8
ENDBRANCH   5   7
BRANCH   3  22
HETATM   22  N   UNL     1       6.325  24.068  53.146  1.00  0.00    -0.323 N 
HETATM   23  C   UNL     1       7.416  23.818  53.961  1.00  0.00     0.256 C 
HETATM   24  O   UNL     1       8.053  24.651  54.597  1.00  0.00    -0.267 OA
HETATM   25  H   UNL     1       5.818  23.271  52.786  1.00  0.00     0.169 HD
BRANCH  23  26
HETATM   26  C   UNL     1       7.831  22.389  54.075  1.00  0.00     0.035 A 
HETATM   27  C   UNL     1       8.133  21.602  52.963  1.00  0.00     0.036 A 
HETATM   28  C   UNL     1       8.534  20.295  53.183  1.00  0.00     0.117 A 
HETATM   29  N   UNL     1       8.656  19.742  54.408  1.00  0.00    -0.273 NA
HETATM   30  C   UNL     1       8.382  20.531  55.468  1.00  0.00     0.117 A 
HETATM   31  C   UNL     1       7.971  21.846  55.355  1.00  0.00     0.036 A 
ENDBRANCH  23  26
ENDBRANCH   3  22
BRANCH   1  32
HETATM   32  C   UNL     1       4.847  27.474  49.776  1.00  0.00     0.293 C 
HETATM   33  O   UNL     1       5.429  28.437  49.299  1.00  0.00    -0.259 OA
BRANCH  32  34
HETATM   34  O   UNL     1       3.905  26.726  49.154  1.00  0.00    -0.323 OA
HETATM   35  C   UNL     1       4.139  26.528  47.759  1.00  0.00     0.213 C 
ENDBRANCH  32  34
ENDBRANCH   1  32
TORSDOF 7
ENDMDL
MODEL 3
REMARK VINA RESULT:      -9.8      3.720      7.745
REMARK  7 active torsions:
REMARK  status: ('A' for Active; 'I' for Inactive)
REMARK    1  A    between atoms: O_2  and  C_3 
REMARK    2  A    between atoms: C_3  and  C_4 
REMARK    3  A    between atoms: C_6  and  N_7 
REMARK       I    between atoms: N_7  and  C_8 
REMARK    4  A    between atoms: C_8  and  C_9 
REMARK    5  A    between atoms: C_17  and  C_18 
REMARK    6  A    between atoms: C_18  and  N_19 
REMARK       I    between atoms: N_19  and  C_20 
REMARK    7  A    between atoms: C_20  and  C_21 
ROOT
HETATM    1  C   UNL     1       7.828  28.176  57.096  1.00  0.00     0.042 A 
HETATM    2  C   UNL     1       8.259  26.876  56.794  1.00  0.00     0.047 A 
HETATM    3  C   UNL     1       7.382  25.956  56.214  1.00  0.00     0.036 A 
HETATM    4  C   UNL     1       6.066  26.354  55.934  1.00  0.00     0.038 A 
HETATM    5  C   UNL     1       5.626  27.661  56.202  1.00  0.00    -0.037 A 
HETATM    6  C   UNL     1       6.511  28.560  56.805  1.00  0.00     0.026 A 
ENDROOT
BRANCH   5   7
HETATM    7  C   UNL     1       4.236  28.093  55.819  1.00  0.00     0.161 C 
BRANCH   7   8
HETATM    8  N   UNL     1       4.020  28.053  54.395  1.00  0.00    -0.351 N 
HETATM    9  C   UNL     1       3.865  29.193  53.647  1.00  0.00     0.270 C 
HETATM   10  O   UNL     1       4.047  30.312  54.117  1.00  0.00    -0.266 OA
HETATM   11  H   UNL     1       4.036  27.157  53.935  1.00  0.00     0.163 HD
BRANCH   9  12
HETATM   12  C   UNL     1       3.472  28.999  52.274  1.00  0.00     0.126 A 
HETATM   13  N   UNL     1       2.374  29.659  51.773  1.00  0.00    -0.272 N 
HETATM   14  H   UNL     1       1.778  30.308  52.278  1.00  0.00     0.189 HD
HETATM   15  N   UNL     1       2.089  29.380  50.491  1.00  0.00    -0.178 NA
HETATM   16  C   UNL     1       3.023  28.493  50.156  1.00  0.00     0.063 A 
HETATM   17  C   UNL     1       3.914  28.209  51.224  1.00  0.00     0.002 A 
HETATM   18  C   UNL     1       3.070  27.832  48.822  1.00  0.00     0.062 C 
HETATM   19  C   UNL     1       5.028  27.230  51.090  1.00  0.00     0.043 C 
HETATM   20  C   UNL     1       4.844  26.325  49.857  1.00  0.00     0.005 C 
HETATM   21  C   UNL     1       4.414  27.118  48.610  1.00  0.00     0.006 C 
ENDBRANCH   9  12
ENDBRANCH   7   8
ENDBRANCH   5   7
BRANCH   3  22
HETATM   22  N   UNL     1       7.745  24.640  55.847  1.00  0.00    -0.323 N 
HETATM   23  C   UNL     1       7.960  24.156  54.567  1.00  0.00     0.256 C 
HETATM   24  O   UNL     1       7.985  24.818  53.536  1.00  0.00    -0.267 OA
HETATM   25  H   UNL     1       7.879  24.000  56.618  1.00  0.00     0.169 HD
BRANCH  23  26
HETATM   26  C   UNL     1       8.198  22.687  54.458  1.00  0.00     0.035 A 
HETATM   27  C   UNL     1       7.988  21.977  53.274  1.00  0.00     0.036 A 
HETATM   28  C   UNL     1       8.266  20.620  53.274  1.00  0.00     0.117 A 
HETATM   29  N   UNL     1       8.734  19.949  54.347  1.00  0.00    -0.273 NA
HETATM   30  C   UNL     1       8.953  20.663  55.471  1.00  0.00     0.117 A 
HETATM   31  C   UNL     1       8.703  22.018  55.575  1.00  0.00     0.036 A 
ENDBRANCH  23  26
ENDBRANCH   3  22
BRANCH   1  32
HETATM   32  C   UNL     1       8.729  29.193  57.703  1.00  0.00     0.293 C 
HETATM   33  O   UNL     1       8.708  29.481  58.890  1.00  0.00    -0.259 OA
BRANCH  32  34
HETATM   34  O   UNL     1       9.522  29.759  56.761  1.00  0.00    -0.323 OA
HETATM   35  C   UNL     1      10.918  29.699  57.055  1.00  0.00     0.213 C 
ENDBRANCH  32  34
ENDBRANCH   1  32
TORSDOF 7
ENDMDL
MODEL 4
REMARK VINA RESULT:      -9.8      2.630      4.442
REMARK  7 active torsions:
REMARK  status: ('A' for Active; 'I' for Inactive)
REMARK    1  A    between atoms: O_2  and  C_3 
REMARK    2  A    between atoms: C_3  and  C_4 
REMARK    3  A    between atoms: C_6  and  N_7 
REMARK       I    between atoms: N_7  and  C_8 
REMARK    4  A    between atoms: C_8  and  C_9 
REMARK    5  A    between atoms: C_17  and  C_18 
REMARK    6  A    between atoms: C_18  and  N_19 
REMARK       I    between atoms: N_19  and  C_20 
REMARK    7  A    between atoms: C_20  and  C_21 
ROOT
HETATM    1  C   UNL     1       8.644  30.525  57.919  1.00  0.00     0.042 A 
HETATM    2  C   UNL     1       8.742  29.242  57.358  1.00  0.00     0.047 A 
HETATM    3  C   UNL     1       7.591  28.502  57.077  1.00  0.00     0.036 A 
HETATM    4  C   UNL     1       6.337  29.062  57.361  1.00  0.00     0.038 A 
HETATM    5  C   UNL     1       6.217  30.355  57.894  1.00  0.00    -0.037 A 
HETATM    6  C   UNL     1       7.382  31.072  58.191  1.00  0.00     0.026 A 
ENDROOT
BRANCH   5   7
HETATM    7  C   UNL     1       4.861  30.970  58.115  1.00  0.00     0.161 C 
BRANCH   7   8
HETATM    8  N   UNL     1       4.651  31.361  59.486  1.00  0.00    -0.351 N 
HETATM    9  C   UNL     1       3.829  32.405  59.830  1.00  0.00     0.270 C 
HETATM   10  O   UNL     1       3.113  32.970  59.009  1.00  0.00    -0.266 OA
HETATM   11  H   UNL     1       5.086  30.813  60.210  1.00  0.00     0.163 HD
BRANCH   9  12
HETATM   12  C   UNL     1       3.859  32.802  61.215  1.00  0.00     0.126 A 
HETATM   13  N   UNL     1       2.694  33.159  61.853  1.00  0.00    -0.272 N 
HETATM   14  H   UNL     1       1.763  33.171  61.448  1.00  0.00     0.189 HD
HETATM   15  N   UNL     1       2.849  33.535  63.133  1.00  0.00    -0.178 NA
HETATM   16  C   UNL     1       4.162  33.438  63.324  1.00  0.00     0.063 A 
HETATM   17  C   UNL     1       4.850  32.989  62.166  1.00  0.00     0.002 A 
HETATM   18  C   UNL     1       4.825  33.825  64.600  1.00  0.00     0.062 C 
HETATM   19  C   UNL     1       6.330  32.825  62.136  1.00  0.00     0.043 C 
HETATM   20  C   UNL     1       7.007  33.548  63.315  1.00  0.00     0.005 C 
HETATM   21  C   UNL     1       6.272  33.309  64.645  1.00  0.00     0.006 C 
ENDBRANCH   9  12
ENDBRANCH   7   8
ENDBRANCH   5   7
BRANCH   3  22
HETATM   22  N   UNL     1       7.601  27.221  56.481  1.00  0.00    -0.323 N 
HETATM   23  C   UNL     1       7.869  26.011  57.098  1.00  0.00     0.256 C 
HETATM   24  O   UNL     1       8.031  25.829  58.300  1.00  0.00    -0.267 OA
HETATM   25  H   UNL     1       7.363  27.202  55.498  1.00  0.00     0.169 HD
BRANCH  23  26
HETATM   26  C   UNL     1       7.947  24.823  56.198  1.00  0.00     0.035 A 
HETATM   27  C   UNL     1       8.875  23.797  56.385  1.00  0.00     0.036 A 
HETATM   28  C   UNL     1       8.844  22.726  55.508  1.00  0.00     0.117 A 
HETATM   29  N   UNL     1       7.965  22.614  54.490  1.00  0.00    -0.273 NA
HETATM   30  C   UNL     1       7.062  23.606  54.346  1.00  0.00     0.117 A 
HETATM   31  C   UNL     1       7.012  24.719  55.165  1.00  0.00     0.036 A 
ENDBRANCH  23  26
ENDBRANCH   3  22
BRANCH   1  32
HETATM   32  C   UNL     1       9.840  31.355  58.223  1.00  0.00     0.293 C 
HETATM   33  O   UNL     1      10.953  31.110  57.782  1.00  0.00    -0.259 OA
BRANCH  32  34
HETATM   34  O   UNL     1       9.524  32.366  59.067  1.00  0.00    -0.323 OA
HETATM   35  C   UNL     1       9.761  32.078  60.445  1.00  0.00     0.213 C 
ENDBRANCH  32  34
ENDBRANCH   1  32
TORSDOF 7
ENDMDL
MODEL 5
REMARK VINA RESULT:      -9.7      3.418      6.477
REMARK  7 active torsions:
REMARK  status: ('A' for Active; 'I' for Inactive)
REMARK    1  A    between atoms: O_2  and  C_3 
REMARK    2  A    between atoms: C_3  and  C_4 
REMARK    3  A    between atoms: C_6  and  N_7 
REMARK       I    between atoms: N_7  and  C_8 
REMARK    4  A    between atoms: C_8  and  C_9 
REMARK    5  A    between atoms: C_17  and  C_18 
REMARK    6  A    between atoms: C_18  and  N_19 
REMARK       I    between atoms: N_19  and  C_20 
REMARK    7  A    between atoms: C_20  and  C_21 
ROOT
HETATM    1  C   UNL     1       7.508  23.684  54.629  1.00  0.00     0.042 A 
HETATM    2  C   UNL     1       7.162  24.081  53.329  1.00  0.00     0.047 A 
HETATM    3  C   UNL     1       6.170  25.043  53.122  1.00  0.00     0.036 A 
HETATM    4  C   UNL     1       5.528  25.607  54.234  1.00  0.00     0.038 A 
HETATM    5  C   UNL     1       5.882  25.245  55.544  1.00  0.00    -0.037 A 
HETATM    6  C   UNL     1       6.861  24.263  55.730  1.00  0.00     0.026 A 
ENDROOT
BRANCH   5   7
HETATM    7  C   UNL     1       5.240  25.922  56.724  1.00  0.00     0.161 C 
BRANCH   7   8
HETATM    8  N   UNL     1       6.088  26.930  57.308  1.00  0.00    -0.351 N 
HETATM    9  C   UNL     1       5.829  28.271  57.171  1.00  0.00     0.270 C 
HETATM   10  O   UNL     1       4.788  28.688  56.672  1.00  0.00    -0.266 OA
HETATM   11  H   UNL     1       6.864  26.631  57.875  1.00  0.00     0.163 HD
BRANCH   9  12
HETATM   12  C   UNL     1       6.857  29.164  57.644  1.00  0.00     0.126 A 
HETATM   13  N   UNL     1       6.563  30.102  58.607  1.00  0.00    -0.272 N 
HETATM   14  H   UNL     1       5.664  30.245  59.055  1.00  0.00     0.189 HD
HETATM   15  N   UNL     1       7.592  30.894  58.949  1.00  0.00    -0.178 NA
HETATM   16  C   UNL     1       8.581  30.468  58.167  1.00  0.00     0.063 A 
HETATM   17  C   UNL     1       8.187  29.394  57.326  1.00  0.00     0.002 A 
HETATM   18  C   UNL     1       9.926  31.106  58.143  1.00  0.00     0.062 C 
HETATM   19  C   UNL     1       9.119  28.768  56.349  1.00  0.00     0.043 C 
HETATM   20  C   UNL     1      10.357  29.650  56.098  1.00  0.00     0.005 C 
HETATM   21  C   UNL     1      10.940  30.220  57.402  1.00  0.00     0.006 C 
ENDBRANCH   9  12
ENDBRANCH   7   8
ENDBRANCH   5   7
BRANCH   3  22
HETATM   22  N   UNL     1       5.788  25.523  51.849  1.00  0.00    -0.323 N 
HETATM   23  C   UNL     1       5.690  26.844  51.446  1.00  0.00     0.256 C 
HETATM   24  O   UNL     1       6.031  27.827  52.093  1.00  0.00    -0.267 OA
HETATM   25  H   UNL     1       5.587  24.808  51.162  1.00  0.00     0.169 HD
BRANCH  23  26
HETATM   26  C   UNL     1       5.127  27.070  50.082  1.00  0.00     0.035 A 
HETATM   27  C   UNL     1       4.350  26.116  49.422  1.00  0.00     0.036 A 
HETATM   28  C   UNL     1       3.854  26.438  48.170  1.00  0.00     0.117 A 
HETATM   29  N   UNL     1       4.071  27.620  47.557  1.00  0.00    -0.273 NA
HETATM   30  C   UNL     1       4.803  28.534  48.227  1.00  0.00     0.117 A 
HETATM   31  C   UNL     1       5.347  28.310  49.478  1.00  0.00     0.036 A 
ENDBRANCH  23  26
ENDBRANCH   3  22
BRANCH   1  32
HETATM   32  C   UNL     1       8.566  22.673  54.899  1.00  0.00     0.293 C 
HETATM   33  O   UNL     1       9.207  22.125  54.015  1.00  0.00    -0.259 OA
BRANCH  32  34
HETATM   34  O   UNL     1       8.678  22.435  56.228  1.00  0.00    -0.323 OA
HETATM   35  C   UNL     1       8.589  21.056  56.587  1.00  0.00     0.213 C 
ENDBRANCH  32  34
ENDBRANCH   1  32
TORSDOF 7
ENDMDL
MODEL 6
REMARK VINA RESULT:      -9.6      3.949      8.516
REMARK  7 active torsions:
REMARK  status: ('A' for Active; 'I' for Inactive)
REMARK    1  A    between atoms: O_2  and  C_3 
REMARK    2  A    between atoms: C_3  and  C_4 
REMARK    3  A    between atoms: C_6  and  N_7 
REMARK       I    between atoms: N_7  and  C_8 
REMARK    4  A    between atoms: C_8  and  C_9 
REMARK    5  A    between atoms: C_17  and  C_18 
REMARK    6  A    between atoms: C_18  and  N_19 
REMARK       I    between atoms: N_19  and  C_20 
REMARK    7  A    between atoms: C_20  and  C_21 
ROOT
HETATM    1  C   UNL     1       4.783  29.558  55.529  1.00  0.00     0.042 A 
HETATM    2  C   UNL     1       4.606  29.212  54.181  1.00  0.00     0.047 A 
HETATM    3  C   UNL     1       5.469  28.304  53.563  1.00  0.00     0.036 A 
HETATM    4  C   UNL     1       6.513  27.742  54.312  1.00  0.00     0.038 A 
HETATM    5  C   UNL     1       6.688  28.053  55.671  1.00  0.00    -0.037 A 
HETATM    6  C   UNL     1       5.828  28.982  56.265  1.00  0.00     0.026 A 
ENDROOT
BRANCH   5   7
HETATM    7  C   UNL     1       7.763  27.377  56.478  1.00  0.00     0.161 C 
BRANCH   7   8
HETATM    8  N   UNL     1       7.931  25.992  56.119  1.00  0.00    -0.351 N 
HETATM    9  C   UNL     1       7.210  24.989  56.719  1.00  0.00     0.270 C 
HETATM   10  O   UNL     1       6.281  25.221  57.486  1.00  0.00    -0.266 OA
HETATM   11  H   UNL     1       8.563  25.767  55.369  1.00  0.00     0.163 HD
BRANCH   9  12
HETATM   12  C   UNL     1       7.613  23.643  56.397  1.00  0.00     0.126 A 
HETATM   13  N   UNL     1       8.120  22.823  57.378  1.00  0.00    -0.272 N 
HETATM   14  H   UNL     1       8.246  23.061  58.357  1.00  0.00     0.189 HD
HETATM   15  N   UNL     1       8.485  21.602  56.954  1.00  0.00    -0.178 NA
HETATM   16  C   UNL     1       8.223  21.639  55.650  1.00  0.00     0.063 A 
HETATM   17  C   UNL     1       7.682  22.885  55.238  1.00  0.00     0.002 A 
HETATM   18  C   UNL     1       8.535  20.511  54.729  1.00  0.00     0.062 C 
HETATM   19  C   UNL     1       7.331  23.167  53.818  1.00  0.00     0.043 C 
HETATM   20  C   UNL     1       7.973  22.147  52.860  1.00  0.00     0.005 C 
HETATM   21  C   UNL     1       7.841  20.702  53.372  1.00  0.00     0.006 C 
ENDBRANCH   9  12
ENDBRANCH   7   8
ENDBRANCH   5   7
BRANCH   3  22
HETATM   22  N   UNL     1       5.339  27.876  52.223  1.00  0.00    -0.323 N 
HETATM   23  C   UNL     1       5.531  28.632  51.079  1.00  0.00     0.256 C 
HETATM   24  O   UNL     1       5.960  29.779  51.030  1.00  0.00    -0.267 OA
HETATM   25  H   UNL     1       5.100  26.900  52.104  1.00  0.00     0.169 HD
BRANCH  23  26
HETATM   26  C   UNL     1       5.190  27.961  49.789  1.00  0.00     0.035 A 
HETATM   27  C   UNL     1       4.587  26.703  49.732  1.00  0.00     0.036 A 
HETATM   28  C   UNL     1       4.289  26.184  48.483  1.00  0.00     0.117 A 
HETATM   29  N   UNL     1       4.540  26.826  47.323  1.00  0.00    -0.273 NA
HETATM   30  C   UNL     1       5.100  28.050  47.407  1.00  0.00     0.117 A 
HETATM   31  C   UNL     1       5.439  28.655  48.602  1.00  0.00     0.036 A 
ENDBRANCH  23  26
ENDBRANCH   3  22
BRANCH   1  32
HETATM   32  C   UNL     1       3.881  30.511  56.232  1.00  0.00     0.293 C 
HETATM   33  O   UNL     1       2.824  30.901  55.760  1.00  0.00    -0.259 OA
BRANCH  32  34
HETATM   34  O   UNL     1       4.413  30.895  57.416  1.00  0.00    -0.323 OA
HETATM   35  C   UNL     1       3.458  31.062  58.464  1.00  0.00     0.213 C 
ENDBRANCH  32  34
ENDBRANCH   1  32
TORSDOF 7
ENDMDL
MODEL 7
REMARK VINA RESULT:      -9.4      2.550      4.018
REMARK  7 active torsions:
REMARK  status: ('A' for Active; 'I' for Inactive)
REMARK    1  A    between atoms: O_2  and  C_3 
REMARK    2  A    between atoms: C_3  and  C_4 
REMARK    3  A    between atoms: C_6  and  N_7 
REMARK       I    between atoms: N_7  and  C_8 
REMARK    4  A    between atoms: C_8  and  C_9 
REMARK    5  A    between atoms: C_17  and  C_18 
REMARK    6  A    between atoms: C_18  and  N_19 
REMARK       I    between atoms: N_19  and  C_20 
REMARK    7  A    between atoms: C_20  and  C_21 
ROOT
HETATM    1  C   UNL     1       5.239  27.092  51.032  1.00  0.00     0.042 A 
HETATM    2  C   UNL     1       5.736  25.819  51.348  1.00  0.00     0.047 A 
HETATM    3  C   UNL     1       6.024  25.479  52.672  1.00  0.00     0.036 A 
HETATM    4  C   UNL     1       5.805  26.430  53.680  1.00  0.00     0.038 A 
HETATM    5  C   UNL     1       5.280  27.699  53.387  1.00  0.00    -0.037 A 
HETATM    6  C   UNL     1       5.020  28.029  52.053  1.00  0.00     0.026 A 
ENDROOT
BRANCH   5   7
HETATM    7  C   UNL     1       4.975  28.674  54.492  1.00  0.00     0.161 C 
BRANCH   7   8
HETATM    8  N   UNL     1       6.153  29.059  55.227  1.00  0.00    -0.351 N 
HETATM    9  C   UNL     1       6.194  29.046  56.599  1.00  0.00     0.270 C 
HETATM   10  O   UNL     1       5.288  28.570  57.275  1.00  0.00    -0.266 OA
HETATM   11  H   UNL     1       6.983  29.294  54.708  1.00  0.00     0.163 HD
BRANCH   9  12
HETATM   12  C   UNL     1       7.367  29.630  57.200  1.00  0.00     0.126 A 
HETATM   13  N   UNL     1       8.619  29.249  56.778  1.00  0.00    -0.272 N 
HETATM   14  H   UNL     1       8.831  28.575  56.049  1.00  0.00     0.189 HD
HETATM   15  N   UNL     1       9.634  29.840  57.430  1.00  0.00    -0.178 NA
HETATM   16  C   UNL     1       9.017  30.616  58.318  1.00  0.00     0.063 A 
HETATM   17  C   UNL     1       7.603  30.528  58.230  1.00  0.00     0.002 A 
HETATM   18  C   UNL     1       9.749  31.429  59.329  1.00  0.00     0.062 C 
HETATM   19  C   UNL     1       6.703  31.290  59.139  1.00  0.00     0.043 C 
HETATM   20  C   UNL     1       7.458  31.830  60.368  1.00  0.00     0.005 C 
HETATM   21  C   UNL     1       8.814  32.452  59.992  1.00  0.00     0.006 C 
ENDBRANCH   9  12
ENDBRANCH   7   8
ENDBRANCH   5   7
BRANCH   3  22
HETATM   22  N   UNL     1       6.492  24.210  53.079  1.00  0.00    -0.323 N 
HETATM   23  C   UNL     1       7.462  23.939  54.029  1.00  0.00     0.256 C 
HETATM   24  O   UNL     1       8.002  24.755  54.768  1.00  0.00    -0.267 OA
HETATM   25  H   UNL     1       6.044  23.422  52.631  1.00  0.00     0.169 HD
BRANCH  23  26
HETATM   26  C   UNL     1       7.863  22.508  54.162  1.00  0.00     0.035 A 
HETATM   27  C   UNL     1       8.031  21.885  55.401  1.00  0.00     0.036 A 
HETATM   28  C   UNL     1       8.378  20.545  55.411  1.00  0.00     0.117 A 
HETATM   29  N   UNL     1       8.556  19.806  54.296  1.00  0.00    -0.273 NA
HETATM   30  C   UNL     1       8.363  20.424  53.112  1.00  0.00     0.117 A 
HETATM   31  C   UNL     1       8.020  21.758  52.994  1.00  0.00     0.036 A 
ENDBRANCH  23  26
ENDBRANCH   3  22
BRANCH   1  32
HETATM   32  C   UNL     1       4.906  27.495  49.638  1.00  0.00     0.293 C 
HETATM   33  O   UNL     1       5.577  28.286  48.994  1.00  0.00    -0.259 OA
BRANCH  32  34
HETATM   34  O   UNL     1       3.762  26.900  49.224  1.00  0.00    -0.323 OA
HETATM   35  C   UNL     1       3.908  26.099  48.051  1.00  0.00     0.213 C 
ENDBRANCH  32  34
ENDBRANCH   1  32
TORSDOF 7
ENDMDL
MODEL 8
REMARK VINA RESULT:      -9.3      3.595      9.816
REMARK  7 active torsions:
REMARK  status: ('A' for Active; 'I' for Inactive)
REMARK    1  A    between atoms: O_2  and  C_3 
REMARK    2  A    between atoms: C_3  and  C_4 
REMARK    3  A    between atoms: C_6  and  N_7 
REMARK       I    between atoms: N_7  and  C_8 
REMARK    4  A    between atoms: C_8  and  C_9 
REMARK    5  A    between atoms: C_17  and  C_18 
REMARK    6  A    between atoms: C_18  and  N_19 
REMARK       I    between atoms: N_19  and  C_20 
REMARK    7  A    between atoms: C_20  and  C_21 
ROOT
HETATM    1  C   UNL     1       7.435  23.878  54.711  1.00  0.00     0.042 A 
HETATM    2  C   UNL     1       8.038  24.949  55.386  1.00  0.00     0.047 A 
HETATM    3  C   UNL     1       7.541  26.247  55.243  1.00  0.00     0.036 A 
HETATM    4  C   UNL     1       6.428  26.461  54.417  1.00  0.00     0.038 A 
HETATM    5  C   UNL     1       5.792  25.396  53.757  1.00  0.00    -0.037 A 
HETATM    6  C   UNL     1       6.319  24.108  53.894  1.00  0.00     0.026 A 
ENDROOT
BRANCH   5   7
HETATM    7  C   UNL     1       4.550  25.634  52.941  1.00  0.00     0.161 C 
BRANCH   7   8
HETATM    8  N   UNL     1       4.598  26.878  52.215  1.00  0.00    -0.351 N 
HETATM    9  C   UNL     1       4.904  26.931  50.878  1.00  0.00     0.270 C 
HETATM   10  O   UNL     1       5.009  25.920  50.191  1.00  0.00    -0.266 OA
HETATM   11  H   UNL     1       4.349  27.724  52.701  1.00  0.00     0.163 HD
BRANCH   9  12
HETATM   12  C   UNL     1       5.099  28.249  50.327  1.00  0.00     0.126 A 
HETATM   13  N   UNL     1       5.722  29.222  51.074  1.00  0.00    -0.272 N 
HETATM   14  H   UNL     1       6.089  29.117  52.015  1.00  0.00     0.189 HD
HETATM   15  N   UNL     1       5.823  30.415  50.467  1.00  0.00    -0.178 NA
HETATM   16  C   UNL     1       5.227  30.214  49.294  1.00  0.00     0.063 A 
HETATM   17  C   UNL     1       4.750  28.885  49.146  1.00  0.00     0.002 A 
HETATM   18  C   UNL     1       5.033  31.295  48.289  1.00  0.00     0.062 C 
HETATM   19  C   UNL     1       4.029  28.433  47.924  1.00  0.00     0.043 C 
HETATM   20  C   UNL     1       3.542  29.623  47.077  1.00  0.00     0.005 C 
HETATM   21  C   UNL     1       4.618  30.713  46.929  1.00  0.00     0.006 C 
ENDBRANCH   9  12
ENDBRANCH   7   8
ENDBRANCH   5   7
BRANCH   3  22
HETATM   22  N   UNL     1       8.066  27.374  55.914  1.00  0.00    -0.323 N 
HETATM   23  C   UNL     1       8.061  27.616  57.278  1.00  0.00     0.256 C 
HETATM   24  O   UNL     1       7.700  26.836  58.152  1.00  0.00    -0.267 OA
HETATM   25  H   UNL     1       8.512  28.060  55.319  1.00  0.00     0.169 HD
BRANCH  23  26
HETATM   26  C   UNL     1       8.562  28.956  57.704  1.00  0.00     0.035 A 
HETATM   27  C   UNL     1       9.798  29.461  57.297  1.00  0.00     0.036 A 
HETATM   28  C   UNL     1      10.154  30.727  57.729  1.00  0.00     0.117 A 
HETATM   29  N   UNL     1       9.375  31.502  58.511  1.00  0.00    -0.273 NA
HETATM   30  C   UNL     1       8.175  31.001  58.870  1.00  0.00     0.117 A 
HETATM   31  C   UNL     1       7.727  29.748  58.496  1.00  0.00     0.036 A 
ENDBRANCH  23  26
ENDBRANCH   3  22
BRANCH   1  32
HETATM   32  C   UNL     1       7.922  22.477  54.843  1.00  0.00     0.293 C 
HETATM   33  O   UNL     1       7.955  21.880  55.908  1.00  0.00    -0.259 OA
BRANCH  32  34
HETATM   34  O   UNL     1       8.344  21.999  53.648  1.00  0.00    -0.323 OA
HETATM   35  C   UNL     1       7.907  20.671  53.359  1.00  0.00     0.213 C 
ENDBRANCH  32  34
ENDBRANCH   1  32
TORSDOF 7
ENDMDL
MODEL 9
REMARK VINA RESULT:      -9.2      3.177      7.893
REMARK  7 active torsions:
REMARK  status: ('A' for Active; 'I' for Inactive)
REMARK    1  A    between atoms: O_2  and  C_3 
REMARK    2  A    between atoms: C_3  and  C_4 
REMARK    3  A    between atoms: C_6  and  N_7 
REMARK       I    between atoms: N_7  and  C_8 
REMARK    4  A    between atoms: C_8  and  C_9 
REMARK    5  A    between atoms: C_17  and  C_18 
REMARK    6  A    between atoms: C_18  and  N_19 
REMARK       I    between atoms: N_19  and  C_20 
REMARK    7  A    between atoms: C_20  and  C_21 
ROOT
HETATM    1  C   UNL     1       7.883  23.410  54.692  1.00  0.00     0.042 A 
HETATM    2  C   UNL     1       8.293  24.447  55.543  1.00  0.00     0.047 A 
HETATM    3  C   UNL     1       7.595  25.656  55.573  1.00  0.00     0.036 A 
HETATM    4  C   UNL     1       6.476  25.816  54.742  1.00  0.00     0.038 A 
HETATM    5  C   UNL     1       6.033  24.779  53.906  1.00  0.00    -0.037 A 
HETATM    6  C   UNL     1       6.759  23.583  53.872  1.00  0.00     0.026 A 
ENDROOT
BRANCH   5   7
HETATM    7  C   UNL     1       4.783  24.940  53.084  1.00  0.00     0.161 C 
BRANCH   7   8
HETATM    8  N   UNL     1       4.199  26.250  53.222  1.00  0.00    -0.351 N 
HETATM    9  C   UNL     1       4.583  27.307  52.435  1.00  0.00     0.270 C 
HETATM   10  O   UNL     1       5.335  27.168  51.475  1.00  0.00    -0.266 OA
HETATM   11  H   UNL     1       3.451  26.371  53.884  1.00  0.00     0.163 HD
BRANCH   9  12
HETATM   12  C   UNL     1       4.053  28.595  52.806  1.00  0.00     0.126 A 
HETATM   13  N   UNL     1       3.619  29.466  51.834  1.00  0.00    -0.272 N 
HETATM   14  H   UNL     1       3.618  29.300  50.833  1.00  0.00     0.189 HD
HETATM   15  N   UNL     1       3.171  30.645  52.297  1.00  0.00    -0.178 NA
HETATM   16  C   UNL     1       3.341  30.541  53.614  1.00  0.00     0.063 A 
HETATM   17  C   UNL     1       3.891  29.289  53.996  1.00  0.00     0.002 A 
HETATM   18  C   UNL     1       3.043  31.653  54.558  1.00  0.00     0.062 C 
HETATM   19  C   UNL     1       4.190  28.954  55.415  1.00  0.00     0.043 C 
HETATM   20  C   UNL     1       4.206  30.211  56.306  1.00  0.00     0.005 C 
HETATM   21  C   UNL     1       3.024  31.150  56.010  1.00  0.00     0.006 C 
ENDBRANCH   9  12
ENDBRANCH   7   8
ENDBRANCH   5   7
BRANCH   3  22
HETATM   22  N   UNL     1       7.919  26.736  56.425  1.00  0.00    -0.323 N 
HETATM   23  C   UNL     1       8.026  28.073  56.080  1.00  0.00     0.256 C 
HETATM   24  O   UNL     1       7.743  28.568  54.995  1.00  0.00    -0.267 OA
HETATM   25  H   UNL     1       8.066  26.490  57.395  1.00  0.00     0.169 HD
BRANCH  23  26
HETATM   26  C   UNL     1       8.520  28.985  57.153  1.00  0.00     0.035 A 
HETATM   27  C   UNL     1       9.787  29.572  57.118  1.00  0.00     0.036 A 
HETATM   28  C   UNL     1      10.135  30.425  58.151  1.00  0.00     0.117 A 
HETATM   29  N   UNL     1       9.321  30.727  59.184  1.00  0.00    -0.273 NA
HETATM   30  C   UNL     1       8.093  30.167  59.181  1.00  0.00     0.117 A 
HETATM   31  C   UNL     1       7.650  29.301  58.200  1.00  0.00     0.036 A 
ENDBRANCH  23  26
ENDBRANCH   3  22
BRANCH   1  32
HETATM   32  C   UNL     1       8.588  22.100  54.635  1.00  0.00     0.293 C 
HETATM   33  O   UNL     1       8.936  21.485  55.632  1.00  0.00    -0.259 OA
BRANCH  32  34
HETATM   34  O   UNL     1       8.810  21.727  53.353  1.00  0.00    -0.323 OA
HETATM   35  C   UNL     1       8.358  20.410  53.036  1.00  0.00     0.213 C 
ENDBRANCH  32  34
ENDBRANCH   1  32
TORSDOF 7
ENDMDL
MODEL 10
REMARK VINA RESULT:      -9.2      4.664      8.557
REMARK  7 active torsions:
REMARK  status: ('A' for Active; 'I' for Inactive)
REMARK    1  A    between atoms: O_2  and  C_3 
REMARK    2  A    between atoms: C_3  and  C_4 
REMARK    3  A    between atoms: C_6  and  N_7 
REMARK       I    between atoms: N_7  and  C_8 
REMARK    4  A    between atoms: C_8  and  C_9 
REMARK    5  A    between atoms: C_17  and  C_18 
REMARK    6  A    between atoms: C_18  and  N_19 
REMARK       I    between atoms: N_19  and  C_20 
REMARK    7  A    between atoms: C_20  and  C_21 
ROOT
HETATM    1  C   UNL     1       4.128  30.833  54.022  1.00  0.00     0.042 A 
HETATM    2  C   UNL     1       3.775  30.249  52.796  1.00  0.00     0.047 A 
HETATM    3  C   UNL     1       3.744  28.859  52.657  1.00  0.00     0.036 A 
HETATM    4  C   UNL     1       4.068  28.057  53.761  1.00  0.00     0.038 A 
HETATM    5  C   UNL     1       4.394  28.623  55.004  1.00  0.00    -0.037 A 
HETATM    6  C   UNL     1       4.442  30.017  55.118  1.00  0.00     0.026 A 
ENDROOT
BRANCH   5   7
HETATM    7  C   UNL     1       4.657  27.747  56.199  1.00  0.00     0.161 C 
BRANCH   7   8
HETATM    8  N   UNL     1       5.578  26.679  55.905  1.00  0.00    -0.351 N 
HETATM    9  C   UNL     1       5.577  25.499  56.607  1.00  0.00     0.270 C 
HETATM   10  O   UNL     1       4.702  25.225  57.423  1.00  0.00    -0.266 OA
HETATM   11  H   UNL     1       6.205  26.791  55.125  1.00  0.00     0.163 HD
BRANCH   9  12
HETATM   12  C   UNL     1       6.668  24.599  56.331  1.00  0.00     0.126 A 
HETATM   13  N   UNL     1       7.565  24.280  57.324  1.00  0.00    -0.272 N 
HETATM   14  H   UNL     1       7.546  24.613  58.283  1.00  0.00     0.189 HD
HETATM   15  N   UNL     1       8.553  23.454  56.943  1.00  0.00    -0.178 NA
HETATM   16  C   UNL     1       8.299  23.248  55.652  1.00  0.00     0.063 A 
HETATM   17  C   UNL     1       7.140  23.936  55.208  1.00  0.00     0.002 A 
HETATM   18  C   UNL     1       9.184  22.434  54.774  1.00  0.00     0.062 C 
HETATM   19  C   UNL     1       6.672  23.873  53.796  1.00  0.00     0.043 C 
HETATM   20  C   UNL     1       7.768  23.333  52.857  1.00  0.00     0.005 C 
HETATM   21  C   UNL     1       8.486  22.106  53.445  1.00  0.00     0.006 C 
ENDBRANCH   9  12
ENDBRANCH   7   8
ENDBRANCH   5   7
BRANCH   3  22
HETATM   22  N   UNL     1       3.366  28.191  51.470  1.00  0.00    -0.323 N 
HETATM   23  C   UNL     1       4.141  27.987  50.340  1.00  0.00     0.256 C 
HETATM   24  O   UNL     1       5.332  28.250  50.219  1.00  0.00    -0.267 OA
HETATM   25  H   UNL     1       2.430  27.809  51.470  1.00  0.00     0.169 HD
BRANCH  23  26
HETATM   26  C   UNL     1       3.442  27.371  49.174  1.00  0.00     0.035 A 
HETATM   27  C   UNL     1       2.325  27.953  48.572  1.00  0.00     0.036 A 
HETATM   28  C   UNL     1       1.770  27.311  47.478  1.00  0.00     0.117 A 
HETATM   29  N   UNL     1       2.250  26.162  46.957  1.00  0.00    -0.273 NA
HETATM   30  C   UNL     1       3.345  25.633  47.541  1.00  0.00     0.117 A 
HETATM   31  C   UNL     1       3.972  26.194  48.639  1.00  0.00     0.036 A 
ENDBRANCH  23  26
ENDBRANCH   3  22
BRANCH   1  32
HETATM   32  C   UNL     1       4.162  32.307  54.222  1.00  0.00     0.293 C 
HETATM   33  O   UNL     1       4.513  33.090  53.352  1.00  0.00    -0.259 OA
BRANCH  32  34
HETATM   34  O   UNL     1       3.795  32.632  55.484  1.00  0.00    -0.323 OA
HETATM   35  C   UNL     1       4.557  33.691  56.064  1.00  0.00     0.213 C 
ENDBRANCH  32  34
ENDBRANCH   1  32
TORSDOF 7
ENDMDL
