MODEL 1
REMARK VINA RESULT:     -10.7      0.000      0.000
REMARK  5 active torsions:
REMARK  status: ('A' for Active; 'I' for Inactive)
REMARK    1  A    between atoms: C_7  and  C_8 
REMARK    2  A    between atoms: C_16  and  C_17 
REMARK    3  A    between atoms: C_20  and  O_21 
REMARK    4  A    between atoms: C_24  and  C_25 
REMARK       I    between atoms: C_25  and  N_26 
REMARK    5  A    between atoms: N_26  and  C_27 
ROOT
HETATM    1  C   UNL     1       3.866  31.009  54.726  1.00  0.00     0.070 C 
HETATM    2  C   UNL     1       4.852  29.952  55.169  1.00  0.00     0.037 A 
HETATM    3  N   UNL     1       4.951  28.851  54.322  1.00  0.00    -0.192 N 
HETATM    4  C   UNL     1       5.680  27.759  54.604  1.00  0.00     0.726 A 
HETATM    5  N   UNL     1       6.439  27.745  55.732  1.00  0.00    -0.083 N 
HETATM    6  N   UNL     1       7.001  26.537  55.937  1.00  0.00    -0.135 NA
HETATM    7  C   UNL     1       6.625  25.881  54.822  1.00  0.00     0.199 A 
HETATM    8  N   UNL     1       5.794  26.611  53.990  1.00  0.00    -0.041 NA
HETATM    9  C   UNL     1       6.531  28.862  56.677  1.00  0.00     0.202 A 
HETATM   10  C   UNL     1       5.585  30.009  56.316  1.00  0.00     0.062 A 
HETATM   11  H   UNL     1       4.360  28.838  53.495  1.00  0.00     0.184 HD
ENDROOT
BRANCH  10  12
HETATM   12  C   UNL     1       5.510  31.213  57.219  1.00  0.00     0.256 C 
HETATM   13  N   UNL     1       5.053  30.975  58.501  1.00  0.00    -0.323 N 
HETATM   14  H   UNL     1       4.928  30.026  58.813  1.00  0.00     0.169 HD
HETATM   15  O   UNL     1       5.883  32.308  56.807  1.00  0.00    -0.267 OA
BRANCH  13  16
HETATM   16  C   UNL     1       4.792  31.939  59.503  1.00  0.00     0.035 A 
HETATM   17  C   UNL     1       3.525  32.454  59.784  1.00  0.00     0.029 A 
HETATM   18  C   UNL     1       3.349  33.382  60.816  1.00  0.00     0.002 A 
HETATM   19  C   UNL     1       4.439  33.807  61.573  1.00  0.00     0.000 A 
HETATM   20  C   UNL     1       5.706  33.302  61.300  1.00  0.00     0.002 A 
HETATM   21  C   UNL     1       5.881  32.368  60.275  1.00  0.00     0.029 A 
ENDBRANCH  13  16
ENDBRANCH  10  12
BRANCH   9  22
HETATM   22  C   UNL     1       7.994  29.278  56.822  1.00  0.00    -0.028 A 
HETATM   23  C   UNL     1       8.873  29.294  55.724  1.00  0.00     0.012 A 
HETATM   24  C   UNL     1      10.214  29.650  55.891  1.00  0.00     0.037 A 
HETATM   25  C   UNL     1      10.684  29.979  57.157  1.00  0.00     0.065 A 
HETATM   26  C   UNL     1       9.838  29.959  58.258  1.00  0.00     0.037 A 
HETATM   27  C   UNL     1       8.499  29.606  58.094  1.00  0.00     0.012 A 
BRANCH  25  28
HETATM   28  O   UNL     1      11.987  30.322  57.365  1.00  0.00    -0.361 OA
HETATM   29  H   UNL     1      12.045  30.836  58.186  1.00  0.00     0.217 HD
ENDBRANCH  25  28
ENDBRANCH   9  22
BRANCH   7  30
HETATM   30  C   UNL     1       7.035  24.514  54.508  1.00  0.00     0.014 A 
HETATM   31  C   UNL     1       7.186  23.558  55.525  1.00  0.00     0.017 A 
HETATM   32  C   UNL     1       7.587  22.252  55.220  1.00  0.00     0.025 A 
HETATM   33  C   UNL     1       7.838  21.896  53.897  1.00  0.00     0.034 A 
HETATM   34 CL   UNL     1       8.333  20.292  53.524  1.00  0.00    -0.084 Cl
HETATM   35  C   UNL     1       7.693  22.833  52.877  1.00  0.00     0.025 A 
HETATM   36  C   UNL     1       7.293  24.138  53.182  1.00  0.00     0.017 A 
ENDBRANCH   7  30
TORSDOF 5
ENDMDL
MODEL 2
REMARK VINA RESULT:     -10.0      4.121      9.491
REMARK  5 active torsions:
REMARK  status: ('A' for Active; 'I' for Inactive)
REMARK    1  A    between atoms: C_7  and  C_8 
REMARK    2  A    between atoms: C_16  and  C_17 
REMARK    3  A    between atoms: C_20  and  O_21 
REMARK    4  A    between atoms: C_24  and  C_25 
REMARK       I    between atoms: C_25  and  N_26 
REMARK    5  A    between atoms: N_26  and  C_27 
ROOT
HETATM    1  C   UNL     1      11.007  29.840  57.007  1.00  0.00     0.070 C 
HETATM    2  C   UNL     1       9.744  30.161  57.772  1.00  0.00     0.037 A 
HETATM    3  N   UNL     1       9.859  31.210  58.680  1.00  0.00    -0.192 N 
HETATM    4  C   UNL     1       8.885  31.564  59.535  1.00  0.00     0.726 A 
HETATM    5  N   UNL     1       7.683  30.932  59.465  1.00  0.00    -0.083 N 
HETATM    6  N   UNL     1       6.866  31.308  60.469  1.00  0.00    -0.135 NA
HETATM    7  C   UNL     1       7.604  32.268  61.061  1.00  0.00     0.199 A 
HETATM    8  N   UNL     1       8.863  32.432  60.511  1.00  0.00    -0.041 NA
HETATM    9  C   UNL     1       7.362  29.878  58.498  1.00  0.00     0.202 A 
HETATM   10  C   UNL     1       8.569  29.483  57.645  1.00  0.00     0.062 A 
HETATM   11  H   UNL     1      10.764  31.664  58.763  1.00  0.00     0.184 HD
ENDROOT
BRANCH  10  12
HETATM   12  C   UNL     1       8.426  28.369  56.640  1.00  0.00     0.256 C 
HETATM   13  N   UNL     1       8.120  27.125  57.160  1.00  0.00    -0.323 N 
HETATM   14  H   UNL     1       7.875  27.044  58.134  1.00  0.00     0.169 HD
HETATM   15  O   UNL     1       8.544  28.611  55.443  1.00  0.00    -0.267 OA
BRANCH  13  16
HETATM   16  C   UNL     1       8.036  25.905  56.450  1.00  0.00     0.035 A 
HETATM   17  C   UNL     1       7.267  25.717  55.301  1.00  0.00     0.029 A 
HETATM   18  C   UNL     1       7.267  24.485  54.640  1.00  0.00     0.002 A 
HETATM   19  C   UNL     1       8.033  23.427  55.124  1.00  0.00     0.000 A 
HETATM   20  C   UNL     1       8.803  23.602  56.270  1.00  0.00     0.002 A 
HETATM   21  C   UNL     1       8.809  24.836  56.926  1.00  0.00     0.029 A 
ENDBRANCH  13  16
ENDBRANCH  10  12
BRANCH   9  22
HETATM   22  C   UNL     1       6.134  30.295  57.690  1.00  0.00    -0.028 A 
HETATM   23  C   UNL     1       5.939  31.623  57.268  1.00  0.00     0.012 A 
HETATM   24  C   UNL     1       4.792  31.982  56.556  1.00  0.00     0.037 A 
HETATM   25  C   UNL     1       3.829  31.020  56.275  1.00  0.00     0.065 A 
HETATM   26  C   UNL     1       3.993  29.706  56.691  1.00  0.00     0.037 A 
HETATM   27  C   UNL     1       5.139  29.344  57.400  1.00  0.00     0.012 A 
BRANCH  25  28
HETATM   28  O   UNL     1       2.690  31.331  55.592  1.00  0.00    -0.361 OA
HETATM   29  H   UNL     1       2.399  30.546  55.101  1.00  0.00     0.217 HD
ENDBRANCH  25  28
ENDBRANCH   9  22
BRANCH   7  30
HETATM   30  C   UNL     1       7.139  33.062  62.196  1.00  0.00     0.014 A 
HETATM   31  C   UNL     1       7.687  32.880  63.475  1.00  0.00     0.017 A 
HETATM   32  C   UNL     1       7.234  33.638  64.560  1.00  0.00     0.025 A 
HETATM   33  C   UNL     1       6.228  34.583  64.370  1.00  0.00     0.034 A 
HETATM   34 CL   UNL     1       5.669  35.514  65.704  1.00  0.00    -0.084 Cl
HETATM   35  C   UNL     1       5.674  34.778  63.107  1.00  0.00     0.025 A 
HETATM   36  C   UNL     1       6.128  34.019  62.024  1.00  0.00     0.017 A 
ENDBRANCH   7  30
TORSDOF 5
ENDMDL
MODEL 3
REMARK VINA RESULT:      -9.9      1.814      2.352
REMARK  5 active torsions:
REMARK  status: ('A' for Active; 'I' for Inactive)
REMARK    1  A    between atoms: C_7  and  C_8 
REMARK    2  A    between atoms: C_16  and  C_17 
REMARK    3  A    between atoms: C_20  and  O_21 
REMARK    4  A    between atoms: C_24  and  C_25 
REMARK       I    between atoms: C_25  and  N_26 
REMARK    5  A    between atoms: N_26  and  C_27 
ROOT
HETATM    1  C   UNL     1       3.482  29.724  52.884  1.00  0.00     0.070 C 
HETATM    2  C   UNL     1       4.365  28.826  53.721  1.00  0.00     0.037 A 
HETATM    3  N   UNL     1       4.822  27.683  53.071  1.00  0.00    -0.192 N 
HETATM    4  C   UNL     1       5.516  26.708  53.680  1.00  0.00     0.726 A 
HETATM    5  N   UNL     1       5.876  26.867  54.981  1.00  0.00    -0.083 N 
HETATM    6  N   UNL     1       6.447  25.752  55.479  1.00  0.00    -0.135 NA
HETATM    7  C   UNL     1       6.503  24.975  54.379  1.00  0.00     0.199 A 
HETATM    8  N   UNL     1       5.918  25.538  53.258  1.00  0.00    -0.041 NA
HETATM    9  C   UNL     1       5.566  28.056  55.781  1.00  0.00     0.202 A 
HETATM   10  C   UNL     1       4.688  29.055  55.025  1.00  0.00     0.062 A 
HETATM   11  H   UNL     1       4.528  27.539  52.108  1.00  0.00     0.184 HD
ENDROOT
BRANCH  10  12
HETATM   12  C   UNL     1       4.226  30.306  55.725  1.00  0.00     0.256 C 
HETATM   13  N   UNL     1       5.027  31.420  55.557  1.00  0.00    -0.323 N 
HETATM   14  H   UNL     1       5.778  31.392  54.887  1.00  0.00     0.169 HD
HETATM   15  O   UNL     1       3.175  30.296  56.359  1.00  0.00    -0.267 OA
BRANCH  13  16
HETATM   16  C   UNL     1       4.875  32.678  56.186  1.00  0.00     0.035 A 
HETATM   17  C   UNL     1       4.884  32.870  57.568  1.00  0.00     0.029 A 
HETATM   18  C   UNL     1       4.762  34.155  58.107  1.00  0.00     0.002 A 
HETATM   19  C   UNL     1       4.624  35.259  57.270  1.00  0.00     0.000 A 
HETATM   20  C   UNL     1       4.613  35.080  55.890  1.00  0.00     0.002 A 
HETATM   21  C   UNL     1       4.744  33.797  55.351  1.00  0.00     0.029 A 
ENDBRANCH  13  16
ENDBRANCH  10  12
BRANCH   9  22
HETATM   22  C   UNL     1       6.865  28.649  56.324  1.00  0.00    -0.028 A 
HETATM   23  C   UNL     1       7.999  28.820  55.510  1.00  0.00     0.012 A 
HETATM   24  C   UNL     1       9.184  29.338  56.040  1.00  0.00     0.037 A 
HETATM   25  C   UNL     1       9.244  29.674  57.387  1.00  0.00     0.065 A 
HETATM   26  C   UNL     1       8.141  29.504  58.213  1.00  0.00     0.037 A 
HETATM   27  C   UNL     1       6.956  28.989  57.686  1.00  0.00     0.012 A 
BRANCH  25  28
HETATM   28  O   UNL     1      10.383  30.172  57.946  1.00  0.00    -0.361 OA
HETATM   29  H   UNL     1      10.144  30.895  58.548  1.00  0.00     0.217 HD
ENDBRANCH  25  28
ENDBRANCH   9  22
BRANCH   7  30
HETATM   30  C   UNL     1       7.108  23.645  54.357  1.00  0.00     0.014 A 
HETATM   31  C   UNL     1       7.321  22.932  55.548  1.00  0.00     0.017 A 
HETATM   32  C   UNL     1       7.909  21.662  55.522  1.00  0.00     0.025 A 
HETATM   33  C   UNL     1       8.286  21.099  54.305  1.00  0.00     0.034 A 
HETATM   34 CL   UNL     1       9.011  19.540  54.274  1.00  0.00    -0.084 Cl
HETATM   35  C   UNL     1       8.081  21.793  53.115  1.00  0.00     0.025 A 
HETATM   36  C   UNL     1       7.495  23.062  53.141  1.00  0.00     0.017 A 
ENDBRANCH   7  30
TORSDOF 5
ENDMDL
MODEL 4
REMARK VINA RESULT:      -9.8      4.964      7.447
REMARK  5 active torsions:
REMARK  status: ('A' for Active; 'I' for Inactive)
REMARK    1  A    between atoms: C_7  and  C_8 
REMARK    2  A    between atoms: C_16  and  C_17 
REMARK    3  A    between atoms: C_20  and  O_21 
REMARK    4  A    between atoms: C_24  and  C_25 
REMARK       I    between atoms: C_25  and  N_26 
REMARK    5  A    between atoms: N_26  and  C_27 
ROOT
HETATM    1  C   UNL     1       3.489  30.446  53.804  1.00  0.00     0.070 C 
HETATM    2  C   UNL     1       4.265  29.321  53.159  1.00  0.00     0.037 A 
HETATM    3  N   UNL     1       4.399  28.177  53.942  1.00  0.00    -0.192 N 
HETATM    4  C   UNL     1       5.151  27.121  53.594  1.00  0.00     0.726 A 
HETATM    5  N   UNL     1       5.754  27.112  52.375  1.00  0.00    -0.083 N 
HETATM    6  N   UNL     1       6.573  26.051  52.234  1.00  0.00    -0.135 NA
HETATM    7  C   UNL     1       6.336  25.384  53.380  1.00  0.00     0.199 A 
HETATM    8  N   UNL     1       5.472  26.034  54.245  1.00  0.00    -0.041 NA
HETATM    9  C   UNL     1       5.631  28.189  51.388  1.00  0.00     0.202 A 
HETATM   10  C   UNL     1       4.840  29.384  51.925  1.00  0.00     0.062 A 
HETATM   11  H   UNL     1       3.980  28.190  54.869  1.00  0.00     0.184 HD
ENDROOT
BRANCH  10  12
HETATM   12  C   UNL     1       4.671  30.605  51.058  1.00  0.00     0.256 C 
HETATM   13  N   UNL     1       5.796  31.394  50.906  1.00  0.00    -0.323 N 
HETATM   14  H   UNL     1       6.682  31.062  51.249  1.00  0.00     0.169 HD
HETATM   15  O   UNL     1       3.594  30.818  50.510  1.00  0.00    -0.267 OA
BRANCH  13  16
HETATM   16  C   UNL     1       5.876  32.637  50.237  1.00  0.00     0.035 A 
HETATM   17  C   UNL     1       5.694  33.875  50.856  1.00  0.00     0.029 A 
HETATM   18  C   UNL     1       5.825  35.061  50.126  1.00  0.00     0.002 A 
HETATM   19  C   UNL     1       6.133  35.020  48.768  1.00  0.00     0.000 A 
HETATM   20  C   UNL     1       6.315  33.792  48.139  1.00  0.00     0.002 A 
HETATM   21  C   UNL     1       6.193  32.608  48.871  1.00  0.00     0.029 A 
ENDBRANCH  13  16
ENDBRANCH  10  12
BRANCH   9  22
HETATM   22  C   UNL     1       5.086  27.614  50.082  1.00  0.00    -0.028 A 
HETATM   23  C   UNL     1       5.364  28.207  48.837  1.00  0.00     0.012 A 
HETATM   24  C   UNL     1       4.829  27.677  47.661  1.00  0.00     0.037 A 
HETATM   25  C   UNL     1       4.003  26.561  47.725  1.00  0.00     0.065 A 
HETATM   26  C   UNL     1       3.704  25.966  48.942  1.00  0.00     0.037 A 
HETATM   27  C   UNL     1       4.239  26.491  50.118  1.00  0.00     0.012 A 
BRANCH  25  28
HETATM   28  O   UNL     1       3.451  26.019  46.602  1.00  0.00    -0.361 OA
HETATM   29  H   UNL     1       4.162  25.651  46.053  1.00  0.00     0.217 HD
ENDBRANCH  25  28
ENDBRANCH   9  22
BRANCH   7  30
HETATM   30  C   UNL     1       6.941  24.095  53.707  1.00  0.00     0.014 A 
HETATM   31  C   UNL     1       7.459  23.266  52.698  1.00  0.00     0.017 A 
HETATM   32  C   UNL     1       8.030  22.029  53.016  1.00  0.00     0.025 A 
HETATM   33  C   UNL     1       8.087  21.614  54.344  1.00  0.00     0.034 A 
HETATM   34 CL   UNL     1       8.786  20.092  54.734  1.00  0.00    -0.084 Cl
HETATM   35  C   UNL     1       7.578  22.424  55.357  1.00  0.00     0.025 A 
HETATM   36  C   UNL     1       7.007  23.660  55.039  1.00  0.00     0.017 A 
ENDBRANCH   7  30
TORSDOF 5
ENDMDL
MODEL 5
REMARK VINA RESULT:      -9.4      3.266      4.934
REMARK  5 active torsions:
REMARK  status: ('A' for Active; 'I' for Inactive)
REMARK    1  A    between atoms: C_7  and  C_8 
REMARK    2  A    between atoms: C_16  and  C_17 
REMARK    3  A    between atoms: C_20  and  O_21 
REMARK    4  A    between atoms: C_24  and  C_25 
REMARK       I    between atoms: C_25  and  N_26 
REMARK    5  A    between atoms: N_26  and  C_27 
ROOT
HETATM    1  C   UNL     1       5.033  28.663  49.705  1.00  0.00     0.070 C 
HETATM    2  C   UNL     1       5.174  27.897  51.001  1.00  0.00     0.037 A 
HETATM    3  N   UNL     1       6.087  26.846  50.964  1.00  0.00    -0.192 N 
HETATM    4  C   UNL     1       6.265  25.979  51.974  1.00  0.00     0.726 A 
HETATM    5  N   UNL     1       5.587  26.173  53.138  1.00  0.00    -0.083 N 
HETATM    6  N   UNL     1       5.773  25.150  53.996  1.00  0.00    -0.135 NA
HETATM    7  C   UNL     1       6.675  24.406  53.326  1.00  0.00     0.199 A 
HETATM    8  N   UNL     1       6.982  24.891  52.066  1.00  0.00    -0.041 NA
HETATM    9  C   UNL     1       4.667  27.288  53.379  1.00  0.00     0.202 A 
HETATM   10  C   UNL     1       4.461  28.153  52.133  1.00  0.00     0.062 A 
HETATM   11  H   UNL     1       6.571  26.674  50.087  1.00  0.00     0.184 HD
ENDROOT
BRANCH  10  12
HETATM   12  C   UNL     1       3.497  29.309  52.192  1.00  0.00     0.256 C 
HETATM   13  N   UNL     1       4.006  30.492  52.694  1.00  0.00    -0.323 N 
HETATM   14  H   UNL     1       4.996  30.572  52.862  1.00  0.00     0.169 HD
HETATM   15  O   UNL     1       2.353  29.170  51.770  1.00  0.00    -0.267 OA
BRANCH  13  16
HETATM   16  C   UNL     1       3.290  31.684  52.950  1.00  0.00     0.035 A 
HETATM   17  C   UNL     1       2.998  32.647  51.983  1.00  0.00     0.029 A 
HETATM   18  C   UNL     1       2.253  33.784  52.315  1.00  0.00     0.002 A 
HETATM   19  C   UNL     1       1.798  33.971  53.618  1.00  0.00     0.000 A 
HETATM   20  C   UNL     1       2.084  33.018  54.591  1.00  0.00     0.002 A 
HETATM   21  C   UNL     1       2.820  31.879  54.257  1.00  0.00     0.029 A 
ENDBRANCH  13  16
ENDBRANCH  10  12
BRANCH   9  22
HETATM   22  C   UNL     1       5.131  28.065  54.610  1.00  0.00    -0.028 A 
HETATM   23  C   UNL     1       6.461  28.499  54.756  1.00  0.00     0.012 A 
HETATM   24  C   UNL     1       6.865  29.181  55.907  1.00  0.00     0.037 A 
HETATM   25  C   UNL     1       5.945  29.420  56.921  1.00  0.00     0.065 A 
HETATM   26  C   UNL     1       4.630  28.990  56.806  1.00  0.00     0.037 A 
HETATM   27  C   UNL     1       4.224  28.311  55.657  1.00  0.00     0.012 A 
BRANCH  25  28
HETATM   28  O   UNL     1       6.301  30.072  58.065  1.00  0.00    -0.361 OA
HETATM   29  H   UNL     1       7.267  30.045  58.149  1.00  0.00     0.217 HD
ENDBRANCH  25  28
ENDBRANCH   9  22
BRANCH   7  30
HETATM   30  C   UNL     1       7.274  23.185  53.858  1.00  0.00     0.014 A 
HETATM   31  C   UNL     1       7.799  22.207  52.998  1.00  0.00     0.017 A 
HETATM   32  C   UNL     1       8.365  21.036  53.513  1.00  0.00     0.025 A 
HETATM   33  C   UNL     1       8.408  20.836  54.891  1.00  0.00     0.034 A 
HETATM   34 CL   UNL     1       9.101  19.394  55.523  1.00  0.00    -0.084 Cl
HETATM   35  C   UNL     1       7.892  21.796  55.758  1.00  0.00     0.025 A 
HETATM   36  C   UNL     1       7.326  22.966  55.243  1.00  0.00     0.017 A 
ENDBRANCH   7  30
TORSDOF 5
ENDMDL
MODEL 6
REMARK VINA RESULT:      -9.3      4.444      9.300
REMARK  5 active torsions:
REMARK  status: ('A' for Active; 'I' for Inactive)
REMARK    1  A    between atoms: C_7  and  C_8 
REMARK    2  A    between atoms: C_16  and  C_17 
REMARK    3  A    between atoms: C_20  and  O_21 
REMARK    4  A    between atoms: C_24  and  C_25 
REMARK       I    between atoms: C_25  and  N_26 
REMARK    5  A    between atoms: N_26  and  C_27 
ROOT
HETATM    1  C   UNL     1       8.382  27.264  57.328  1.00  0.00     0.070 C 
HETATM    2  C   UNL     1       7.195  27.694  56.497  1.00  0.00     0.037 A 
HETATM    3  N   UNL     1       6.916  29.058  56.535  1.00  0.00    -0.192 N 
HETATM    4  C   UNL     1       5.836  29.612  55.961  1.00  0.00     0.726 A 
HETATM    5  N   UNL     1       5.002  28.828  55.226  1.00  0.00    -0.083 N 
HETATM    6  N   UNL     1       3.904  29.504  54.832  1.00  0.00    -0.135 NA
HETATM    7  C   UNL     1       4.187  30.744  55.277  1.00  0.00     0.199 A 
HETATM    8  N   UNL     1       5.369  30.832  55.992  1.00  0.00    -0.041 NA
HETATM    9  C   UNL     1       5.208  27.394  54.999  1.00  0.00     0.202 A 
HETATM   10  C   UNL     1       6.405  26.847  55.779  1.00  0.00     0.062 A 
HETATM   11  H   UNL     1       7.514  29.644  57.110  1.00  0.00     0.184 HD
ENDROOT
BRANCH  10  12
HETATM   12  C   UNL     1       6.721  25.375  55.705  1.00  0.00     0.256 C 
HETATM   13  N   UNL     1       7.699  25.015  54.798  1.00  0.00    -0.323 N 
HETATM   14  H   UNL     1       8.240  25.732  54.343  1.00  0.00     0.169 HD
HETATM   15  O   UNL     1       6.146  24.592  56.455  1.00  0.00    -0.267 OA
BRANCH  13  16
HETATM   16  C   UNL     1       8.104  23.702  54.463  1.00  0.00     0.035 A 
HETATM   17  C   UNL     1       8.996  22.939  55.217  1.00  0.00     0.029 A 
HETATM   18  C   UNL     1       9.317  21.633  54.832  1.00  0.00     0.002 A 
HETATM   19  C   UNL     1       8.753  21.080  53.684  1.00  0.00     0.000 A 
HETATM   20  C   UNL     1       7.863  21.832  52.923  1.00  0.00     0.002 A 
HETATM   21  C   UNL     1       7.536  23.133  53.314  1.00  0.00     0.029 A 
ENDBRANCH  13  16
ENDBRANCH  10  12
BRANCH   9  22
HETATM   22  C   UNL     1       5.264  27.126  53.496  1.00  0.00    -0.028 A 
HETATM   23  C   UNL     1       5.699  28.104  52.584  1.00  0.00     0.012 A 
HETATM   24  C   UNL     1       5.712  27.842  51.211  1.00  0.00     0.037 A 
HETATM   25  C   UNL     1       5.277  26.607  50.745  1.00  0.00     0.065 A 
HETATM   26  C   UNL     1       4.831  25.631  51.624  1.00  0.00     0.037 A 
HETATM   27  C   UNL     1       4.819  25.889  52.995  1.00  0.00     0.012 A 
BRANCH  25  28
HETATM   28  O   UNL     1       5.262  26.315  49.413  1.00  0.00    -0.361 OA
HETATM   29  H   UNL     1       4.687  25.547  49.270  1.00  0.00     0.217 HD
ENDBRANCH  25  28
ENDBRANCH   9  22
BRANCH   7  30
HETATM   30  C   UNL     1       3.327  31.902  55.048  1.00  0.00     0.014 A 
HETATM   31  C   UNL     1       2.692  32.093  53.810  1.00  0.00     0.017 A 
HETATM   32  C   UNL     1       1.875  33.208  53.594  1.00  0.00     0.025 A 
HETATM   33  C   UNL     1       1.688  34.138  54.614  1.00  0.00     0.034 A 
HETATM   34 CL   UNL     1       0.686  35.510  54.347  1.00  0.00    -0.084 Cl
HETATM   35  C   UNL     1       2.310  33.963  55.848  1.00  0.00     0.025 A 
HETATM   36  C   UNL     1       3.127  32.849  56.064  1.00  0.00     0.017 A 
ENDBRANCH   7  30
TORSDOF 5
ENDMDL
MODEL 7
REMARK VINA RESULT:      -9.2      5.011      7.591
REMARK  5 active torsions:
REMARK  status: ('A' for Active; 'I' for Inactive)
REMARK    1  A    between atoms: C_7  and  C_8 
REMARK    2  A    between atoms: C_16  and  C_17 
REMARK    3  A    between atoms: C_20  and  O_21 
REMARK    4  A    between atoms: C_24  and  C_25 
REMARK       I    between atoms: C_25  and  N_26 
REMARK    5  A    between atoms: N_26  and  C_27 
ROOT
HETATM    1  C   UNL     1       3.566  31.287  53.451  1.00  0.00     0.070 C 
HETATM    2  C   UNL     1       4.264  30.079  52.870  1.00  0.00     0.037 A 
HETATM    3  N   UNL     1       4.352  28.984  53.726  1.00  0.00    -0.192 N 
HETATM    4  C   UNL     1       5.038  27.866  53.437  1.00  0.00     0.726 A 
HETATM    5  N   UNL     1       5.612  27.743  52.210  1.00  0.00    -0.083 N 
HETATM    6  N   UNL     1       6.368  26.630  52.127  1.00  0.00    -0.135 NA
HETATM    7  C   UNL     1       6.121  26.055  53.320  1.00  0.00     0.199 A 
HETATM    8  N   UNL     1       5.313  26.809  54.154  1.00  0.00    -0.041 NA
HETATM    9  C   UNL     1       5.526  28.756  51.155  1.00  0.00     0.202 A 
HETATM   10  C   UNL     1       4.814  30.027  51.624  1.00  0.00     0.062 A 
HETATM   11  H   UNL     1       3.956  29.082  54.657  1.00  0.00     0.184 HD
ENDROOT
BRANCH  10  12
HETATM   12  C   UNL     1       4.693  31.194  50.679  1.00  0.00     0.256 C 
HETATM   13  N   UNL     1       5.811  32.000  50.573  1.00  0.00    -0.323 N 
HETATM   14  H   UNL     1       6.673  31.709  51.005  1.00  0.00     0.169 HD
HETATM   15  O   UNL     1       3.660  31.352  50.036  1.00  0.00    -0.267 OA
BRANCH  13  16
HETATM   16  C   UNL     1       5.922  33.207  49.844  1.00  0.00     0.035 A 
HETATM   17  C   UNL     1       6.292  33.280  48.500  1.00  0.00     0.029 A 
HETATM   18  C   UNL     1       6.344  34.515  47.845  1.00  0.00     0.002 A 
HETATM   19  C   UNL     1       6.032  35.688  48.528  1.00  0.00     0.000 A 
HETATM   20  C   UNL     1       5.664  35.627  49.868  1.00  0.00     0.002 A 
HETATM   21  C   UNL     1       5.603  34.393  50.521  1.00  0.00     0.029 A 
ENDBRANCH  13  16
ENDBRANCH  10  12
BRANCH   9  22
HETATM   22  C   UNL     1       4.922  28.127  49.901  1.00  0.00    -0.028 A 
HETATM   23  C   UNL     1       5.650  28.013  48.704  1.00  0.00     0.012 A 
HETATM   24  C   UNL     1       5.063  27.459  47.563  1.00  0.00     0.037 A 
HETATM   25  C   UNL     1       3.742  27.030  47.611  1.00  0.00     0.065 A 
HETATM   26  C   UNL     1       2.999  27.143  48.778  1.00  0.00     0.037 A 
HETATM   27  C   UNL     1       3.584  27.693  49.919  1.00  0.00     0.012 A 
BRANCH  25  28
HETATM   28  O   UNL     1       3.128  26.494  46.518  1.00  0.00    -0.361 OA
HETATM   29  H   UNL     1       3.265  27.089  45.763  1.00  0.00     0.217 HD
ENDBRANCH  25  28
ENDBRANCH   9  22
BRANCH   7  30
HETATM   30  C   UNL     1       6.661  24.759  53.722  1.00  0.00     0.014 A 
HETATM   31  C   UNL     1       6.683  24.376  55.073  1.00  0.00     0.017 A 
HETATM   32  C   UNL     1       7.209  23.137  55.454  1.00  0.00     0.025 A 
HETATM   33  C   UNL     1       7.716  22.273  54.486  1.00  0.00     0.034 A 
HETATM   34 CL   UNL     1       8.365  20.751  54.955  1.00  0.00    -0.084 Cl
HETATM   35  C   UNL     1       7.701  22.637  53.141  1.00  0.00     0.025 A 
HETATM   36  C   UNL     1       7.176  23.876  52.761  1.00  0.00     0.017 A 
ENDBRANCH   7  30
TORSDOF 5
ENDMDL
MODEL 8
REMARK VINA RESULT:      -9.0      3.683      5.256
REMARK  5 active torsions:
REMARK  status: ('A' for Active; 'I' for Inactive)
REMARK    1  A    between atoms: C_7  and  C_8 
REMARK    2  A    between atoms: C_16  and  C_17 
REMARK    3  A    between atoms: C_20  and  O_21 
REMARK    4  A    between atoms: C_24  and  C_25 
REMARK       I    between atoms: C_25  and  N_26 
REMARK    5  A    between atoms: N_26  and  C_27 
ROOT
HETATM    1  C   UNL     1       3.207  30.125  57.168  1.00  0.00     0.070 C 
HETATM    2  C   UNL     1       3.948  29.406  56.064  1.00  0.00     0.037 A 
HETATM    3  N   UNL     1       4.182  28.054  56.299  1.00  0.00    -0.192 N 
HETATM    4  C   UNL     1       4.925  27.277  55.494  1.00  0.00     0.726 A 
HETATM    5  N   UNL     1       5.412  27.800  54.337  1.00  0.00    -0.083 N 
HETATM    6  N   UNL     1       6.241  26.938  53.714  1.00  0.00    -0.135 NA
HETATM    7  C   UNL     1       6.129  25.851  54.501  1.00  0.00     0.199 A 
HETATM    8  N   UNL     1       5.333  26.042  55.618  1.00  0.00    -0.041 NA
HETATM    9  C   UNL     1       5.171  29.174  53.889  1.00  0.00     0.202 A 
HETATM   10  C   UNL     1       4.403  29.998  54.924  1.00  0.00     0.062 A 
HETATM   11  H   UNL     1       3.851  27.665  57.177  1.00  0.00     0.184 HD
ENDROOT
BRANCH  10  12
HETATM   12  C   UNL     1       4.124  31.453  54.647  1.00  0.00     0.256 C 
HETATM   13  N   UNL     1       5.166  32.325  54.904  1.00  0.00    -0.323 N 
HETATM   14  H   UNL     1       6.077  31.956  55.123  1.00  0.00     0.169 HD
HETATM   15  O   UNL     1       3.038  31.787  54.183  1.00  0.00    -0.267 OA
BRANCH  13  16
HETATM   16  C   UNL     1       5.129  33.737  54.829  1.00  0.00     0.035 A 
HETATM   17  C   UNL     1       5.354  34.466  53.660  1.00  0.00     0.029 A 
HETATM   18  C   UNL     1       5.265  35.862  53.667  1.00  0.00     0.002 A 
HETATM   19  C   UNL     1       4.957  36.542  54.843  1.00  0.00     0.000 A 
HETATM   20  C   UNL     1       4.733  35.825  56.014  1.00  0.00     0.002 A 
HETATM   21  C   UNL     1       4.813  34.430  56.006  1.00  0.00     0.029 A 
ENDBRANCH  13  16
ENDBRANCH  10  12
BRANCH   9  22
HETATM   22  C   UNL     1       4.522  29.145  52.506  1.00  0.00    -0.028 A 
HETATM   23  C   UNL     1       5.241  29.473  51.342  1.00  0.00     0.012 A 
HETATM   24  C   UNL     1       4.615  29.467  50.093  1.00  0.00     0.037 A 
HETATM   25  C   UNL     1       3.265  29.147  50.004  1.00  0.00     0.065 A 
HETATM   26  C   UNL     1       2.532  28.832  51.139  1.00  0.00     0.037 A 
HETATM   27  C   UNL     1       3.155  28.835  52.388  1.00  0.00     0.012 A 
BRANCH  25  28
HETATM   28  O   UNL     1       2.613  29.141  48.806  1.00  0.00    -0.361 OA
HETATM   29  H   UNL     1       3.122  28.603  48.179  1.00  0.00     0.217 HD
ENDBRANCH  25  28
ENDBRANCH   9  22
BRANCH   7  30
HETATM   30  C   UNL     1       6.793  24.580  54.226  1.00  0.00     0.014 A 
HETATM   31  C   UNL     1       7.211  24.252  52.927  1.00  0.00     0.017 A 
HETATM   32  C   UNL     1       7.840  23.029  52.667  1.00  0.00     0.025 A 
HETATM   33  C   UNL     1       8.056  22.128  53.707  1.00  0.00     0.034 A 
HETATM   34 CL   UNL     1       8.827  20.624  53.388  1.00  0.00    -0.084 Cl
HETATM   35  C   UNL     1       7.649  22.438  55.003  1.00  0.00     0.025 A 
HETATM   36  C   UNL     1       7.019  23.659  55.261  1.00  0.00     0.017 A 
ENDBRANCH   7  30
TORSDOF 5
ENDMDL
MODEL 9
REMARK VINA RESULT:      -9.0      4.619      9.032
REMARK  5 active torsions:
REMARK  status: ('A' for Active; 'I' for Inactive)
REMARK    1  A    between atoms: C_7  and  C_8 
REMARK    2  A    between atoms: C_16  and  C_17 
REMARK    3  A    between atoms: C_20  and  O_21 
REMARK    4  A    between atoms: C_24  and  C_25 
REMARK       I    between atoms: C_25  and  N_26 
REMARK    5  A    between atoms: N_26  and  C_27 
ROOT
HETATM    1  C   UNL     1       4.484  24.094  51.452  1.00  0.00     0.070 C 
HETATM    2  C   UNL     1       4.946  25.505  51.734  1.00  0.00     0.037 A 
HETATM    3  N   UNL     1       4.468  26.467  50.848  1.00  0.00    -0.192 N 
HETATM    4  C   UNL     1       4.860  27.751  50.862  1.00  0.00     0.726 A 
HETATM    5  N   UNL     1       5.704  28.174  51.841  1.00  0.00    -0.083 N 
HETATM    6  N   UNL     1       6.103  29.446  51.638  1.00  0.00    -0.135 NA
HETATM    7  C   UNL     1       5.369  29.780  50.559  1.00  0.00     0.199 A 
HETATM    8  N   UNL     1       4.605  28.744  50.051  1.00  0.00    -0.041 NA
HETATM    9  C   UNL     1       6.218  27.315  52.912  1.00  0.00     0.202 A 
HETATM   10  C   UNL     1       5.793  25.855  52.742  1.00  0.00     0.062 A 
HETATM   11  H   UNL     1       3.865  26.153  50.093  1.00  0.00     0.184 HD
ENDROOT
BRANCH  10  12
HETATM   12  C   UNL     1       6.288  24.826  53.726  1.00  0.00     0.256 C 
HETATM   13  N   UNL     1       7.266  23.969  53.258  1.00  0.00    -0.323 N 
HETATM   14  H   UNL     1       7.694  24.147  52.364  1.00  0.00     0.169 HD
HETATM   15  O   UNL     1       5.847  24.817  54.871  1.00  0.00    -0.267 OA
BRANCH  13  16
HETATM   16  C   UNL     1       7.819  22.859  53.938  1.00  0.00     0.035 A 
HETATM   17  C   UNL     1       8.314  22.905  55.243  1.00  0.00     0.029 A 
HETATM   18  C   UNL     1       8.813  21.750  55.854  1.00  0.00     0.002 A 
HETATM   19  C   UNL     1       8.827  20.539  55.165  1.00  0.00     0.000 A 
HETATM   20  C   UNL     1       8.337  20.482  53.864  1.00  0.00     0.002 A 
HETATM   21  C   UNL     1       7.831  21.634  53.256  1.00  0.00     0.029 A 
ENDBRANCH  13  16
ENDBRANCH  10  12
BRANCH   9  22
HETATM   22  C   UNL     1       5.848  27.922  54.264  1.00  0.00    -0.028 A 
HETATM   23  C   UNL     1       6.826  28.267  55.215  1.00  0.00     0.012 A 
HETATM   24  C   UNL     1       6.458  28.793  56.456  1.00  0.00     0.037 A 
HETATM   25  C   UNL     1       5.111  28.963  56.757  1.00  0.00     0.065 A 
HETATM   26  C   UNL     1       4.128  28.618  55.840  1.00  0.00     0.037 A 
HETATM   27  C   UNL     1       4.493  28.095  54.600  1.00  0.00     0.012 A 
BRANCH  25  28
HETATM   28  O   UNL     1       4.709  29.462  57.961  1.00  0.00    -0.361 OA
HETATM   29  H   UNL     1       5.303  29.125  58.650  1.00  0.00     0.217 HD
ENDBRANCH  25  28
ENDBRANCH   9  22
BRANCH   7  30
HETATM   30  C   UNL     1       5.378  31.110  49.954  1.00  0.00     0.014 A 
HETATM   31  C   UNL     1       5.677  32.247  50.721  1.00  0.00     0.017 A 
HETATM   32  C   UNL     1       5.677  33.520  50.138  1.00  0.00     0.025 A 
HETATM   33  C   UNL     1       5.377  33.661  48.785  1.00  0.00     0.034 A 
HETATM   34 CL   UNL     1       5.374  35.225  48.070  1.00  0.00    -0.084 Cl
HETATM   35  C   UNL     1       5.079  32.543  48.010  1.00  0.00     0.025 A 
HETATM   36  C   UNL     1       5.078  31.272  48.593  1.00  0.00     0.017 A 
ENDBRANCH   7  30
TORSDOF 5
ENDMDL
MODEL 10
REMARK VINA RESULT:      -8.9      5.301      9.511
REMARK  5 active torsions:
REMARK  status: ('A' for Active; 'I' for Inactive)
REMARK    1  A    between atoms: C_7  and  C_8 
REMARK    2  A    between atoms: C_16  and  C_17 
REMARK    3  A    between atoms: C_20  and  O_21 
REMARK    4  A    between atoms: C_24  and  C_25 
REMARK       I    between atoms: C_25  and  N_26 
REMARK    5  A    between atoms: N_26  and  C_27 
ROOT
HETATM    1  C   UNL     1       3.981  25.533  49.159  1.00  0.00     0.070 C 
HETATM    2  C   UNL     1       4.541  26.768  49.827  1.00  0.00     0.037 A 
HETATM    3  N   UNL     1       4.346  27.954  49.124  1.00  0.00    -0.192 N 
HETATM    4  C   UNL     1       4.872  29.133  49.494  1.00  0.00     0.726 A 
HETATM    5  N   UNL     1       5.564  29.210  50.663  1.00  0.00    -0.083 N 
HETATM    6  N   UNL     1       6.135  30.421  50.822  1.00  0.00    -0.135 NA
HETATM    7  C   UNL     1       5.654  31.080  49.750  1.00  0.00     0.199 A 
HETATM    8  N   UNL     1       4.884  30.299  48.905  1.00  0.00    -0.041 NA
HETATM    9  C   UNL     1       5.771  28.080  51.573  1.00  0.00     0.202 A 
HETATM   10  C   UNL     1       5.222  26.768  51.007  1.00  0.00     0.062 A 
HETATM   11  H   UNL     1       3.861  27.898  48.233  1.00  0.00     0.184 HD
ENDROOT
BRANCH  10  12
HETATM   12  C   UNL     1       5.407  25.494  51.791  1.00  0.00     0.256 C 
HETATM   13  N   UNL     1       6.636  25.339  52.405  1.00  0.00    -0.323 N 
HETATM   14  H   UNL     1       7.281  26.112  52.422  1.00  0.00     0.169 HD
HETATM   15  O   UNL     1       4.480  24.696  51.882  1.00  0.00    -0.267 OA
BRANCH  13  16
HETATM   16  C   UNL     1       7.098  24.201  53.105  1.00  0.00     0.035 A 
HETATM   17  C   UNL     1       7.771  23.133  52.509  1.00  0.00     0.029 A 
HETATM   18  C   UNL     1       8.225  22.059  53.282  1.00  0.00     0.002 A 
HETATM   19  C   UNL     1       8.004  22.040  54.657  1.00  0.00     0.000 A 
HETATM   20  C   UNL     1       7.332  23.097  55.262  1.00  0.00     0.002 A 
HETATM   21  C   UNL     1       6.887  24.174  54.491  1.00  0.00     0.029 A 
ENDBRANCH  13  16
ENDBRANCH  10  12
BRANCH   9  22
HETATM   22  C   UNL     1       5.230  28.441  52.955  1.00  0.00    -0.028 A 
HETATM   23  C   UNL     1       6.033  28.371  54.107  1.00  0.00     0.012 A 
HETATM   24  C   UNL     1       5.504  28.679  55.363  1.00  0.00     0.037 A 
HETATM   25  C   UNL     1       4.167  29.044  55.474  1.00  0.00     0.065 A 
HETATM   26  C   UNL     1       3.352  29.108  54.353  1.00  0.00     0.037 A 
HETATM   27  C   UNL     1       3.878  28.804  53.097  1.00  0.00     0.012 A 
BRANCH  25  28
HETATM   28  O   UNL     1       3.609  29.341  56.682  1.00  0.00    -0.361 OA
HETATM   29  H   UNL     1       4.109  28.883  57.376  1.00  0.00     0.217 HD
ENDBRANCH  25  28
ENDBRANCH   9  22
BRANCH   7  30
HETATM   30  C   UNL     1       5.925  32.489  49.477  1.00  0.00     0.014 A 
HETATM   31  C   UNL     1       6.332  32.910  48.201  1.00  0.00     0.017 A 
HETATM   32  C   UNL     1       6.598  34.259  47.946  1.00  0.00     0.025 A 
HETATM   33  C   UNL     1       6.458  35.196  48.968  1.00  0.00     0.034 A 
HETATM   34 CL   UNL     1       6.788  36.855  48.656  1.00  0.00    -0.084 Cl
HETATM   35  C   UNL     1       6.055  34.796  50.239  1.00  0.00     0.025 A 
HETATM   36  C   UNL     1       5.790  33.447  50.493  1.00  0.00     0.017 A 
ENDBRANCH   7  30
TORSDOF 5
ENDMDL
