MODEL 1
REMARK VINA RESULT:      -7.1      0.000      0.000
REMARK  3 active torsions:
REMARK  status: ('A' for Active; 'I' for Inactive)
REMARK    1  A    between atoms: C_2  and  C_3 
REMARK    2  A    between atoms: C_4  and  N_5 
REMARK    3  A    between atoms: C_18  and  C_19 
ROOT
HETATM    1  N   UNL     1       6.584  26.764  54.924  1.00  0.00    -0.320 N 
HETATM    2  C   UNL     1       5.285  27.168  54.470  1.00  0.00     0.141 C 
HETATM    3  N   UNL     1       4.522  26.395  53.752  1.00  0.00    -0.380 N 
HETATM    4  H   UNL     1       4.857  25.475  53.499  1.00  0.00     0.158 HD
HETATM    5  H   UNL     1       3.614  26.722  53.455  1.00  0.00     0.158 HD
HETATM    6  S   UNL     1       4.851  28.763  54.977  1.00  0.00    -0.086 SA
HETATM    7  C   UNL     1       6.567  29.072  55.504  1.00  0.00     0.093 C 
HETATM    8  C   UNL     1       7.058  27.684  55.970  1.00  0.00     0.121 C 
HETATM    9  C   UNL     1       6.907  30.006  56.640  1.00  0.00     0.158 C 
HETATM   10  S   UNL     1       8.568  29.448  57.075  1.00  0.00     0.147 S 
HETATM   11  O   UNL     1       9.529  30.318  56.433  1.00  0.00    -0.228 OA
HETATM   12  O   UNL     1       8.593  29.165  58.493  1.00  0.00    -0.228 OA
HETATM   13  C   UNL     1       8.539  27.882  56.184  1.00  0.00     0.167 C 
ENDROOT
BRANCH   1  14
HETATM   14  C   UNL     1       7.038  25.433  54.982  1.00  0.00     0.049 A 
HETATM   15  C   UNL     1       7.643  24.868  53.830  1.00  0.00    -0.031 A 
HETATM   16  C   UNL     1       8.012  23.510  53.833  1.00  0.00     0.009 A 
HETATM   17  C   UNL     1       7.806  22.716  54.953  1.00  0.00     0.001 A 
HETATM   18  C   UNL     1       7.223  23.266  56.087  1.00  0.00     0.009 A 
HETATM   19  C   UNL     1       6.829  24.617  56.123  1.00  0.00    -0.031 A 
BRANCH  15  20
HETATM   20  C   UNL     1       7.885  25.658  52.556  1.00  0.00     0.036 C 
HETATM   21  C   UNL     1       6.869  25.348  51.463  1.00  0.00     0.010 C 
ENDBRANCH  15  20
BRANCH  19  22
HETATM   22  C   UNL     1       6.202  25.106  57.413  1.00  0.00     0.036 C 
HETATM   23  C   UNL     1       4.680  25.136  57.339  1.00  0.00     0.010 C 
ENDBRANCH  19  22
ENDBRANCH   1  14
TORSDOF 3
ENDMDL
MODEL 2
REMARK VINA RESULT:      -7.0      9.778     12.047
REMARK  3 active torsions:
REMARK  status: ('A' for Active; 'I' for Inactive)
REMARK    1  A    between atoms: C_2  and  C_3 
REMARK    2  A    between atoms: C_4  and  N_5 
REMARK    3  A    between atoms: C_18  and  C_19 
ROOT
HETATM    1  N   UNL     1       4.475  34.225  62.392  1.00  0.00    -0.320 N 
HETATM    2  C   UNL     1       3.388  33.379  61.993  1.00  0.00     0.141 C 
HETATM    3  N   UNL     1       3.290  32.138  62.375  1.00  0.00    -0.380 N 
HETATM    4  H   UNL     1       4.006  31.752  62.974  1.00  0.00     0.158 HD
HETATM    5  H   UNL     1       2.505  31.580  62.068  1.00  0.00     0.158 HD
HETATM    6  S   UNL     1       2.244  34.175  60.970  1.00  0.00    -0.086 SA
HETATM    7  C   UNL     1       3.397  35.569  60.750  1.00  0.00     0.093 C 
HETATM    8  C   UNL     1       4.151  35.629  62.096  1.00  0.00     0.121 C 
HETATM    9  C   UNL     1       2.921  36.979  60.507  1.00  0.00     0.158 C 
HETATM   10  S   UNL     1       4.380  37.934  60.978  1.00  0.00     0.147 S 
HETATM   11  O   UNL     1       5.118  38.268  59.780  1.00  0.00    -0.228 OA
HETATM   12  O   UNL     1       3.976  38.926  61.950  1.00  0.00    -0.228 OA
HETATM   13  C   UNL     1       5.261  36.620  61.840  1.00  0.00     0.167 C 
ENDROOT
BRANCH   1  14
HETATM   14  C   UNL     1       5.328  33.976  63.484  1.00  0.00     0.049 A 
HETATM   15  C   UNL     1       4.876  34.299  64.790  1.00  0.00    -0.031 A 
HETATM   16  C   UNL     1       5.748  34.153  65.883  1.00  0.00     0.009 A 
HETATM   17  C   UNL     1       7.043  33.683  65.708  1.00  0.00     0.001 A 
HETATM   18  C   UNL     1       7.488  33.356  64.433  1.00  0.00     0.009 A 
HETATM   19  C   UNL     1       6.651  33.497  63.310  1.00  0.00    -0.031 A 
BRANCH  15  20
HETATM   20  C   UNL     1       3.485  34.840  65.068  1.00  0.00     0.036 C 
HETATM   21  C   UNL     1       3.356  35.465  66.452  1.00  0.00     0.010 C 
ENDBRANCH  15  20
BRANCH  19  22
HETATM   22  C   UNL     1       7.246  33.111  61.970  1.00  0.00     0.036 C 
HETATM   23  C   UNL     1       8.381  32.105  62.113  1.00  0.00     0.010 C 
ENDBRANCH  19  22
ENDBRANCH   1  14
TORSDOF 3
ENDMDL
MODEL 3
REMARK VINA RESULT:      -7.0      8.185     10.902
REMARK  3 active torsions:
REMARK  status: ('A' for Active; 'I' for Inactive)
REMARK    1  A    between atoms: C_2  and  C_3 
REMARK    2  A    between atoms: C_4  and  N_5 
REMARK    3  A    between atoms: C_18  and  C_19 
ROOT
HETATM    1  N   UNL     1       4.857  33.697  62.114  1.00  0.00    -0.320 N 
HETATM    2  C   UNL     1       3.581  33.084  62.340  1.00  0.00     0.141 C 
HETATM    3  N   UNL     1       3.385  31.803  62.209  1.00  0.00    -0.380 N 
HETATM    4  H   UNL     1       4.160  31.215  61.934  1.00  0.00     0.158 HD
HETATM    5  H   UNL     1       2.468  31.416  62.379  1.00  0.00     0.158 HD
HETATM    6  S   UNL     1       2.354  34.213  62.801  1.00  0.00    -0.086 SA
HETATM    7  C   UNL     1       3.444  35.598  62.339  1.00  0.00     0.093 C 
HETATM    8  C   UNL     1       4.859  35.065  62.654  1.00  0.00     0.121 C 
HETATM    9  C   UNL     1       3.373  36.942  63.023  1.00  0.00     0.158 C 
HETATM   10  S   UNL     1       4.991  37.634  62.616  1.00  0.00     0.147 S 
HETATM   11  O   UNL     1       4.843  38.511  61.475  1.00  0.00    -0.228 OA
HETATM   12  O   UNL     1       5.626  38.050  63.847  1.00  0.00    -0.228 OA
HETATM   13  C   UNL     1       5.774  36.109  62.060  1.00  0.00     0.167 C 
ENDROOT
BRANCH   1  14
HETATM   14  C   UNL     1       6.086  33.011  62.094  1.00  0.00     0.049 A 
HETATM   15  C   UNL     1       6.776  32.812  63.318  1.00  0.00    -0.031 A 
HETATM   16  C   UNL     1       8.051  32.218  63.309  1.00  0.00     0.009 A 
HETATM   17  C   UNL     1       8.641  31.810  62.120  1.00  0.00     0.001 A 
HETATM   18  C   UNL     1       7.967  31.993  60.920  1.00  0.00     0.009 A 
HETATM   19  C   UNL     1       6.693  32.593  60.883  1.00  0.00    -0.031 A 
BRANCH  15  20
HETATM   20  C   UNL     1       6.213  33.248  64.659  1.00  0.00     0.036 C 
HETATM   21  C   UNL     1       7.237  33.974  65.525  1.00  0.00     0.010 C 
ENDBRANCH  15  20
BRANCH  19  22
HETATM   22  C   UNL     1       6.055  32.742  59.516  1.00  0.00     0.036 C 
HETATM   23  C   UNL     1       6.468  31.626  58.563  1.00  0.00     0.010 C 
ENDBRANCH  19  22
ENDBRANCH   1  14
TORSDOF 3
ENDMDL
MODEL 4
REMARK VINA RESULT:      -7.0      9.892     12.045
REMARK  3 active torsions:
REMARK  status: ('A' for Active; 'I' for Inactive)
REMARK    1  A    between atoms: C_2  and  C_3 
REMARK    2  A    between atoms: C_4  and  N_5 
REMARK    3  A    between atoms: C_18  and  C_19 
ROOT
HETATM    1  N   UNL     1       4.470  34.688  62.503  1.00  0.00    -0.320 N 
HETATM    2  C   UNL     1       3.313  33.910  62.168  1.00  0.00     0.141 C 
HETATM    3  N   UNL     1       3.126  32.703  62.619  1.00  0.00    -0.380 N 
HETATM    4  H   UNL     1       3.823  32.293  63.226  1.00  0.00     0.158 HD
HETATM    5  H   UNL     1       2.294  32.193  62.356  1.00  0.00     0.158 HD
HETATM    6  S   UNL     1       2.213  34.739  61.123  1.00  0.00    -0.086 SA
HETATM    7  C   UNL     1       3.467  36.023  60.808  1.00  0.00     0.093 C 
HETATM    8  C   UNL     1       4.251  36.096  62.137  1.00  0.00     0.121 C 
HETATM    9  C   UNL     1       3.097  37.453  60.497  1.00  0.00     0.158 C 
HETATM   10  S   UNL     1       4.635  38.313  60.891  1.00  0.00     0.147 S 
HETATM   11  O   UNL     1       5.372  38.523  59.664  1.00  0.00    -0.228 OA
HETATM   12  O   UNL     1       4.329  39.383  61.815  1.00  0.00    -0.228 OA
HETATM   13  C   UNL     1       5.429  36.981  61.808  1.00  0.00     0.167 C 
ENDROOT
BRANCH   1  14
HETATM   14  C   UNL     1       5.324  34.431  63.593  1.00  0.00     0.049 A 
HETATM   15  C   UNL     1       6.536  33.730  63.358  1.00  0.00    -0.031 A 
HETATM   16  C   UNL     1       7.354  33.375  64.445  1.00  0.00     0.009 A 
HETATM   17  C   UNL     1       7.003  33.712  65.745  1.00  0.00     0.001 A 
HETATM   18  C   UNL     1       5.823  34.406  65.980  1.00  0.00     0.009 A 
HETATM   19  C   UNL     1       4.969  34.772  64.922  1.00  0.00    -0.031 A 
BRANCH  15  20
HETATM   20  C   UNL     1       6.984  33.303  61.972  1.00  0.00     0.036 C 
HETATM   21  C   UNL     1       8.133  32.303  62.001  1.00  0.00     0.010 C 
ENDBRANCH  15  20
BRANCH  19  22
HETATM   22  C   UNL     1       3.709  35.526  65.299  1.00  0.00     0.036 C 
HETATM   23  C   UNL     1       3.285  35.255  66.738  1.00  0.00     0.010 C 
ENDBRANCH  19  22
ENDBRANCH   1  14
TORSDOF 3
ENDMDL
MODEL 5
REMARK VINA RESULT:      -6.8      8.434     10.512
REMARK  3 active torsions:
REMARK  status: ('A' for Active; 'I' for Inactive)
REMARK    1  A    between atoms: C_2  and  C_3 
REMARK    2  A    between atoms: C_4  and  N_5 
REMARK    3  A    between atoms: C_18  and  C_19 
ROOT
HETATM    1  N   UNL     1       4.864  33.728  62.055  1.00  0.00    -0.320 N 
HETATM    2  C   UNL     1       3.602  33.097  62.315  1.00  0.00     0.141 C 
HETATM    3  N   UNL     1       3.415  31.817  62.166  1.00  0.00    -0.380 N 
HETATM    4  H   UNL     1       4.186  31.243  61.852  1.00  0.00     0.158 HD
HETATM    5  H   UNL     1       2.509  31.417  62.361  1.00  0.00     0.158 HD
HETATM    6  S   UNL     1       2.382  34.203  62.841  1.00  0.00    -0.086 SA
HETATM    7  C   UNL     1       3.440  35.609  62.367  1.00  0.00     0.093 C 
HETATM    8  C   UNL     1       4.871  35.086  62.621  1.00  0.00     0.121 C 
HETATM    9  C   UNL     1       3.381  36.939  63.078  1.00  0.00     0.158 C 
HETATM   10  S   UNL     1       4.975  37.656  62.626  1.00  0.00     0.147 S 
HETATM   11  O   UNL     1       4.777  38.552  61.509  1.00  0.00    -0.228 OA
HETATM   12  O   UNL     1       5.651  38.056  63.841  1.00  0.00    -0.228 OA
HETATM   13  C   UNL     1       5.753  36.150  62.014  1.00  0.00     0.167 C 
ENDROOT
BRANCH   1  14
HETATM   14  C   UNL     1       6.098  33.055  61.977  1.00  0.00     0.049 A 
HETATM   15  C   UNL     1       6.567  32.636  60.705  1.00  0.00    -0.031 A 
HETATM   16  C   UNL     1       7.746  31.876  60.615  1.00  0.00     0.009 A 
HETATM   17  C   UNL     1       8.469  31.540  61.752  1.00  0.00     0.001 A 
HETATM   18  C   UNL     1       8.020  31.956  62.998  1.00  0.00     0.009 A 
HETATM   19  C   UNL     1       6.839  32.709  63.135  1.00  0.00    -0.031 A 
BRANCH  15  20
HETATM   20  C   UNL     1       5.827  32.941  59.414  1.00  0.00     0.036 C 
HETATM   21  C   UNL     1       5.164  31.711  58.805  1.00  0.00     0.010 C 
ENDBRANCH  15  20
BRANCH  19  22
HETATM   22  C   UNL     1       6.447  33.105  64.545  1.00  0.00     0.036 C 
HETATM   23  C   UNL     1       7.475  34.026  65.191  1.00  0.00     0.010 C 
ENDBRANCH  19  22
ENDBRANCH   1  14
TORSDOF 3
ENDMDL
MODEL 6
REMARK VINA RESULT:      -6.4      9.955     12.644
REMARK  3 active torsions:
REMARK  status: ('A' for Active; 'I' for Inactive)
REMARK    1  A    between atoms: C_2  and  C_3 
REMARK    2  A    between atoms: C_4  and  N_5 
REMARK    3  A    between atoms: C_18  and  C_19 
ROOT
HETATM    1  N   UNL     1       4.800  35.930  62.965  1.00  0.00    -0.320 N 
HETATM    2  C   UNL     1       5.293  37.213  62.557  1.00  0.00     0.141 C 
HETATM    3  N   UNL     1       6.233  37.840  63.205  1.00  0.00    -0.380 N 
HETATM    4  H   UNL     1       6.630  37.410  64.029  1.00  0.00     0.158 HD
HETATM    5  H   UNL     1       6.549  38.743  62.880  1.00  0.00     0.158 HD
HETATM    6  S   UNL     1       4.519  37.821  61.136  1.00  0.00    -0.086 SA
HETATM    7  C   UNL     1       3.244  36.526  61.265  1.00  0.00     0.093 C 
HETATM    8  C   UNL     1       4.005  35.331  61.881  1.00  0.00     0.121 C 
HETATM    9  C   UNL     1       2.545  35.958  60.054  1.00  0.00     0.158 C 
HETATM   10  S   UNL     1       1.919  34.395  60.704  1.00  0.00     0.147 S 
HETATM   11  O   UNL     1       0.534  34.575  61.081  1.00  0.00    -0.228 OA
HETATM   12  O   UNL     1       2.360  33.332  59.828  1.00  0.00    -0.228 OA
HETATM   13  C   UNL     1       2.912  34.341  62.206  1.00  0.00     0.167 C 
ENDROOT
BRANCH   1  14
HETATM   14  C   UNL     1       5.471  35.049  63.834  1.00  0.00     0.049 A 
HETATM   15  C   UNL     1       5.191  35.117  65.224  1.00  0.00    -0.031 A 
HETATM   16  C   UNL     1       5.922  34.317  66.120  1.00  0.00     0.009 A 
HETATM   17  C   UNL     1       6.906  33.450  65.665  1.00  0.00     0.001 A 
HETATM   18  C   UNL     1       7.178  33.371  64.306  1.00  0.00     0.009 A 
HETATM   19  C   UNL     1       6.477  34.162  63.375  1.00  0.00    -0.031 A 
BRANCH  15  20
HETATM   20  C   UNL     1       4.148  36.054  65.807  1.00  0.00     0.036 C 
HETATM   21  C   UNL     1       3.111  35.331  66.660  1.00  0.00     0.010 C 
ENDBRANCH  15  20
BRANCH  19  22
HETATM   22  C   UNL     1       6.861  33.992  61.918  1.00  0.00     0.036 C 
HETATM   23  C   UNL     1       7.631  32.700  61.672  1.00  0.00     0.010 C 
ENDBRANCH  19  22
ENDBRANCH   1  14
TORSDOF 3
ENDMDL
MODEL 7
REMARK VINA RESULT:      -6.1      6.986      8.817
REMARK  3 active torsions:
REMARK  status: ('A' for Active; 'I' for Inactive)
REMARK    1  A    between atoms: C_2  and  C_3 
REMARK    2  A    between atoms: C_4  and  N_5 
REMARK    3  A    between atoms: C_18  and  C_19 
ROOT
HETATM    1  N   UNL     1       2.509  29.383  49.026  1.00  0.00    -0.320 N 
HETATM    2  C   UNL     1       1.971  29.605  50.337  1.00  0.00     0.141 C 
HETATM    3  N   UNL     1       1.368  28.671  51.015  1.00  0.00    -0.380 N 
HETATM    4  H   UNL     1       1.269  27.753  50.603  1.00  0.00     0.158 HD
HETATM    5  H   UNL     1       1.005  28.874  51.936  1.00  0.00     0.158 HD
HETATM    6  S   UNL     1       2.213  31.220  50.908  1.00  0.00    -0.086 SA
HETATM    7  C   UNL     1       2.719  31.744  49.238  1.00  0.00     0.093 C 
HETATM    8  C   UNL     1       3.407  30.489  48.659  1.00  0.00     0.121 C 
HETATM    9  C   UNL     1       3.701  32.867  49.009  1.00  0.00     0.158 C 
HETATM   10  S   UNL     1       4.252  32.519  47.324  1.00  0.00     0.147 S 
HETATM   11  O   UNL     1       3.501  33.353  46.413  1.00  0.00    -0.228 OA
HETATM   12  O   UNL     1       5.697  32.462  47.325  1.00  0.00    -0.228 OA
HETATM   13  C   UNL     1       3.618  30.836  47.205  1.00  0.00     0.167 C 
ENDROOT
BRANCH   1  14
HETATM   14  C   UNL     1       2.785  28.117  48.475  1.00  0.00     0.049 A 
HETATM   15  C   UNL     1       1.925  27.612  47.466  1.00  0.00    -0.031 A 
HETATM   16  C   UNL     1       2.123  26.310  46.972  1.00  0.00     0.009 A 
HETATM   17  C   UNL     1       3.157  25.515  47.447  1.00  0.00     0.001 A 
HETATM   18  C   UNL     1       4.008  26.008  48.428  1.00  0.00     0.009 A 
HETATM   19  C   UNL     1       3.839  27.302  48.957  1.00  0.00    -0.031 A 
BRANCH  15  20
HETATM   20  C   UNL     1       0.757  28.405  46.907  1.00  0.00     0.036 C 
HETATM   21  C   UNL     1      -0.147  27.575  46.003  1.00  0.00     0.010 C 
ENDBRANCH  15  20
BRANCH  19  22
HETATM   22  C   UNL     1       4.827  27.731  50.023  1.00  0.00     0.036 C 
HETATM   23  C   UNL     1       5.240  26.574  50.925  1.00  0.00     0.010 C 
ENDBRANCH  19  22
ENDBRANCH   1  14
TORSDOF 3
ENDMDL
MODEL 8
REMARK VINA RESULT:      -6.0      8.250     11.802
REMARK  3 active torsions:
REMARK  status: ('A' for Active; 'I' for Inactive)
REMARK    1  A    between atoms: C_2  and  C_3 
REMARK    2  A    between atoms: C_4  and  N_5 
REMARK    3  A    between atoms: C_18  and  C_19 
ROOT
HETATM    1  N   UNL     1       4.545  34.004  62.187  1.00  0.00    -0.320 N 
HETATM    2  C   UNL     1       3.308  33.629  61.568  1.00  0.00     0.141 C 
HETATM    3  N   UNL     1       2.164  34.141  61.923  1.00  0.00    -0.380 N 
HETATM    4  H   UNL     1       2.143  34.827  62.665  1.00  0.00     0.158 HD
HETATM    5  H   UNL     1       1.317  33.846  61.457  1.00  0.00     0.158 HD
HETATM    6  S   UNL     1       3.499  32.447  60.320  1.00  0.00    -0.086 SA
HETATM    7  C   UNL     1       5.216  32.150  60.853  1.00  0.00     0.093 C 
HETATM    8  C   UNL     1       5.676  33.530  61.374  1.00  0.00     0.121 C 
HETATM    9  C   UNL     1       6.296  31.718  59.891  1.00  0.00     0.158 C 
HETATM   10  S   UNL     1       7.787  32.177  60.800  1.00  0.00     0.147 S 
HETATM   11  O   UNL     1       8.296  31.002  61.474  1.00  0.00    -0.228 OA
HETATM   12  O   UNL     1       8.605  33.002  59.938  1.00  0.00    -0.228 OA
HETATM   13  C   UNL     1       7.005  33.240  62.028  1.00  0.00     0.167 C 
ENDROOT
BRANCH   1  14
HETATM   14  C   UNL     1       4.743  35.172  62.947  1.00  0.00     0.049 A 
HETATM   15  C   UNL     1       4.816  35.062  64.360  1.00  0.00    -0.031 A 
HETATM   16  C   UNL     1       4.913  36.226  65.144  1.00  0.00     0.009 A 
HETATM   17  C   UNL     1       4.952  37.483  64.555  1.00  0.00     0.001 A 
HETATM   18  C   UNL     1       4.890  37.596  63.173  1.00  0.00     0.009 A 
HETATM   19  C   UNL     1       4.783  36.458  62.351  1.00  0.00    -0.031 A 
BRANCH  15  20
HETATM   20  C   UNL     1       4.758  33.729  65.085  1.00  0.00     0.036 C 
HETATM   21  C   UNL     1       4.668  33.880  66.599  1.00  0.00     0.010 C 
ENDBRANCH  15  20
BRANCH  19  22
HETATM   22  C   UNL     1       4.721  36.705  60.857  1.00  0.00     0.036 C 
HETATM   23  C   UNL     1       3.361  37.231  60.416  1.00  0.00     0.010 C 
ENDBRANCH  19  22
ENDBRANCH   1  14
TORSDOF 3
ENDMDL
MODEL 9
REMARK VINA RESULT:      -6.0      8.132     11.416
REMARK  3 active torsions:
REMARK  status: ('A' for Active; 'I' for Inactive)
REMARK    1  A    between atoms: C_2  and  C_3 
REMARK    2  A    between atoms: C_4  and  N_5 
REMARK    3  A    between atoms: C_18  and  C_19 
ROOT
HETATM    1  N   UNL     1       4.442  33.940  62.016  1.00  0.00    -0.320 N 
HETATM    2  C   UNL     1       3.245  33.569  61.319  1.00  0.00     0.141 C 
HETATM    3  N   UNL     1       2.076  34.054  61.627  1.00  0.00    -0.380 N 
HETATM    4  H   UNL     1       2.005  34.715  62.389  1.00  0.00     0.158 HD
HETATM    5  H   UNL     1       1.260  33.763  61.107  1.00  0.00     0.158 HD
HETATM    6  S   UNL     1       3.521  32.432  60.046  1.00  0.00    -0.086 SA
HETATM    7  C   UNL     1       5.211  32.141  60.661  1.00  0.00     0.093 C 
HETATM    8  C   UNL     1       5.621  33.509  61.250  1.00  0.00     0.121 C 
HETATM    9  C   UNL     1       6.347  31.755  59.746  1.00  0.00     0.158 C 
HETATM   10  S   UNL     1       7.781  32.204  60.749  1.00  0.00     0.147 S 
HETATM   11  O   UNL     1       8.270  31.014  61.411  1.00  0.00    -0.228 OA
HETATM   12  O   UNL     1       8.631  33.067  59.960  1.00  0.00    -0.228 OA
HETATM   13  C   UNL     1       6.918  33.215  61.966  1.00  0.00     0.167 C 
ENDROOT
BRANCH   1  14
HETATM   14  C   UNL     1       4.580  35.085  62.823  1.00  0.00     0.049 A 
HETATM   15  C   UNL     1       4.663  36.355  62.195  1.00  0.00    -0.031 A 
HETATM   16  C   UNL     1       4.903  37.502  62.974  1.00  0.00     0.009 A 
HETATM   17  C   UNL     1       5.045  37.412  64.352  1.00  0.00     0.001 A 
HETATM   18  C   UNL     1       4.955  36.174  64.973  1.00  0.00     0.009 A 
HETATM   19  C   UNL     1       4.727  35.000  64.231  1.00  0.00    -0.031 A 
BRANCH  15  20
HETATM   20  C   UNL     1       4.542  36.539  60.693  1.00  0.00     0.036 C 
HETATM   21  C   UNL     1       3.259  37.253  60.283  1.00  0.00     0.010 C 
ENDBRANCH  15  20
BRANCH  19  22
HETATM   22  C   UNL     1       4.649  33.706  65.016  1.00  0.00     0.036 C 
HETATM   23  C   UNL     1       4.665  33.944  66.521  1.00  0.00     0.010 C 
ENDBRANCH  19  22
ENDBRANCH   1  14
TORSDOF 3
ENDMDL
MODEL 10
REMARK VINA RESULT:      -5.9      7.094      9.102
REMARK  3 active torsions:
REMARK  status: ('A' for Active; 'I' for Inactive)
REMARK    1  A    between atoms: C_2  and  C_3 
REMARK    2  A    between atoms: C_4  and  N_5 
REMARK    3  A    between atoms: C_18  and  C_19 
ROOT
HETATM    1  N   UNL     1       2.351  29.246  49.022  1.00  0.00    -0.320 N 
HETATM    2  C   UNL     1       1.949  29.526  50.369  1.00  0.00     0.141 C 
HETATM    3  N   UNL     1       1.401  28.628  51.138  1.00  0.00    -0.380 N 
HETATM    4  H   UNL     1       1.249  27.698  50.772  1.00  0.00     0.158 HD
HETATM    5  H   UNL     1       1.134  28.871  52.081  1.00  0.00     0.158 HD
HETATM    6  S   UNL     1       2.269  31.154  50.853  1.00  0.00    -0.086 SA
HETATM    7  C   UNL     1       2.616  31.609  49.123  1.00  0.00     0.093 C 
HETATM    8  C   UNL     1       3.225  30.320  48.527  1.00  0.00     0.121 C 
HETATM    9  C   UNL     1       3.588  32.704  48.756  1.00  0.00     0.158 C 
HETATM   10  S   UNL     1       3.965  32.285  47.040  1.00  0.00     0.147 S 
HETATM   11  O   UNL     1       3.141  33.100  46.175  1.00  0.00    -0.228 OA
HETATM   12  O   UNL     1       5.403  32.201  46.902  1.00  0.00    -0.228 OA
HETATM   13  C   UNL     1       3.297  30.611  47.047  1.00  0.00     0.167 C 
ENDROOT
BRANCH   1  14
HETATM   14  C   UNL     1       2.553  27.956  48.494  1.00  0.00     0.049 A 
HETATM   15  C   UNL     1       3.711  27.235  48.882  1.00  0.00    -0.031 A 
HETATM   16  C   UNL     1       3.984  25.988  48.291  1.00  0.00     0.009 A 
HETATM   17  C   UNL     1       3.128  25.444  47.343  1.00  0.00     0.001 A 
HETATM   18  C   UNL     1       1.987  26.141  46.967  1.00  0.00     0.009 A 
HETATM   19  C   UNL     1       1.682  27.396  47.525  1.00  0.00    -0.031 A 
BRANCH  15  20
HETATM   20  C   UNL     1       4.711  27.766  49.894  1.00  0.00     0.036 C 
HETATM   21  C   UNL     1       5.246  26.685  50.825  1.00  0.00     0.010 C 
ENDBRANCH  15  20
BRANCH  19  22
HETATM   22  C   UNL     1       0.412  28.064  47.037  1.00  0.00     0.036 C 
HETATM   23  C   UNL     1      -0.121  27.424  45.760  1.00  0.00     0.010 C 
ENDBRANCH  19  22
ENDBRANCH   1  14
TORSDOF 3
ENDMDL
