MODEL 1
REMARK VINA RESULT:     -10.5      0.000      0.000
REMARK  3 active torsions:
REMARK  status: ('A' for Active; 'I' for Inactive)
REMARK    1  A    between atoms: C_9  and  C_10 
REMARK       I    between atoms: C_10  and  N_11 
REMARK    2  A    between atoms: N_11  and  C_12 
REMARK    3  A    between atoms: C_19  and  C_20 
REMARK       I    between atoms: C_20  and  N_21 
ROOT
HETATM    1  C   UNL     1       7.668  28.904  56.977  1.00  0.00     0.035 A 
HETATM    2  C   UNL     1       6.413  29.476  57.227  1.00  0.00     0.046 A 
HETATM    3  C   UNL     1       6.311  30.603  58.067  1.00  0.00     0.030 A 
HETATM    4  C   UNL     1       7.471  31.144  58.603  1.00  0.00     0.063 A 
HETATM    5  N   UNL     1       7.055  32.206  59.357  1.00  0.00    -0.277 N 
HETATM    6  H   UNL     1       7.633  32.842  59.894  1.00  0.00     0.189 HD
HETATM    7  N   UNL     1       5.722  32.385  59.383  1.00  0.00    -0.168 NA
HETATM    8  C   UNL     1       5.248  31.396  58.591  1.00  0.00     0.156 A 
HETATM    9  C   UNL     1       8.741  30.616  58.357  1.00  0.00     0.034 A 
HETATM   10  C   UNL     1       8.814  29.474  57.544  1.00  0.00     0.032 A 
ENDROOT
BRANCH   1  11
HETATM   11  N   UNL     1       7.819  27.706  56.249  1.00  0.00    -0.325 N 
HETATM   12  C   UNL     1       7.311  27.451  54.985  1.00  0.00     0.252 C 
HETATM   13  O   UNL     1       6.974  28.300  54.164  1.00  0.00    -0.270 OA
HETATM   14  H   UNL     1       8.339  26.949  56.682  1.00  0.00     0.169 HD
BRANCH  12  15
HETATM   15  C   UNL     1       7.070  25.960  54.750  1.00  0.00     0.225 C 
HETATM   16  C   UNL     1       7.750  25.464  53.472  1.00  0.00     0.083 C 
HETATM   17  C   UNL     1       7.827  24.033  53.837  1.00  0.00    -0.021 A 
HETATM   18  C   UNL     1       7.699  23.909  55.210  1.00  0.00     0.076 A 
HETATM   19  C   UNL     1       8.024  22.927  53.032  1.00  0.00     0.017 A 
HETATM   20  C   UNL     1       7.773  22.684  55.837  1.00  0.00     0.044 A 
HETATM   21  O   UNL     1       7.480  25.110  55.846  1.00  0.00    -0.336 OA
HETATM   22  C   UNL     1       7.944  21.534  55.043  1.00  0.00    -0.053 A 
HETATM   23  C   UNL     1       8.078  21.659  53.632  1.00  0.00    -0.055 A 
HETATM   24  C   UNL     1       8.005  20.187  55.712  1.00  0.00     0.049 C 
HETATM   25  C   UNL     1       8.239  20.449  52.750  1.00  0.00     0.049 C 
ENDBRANCH  12  15
ENDBRANCH   1  11
BRANCH   8  26
HETATM   26  C   UNL     1       3.806  31.208  58.372  1.00  0.00     0.270 C 
HETATM   27  N   UNL     1       3.176  30.499  59.359  1.00  0.00    -0.365 N 
HETATM   28  H   UNL     1       3.729  30.146  60.132  1.00  0.00     0.159 HD
HETATM   29  H   UNL     1       2.194  30.293  59.272  1.00  0.00     0.159 HD
HETATM   30  O   UNL     1       3.188  31.616  57.395  1.00  0.00    -0.266 OA
ENDBRANCH   8  26
TORSDOF 3
ENDMDL
MODEL 2
REMARK VINA RESULT:     -10.5      1.623      2.556
REMARK  3 active torsions:
REMARK  status: ('A' for Active; 'I' for Inactive)
REMARK    1  A    between atoms: C_9  and  C_10 
REMARK       I    between atoms: C_10  and  N_11 
REMARK    2  A    between atoms: N_11  and  C_12 
REMARK    3  A    between atoms: C_19  and  C_20 
REMARK       I    between atoms: C_20  and  N_21 
ROOT
HETATM    1  C   UNL     1       6.664  28.582  57.260  1.00  0.00     0.035 A 
HETATM    2  C   UNL     1       7.570  29.405  57.944  1.00  0.00     0.046 A 
HETATM    3  C   UNL     1       7.144  30.653  58.440  1.00  0.00     0.030 A 
HETATM    4  C   UNL     1       5.818  31.024  58.269  1.00  0.00     0.063 A 
HETATM    5  N   UNL     1       5.715  32.258  58.848  1.00  0.00    -0.277 N 
HETATM    6  H   UNL     1       4.885  32.837  58.916  1.00  0.00     0.189 HD
HETATM    7  N   UNL     1       6.866  32.737  59.354  1.00  0.00    -0.168 NA
HETATM    8  C   UNL     1       7.761  31.754  59.105  1.00  0.00     0.156 A 
HETATM    9  C   UNL     1       4.882  30.219  57.615  1.00  0.00     0.034 A 
HETATM   10  C   UNL     1       5.337  28.996  57.100  1.00  0.00     0.032 A 
ENDROOT
BRANCH   1  11
HETATM   11  N   UNL     1       7.060  27.382  56.634  1.00  0.00    -0.325 N 
HETATM   12  C   UNL     1       7.032  27.125  55.272  1.00  0.00     0.252 C 
HETATM   13  O   UNL     1       7.008  27.974  54.384  1.00  0.00    -0.270 OA
HETATM   14  H   UNL     1       7.393  26.625  57.223  1.00  0.00     0.169 HD
BRANCH  12  15
HETATM   15  C   UNL     1       6.886  25.634  54.969  1.00  0.00     0.225 C 
HETATM   16  C   UNL     1       7.571  25.247  53.656  1.00  0.00     0.083 C 
HETATM   17  C   UNL     1       7.751  23.808  53.949  1.00  0.00    -0.021 A 
HETATM   18  C   UNL     1       7.660  23.611  55.317  1.00  0.00     0.076 A 
HETATM   19  C   UNL     1       8.004  22.758  53.088  1.00  0.00     0.017 A 
HETATM   20  C   UNL     1       7.829  22.366  55.882  1.00  0.00     0.044 A 
HETATM   21  O   UNL     1       7.375  24.763  56.014  1.00  0.00    -0.336 OA
HETATM   22  C   UNL     1       8.059  21.269  55.030  1.00  0.00    -0.053 A 
HETATM   23  C   UNL     1       8.155  21.469  53.624  1.00  0.00    -0.055 A 
HETATM   24  C   UNL     1       8.224  19.899  55.631  1.00  0.00     0.049 C 
HETATM   25  C   UNL     1       8.377  20.317  52.682  1.00  0.00     0.049 C 
ENDBRANCH  12  15
ENDBRANCH   1  11
BRANCH   8  26
HETATM   26  C   UNL     1       9.178  31.890  59.475  1.00  0.00     0.270 C 
HETATM   27  N   UNL     1       9.467  31.480  60.748  1.00  0.00    -0.365 N 
HETATM   28  H   UNL     1       8.711  31.145  61.334  1.00  0.00     0.159 HD
HETATM   29  H   UNL     1      10.408  31.572  61.098  1.00  0.00     0.159 HD
HETATM   30  O   UNL     1      10.051  32.345  58.744  1.00  0.00    -0.266 OA
ENDBRANCH   8  26
TORSDOF 3
ENDMDL
MODEL 3
REMARK VINA RESULT:     -10.4      1.739      2.074
REMARK  3 active torsions:
REMARK  status: ('A' for Active; 'I' for Inactive)
REMARK    1  A    between atoms: C_9  and  C_10 
REMARK       I    between atoms: C_10  and  N_11 
REMARK    2  A    between atoms: N_11  and  C_12 
REMARK    3  A    between atoms: C_19  and  C_20 
REMARK       I    between atoms: C_20  and  N_21 
ROOT
HETATM    1  C   UNL     1       8.483  28.816  56.772  1.00  0.00     0.035 A 
HETATM    2  C   UNL     1       7.765  29.710  57.578  1.00  0.00     0.046 A 
HETATM    3  C   UNL     1       8.449  30.713  58.292  1.00  0.00     0.030 A 
HETATM    4  C   UNL     1       9.826  30.814  58.151  1.00  0.00     0.063 A 
HETATM    5  N   UNL     1      10.191  31.862  58.950  1.00  0.00    -0.277 N 
HETATM    6  H   UNL     1      11.125  32.229  59.093  1.00  0.00     0.189 HD
HETATM    7  N   UNL     1       9.175  32.432  59.624  1.00  0.00    -0.168 NA
HETATM    8  C   UNL     1       8.090  31.728  59.229  1.00  0.00     0.156 A 
HETATM    9  C   UNL     1      10.572  29.957  57.338  1.00  0.00     0.034 A 
HETATM   10  C   UNL     1       9.873  28.945  56.663  1.00  0.00     0.032 A 
ENDROOT
BRANCH   1  11
HETATM   11  N   UNL     1       7.871  27.718  56.134  1.00  0.00    -0.325 N 
HETATM   12  C   UNL     1       6.690  27.104  56.521  1.00  0.00     0.252 C 
HETATM   13  O   UNL     1       5.820  27.607  57.227  1.00  0.00    -0.270 OA
HETATM   14  H   UNL     1       8.331  27.325  55.318  1.00  0.00     0.169 HD
BRANCH  12  15
HETATM   15  C   UNL     1       6.633  25.639  56.088  1.00  0.00     0.225 C 
HETATM   16  C   UNL     1       7.059  25.456  54.630  1.00  0.00     0.083 C 
HETATM   17  C   UNL     1       7.439  24.028  54.718  1.00  0.00    -0.021 A 
HETATM   18  C   UNL     1       7.660  23.700  56.045  1.00  0.00     0.076 A 
HETATM   19  C   UNL     1       7.607  23.097  53.711  1.00  0.00     0.017 A 
HETATM   20  C   UNL     1       8.067  22.439  56.421  1.00  0.00     0.044 A 
HETATM   21  O   UNL     1       7.416  24.743  56.910  1.00  0.00    -0.336 OA
HETATM   22  C   UNL     1       8.220  21.458  55.422  1.00  0.00    -0.053 A 
HETATM   23  C   UNL     1       7.995  21.794  54.057  1.00  0.00    -0.055 A 
HETATM   24  C   UNL     1       8.643  20.070  55.821  1.00  0.00     0.049 C 
HETATM   25  C   UNL     1       8.126  20.765  52.966  1.00  0.00     0.049 C 
ENDBRANCH  12  15
ENDBRANCH   1  11
BRANCH   8  26
HETATM   26  C   UNL     1       6.751  32.011  59.764  1.00  0.00     0.270 C 
HETATM   27  N   UNL     1       6.579  31.641  61.071  1.00  0.00    -0.365 N 
HETATM   28  H   UNL     1       7.349  31.193  61.555  1.00  0.00     0.159 HD
HETATM   29  H   UNL     1       5.680  31.766  61.508  1.00  0.00     0.159 HD
HETATM   30  O   UNL     1       5.834  32.515  59.125  1.00  0.00    -0.266 OA
ENDBRANCH   8  26
TORSDOF 3
ENDMDL
MODEL 4
REMARK VINA RESULT:      -9.9      3.190      8.918
REMARK  3 active torsions:
REMARK  status: ('A' for Active; 'I' for Inactive)
REMARK    1  A    between atoms: C_9  and  C_10 
REMARK       I    between atoms: C_10  and  N_11 
REMARK    2  A    between atoms: N_11  and  C_12 
REMARK    3  A    between atoms: C_19  and  C_20 
REMARK       I    between atoms: C_20  and  N_21 
ROOT
HETATM    1  C   UNL     1       7.614  27.233  56.714  1.00  0.00     0.035 A 
HETATM    2  C   UNL     1       6.900  26.840  55.574  1.00  0.00     0.046 A 
HETATM    3  C   UNL     1       6.938  25.496  55.153  1.00  0.00     0.030 A 
HETATM    4  C   UNL     1       7.661  24.580  55.904  1.00  0.00     0.063 A 
HETATM    5  N   UNL     1       7.508  23.386  55.255  1.00  0.00    -0.277 N 
HETATM    6  H   UNL     1       7.895  22.488  55.522  1.00  0.00     0.189 HD
HETATM    7  N   UNL     1       6.773  23.451  54.130  1.00  0.00    -0.168 NA
HETATM    8  C   UNL     1       6.417  24.754  54.052  1.00  0.00     0.156 A 
HETATM    9  C   UNL     1       8.366  24.931  57.059  1.00  0.00     0.034 A 
HETATM   10  C   UNL     1       8.339  26.281  57.440  1.00  0.00     0.032 A 
ENDROOT
BRANCH   1  11
HETATM   11  N   UNL     1       7.716  28.582  57.112  1.00  0.00    -0.325 N 
HETATM   12  C   UNL     1       8.892  29.278  57.340  1.00  0.00     0.252 C 
HETATM   13  O   UNL     1      10.000  28.975  56.905  1.00  0.00    -0.270 OA
HETATM   14  H   UNL     1       6.856  29.101  57.256  1.00  0.00     0.169 HD
BRANCH  12  15
HETATM   15  C   UNL     1       8.701  30.423  58.335  1.00  0.00     0.225 C 
HETATM   16  C   UNL     1       7.266  30.953  58.330  1.00  0.00     0.083 C 
HETATM   17  C   UNL     1       7.277  31.554  59.682  1.00  0.00    -0.021 A 
HETATM   18  C   UNL     1       8.307  30.993  60.417  1.00  0.00     0.076 A 
HETATM   19  C   UNL     1       6.431  32.496  60.235  1.00  0.00     0.017 A 
HETATM   20  C   UNL     1       8.529  31.338  61.732  1.00  0.00     0.044 A 
HETATM   21  O   UNL     1       9.063  30.096  59.697  1.00  0.00    -0.336 OA
HETATM   22  C   UNL     1       7.704  32.317  62.318  1.00  0.00    -0.053 A 
HETATM   23  C   UNL     1       6.643  32.894  61.564  1.00  0.00    -0.055 A 
HETATM   24  C   UNL     1       7.949  32.720  63.746  1.00  0.00     0.049 C 
HETATM   25  C   UNL     1       5.756  33.959  62.150  1.00  0.00     0.049 C 
ENDBRANCH  12  15
ENDBRANCH   1  11
BRANCH   8  26
HETATM   26  C   UNL     1       5.619  25.269  52.929  1.00  0.00     0.270 C 
HETATM   27  N   UNL     1       4.268  25.243  53.144  1.00  0.00    -0.365 N 
HETATM   28  H   UNL     1       3.921  24.865  54.018  1.00  0.00     0.159 HD
HETATM   29  H   UNL     1       3.643  25.544  52.412  1.00  0.00     0.159 HD
HETATM   30  O   UNL     1       6.083  25.674  51.870  1.00  0.00    -0.266 OA
ENDBRANCH   8  26
TORSDOF 3
ENDMDL
MODEL 5
REMARK VINA RESULT:      -9.6      3.022      9.292
REMARK  3 active torsions:
REMARK  status: ('A' for Active; 'I' for Inactive)
REMARK    1  A    between atoms: C_9  and  C_10 
REMARK       I    between atoms: C_10  and  N_11 
REMARK    2  A    between atoms: N_11  and  C_12 
REMARK    3  A    between atoms: C_19  and  C_20 
REMARK       I    between atoms: C_20  and  N_21 
ROOT
HETATM    1  C   UNL     1       7.238  25.043  55.020  1.00  0.00     0.035 A 
HETATM    2  C   UNL     1       7.752  23.855  55.556  1.00  0.00     0.046 A 
HETATM    3  C   UNL     1       7.927  22.730  54.726  1.00  0.00     0.030 A 
HETATM    4  C   UNL     1       7.616  22.839  53.378  1.00  0.00     0.063 A 
HETATM    5  N   UNL     1       7.888  21.608  52.848  1.00  0.00    -0.277 N 
HETATM    6  H   UNL     1       7.784  21.319  51.882  1.00  0.00     0.189 HD
HETATM    7  N   UNL     1       8.320  20.698  53.740  1.00  0.00    -0.168 NA
HETATM    8  C   UNL     1       8.346  21.379  54.909  1.00  0.00     0.156 A 
HETATM    9  C   UNL     1       7.125  24.014  52.803  1.00  0.00     0.034 A 
HETATM   10  C   UNL     1       6.928  25.111  53.656  1.00  0.00     0.032 A 
ENDROOT
BRANCH   1  11
HETATM   11  N   UNL     1       6.925  26.159  55.823  1.00  0.00    -0.325 N 
HETATM   12  C   UNL     1       7.458  27.432  55.694  1.00  0.00     0.252 C 
HETATM   13  O   UNL     1       7.991  27.886  54.684  1.00  0.00    -0.270 OA
HETATM   14  H   UNL     1       6.253  26.032  56.573  1.00  0.00     0.169 HD
BRANCH  12  15
HETATM   15  C   UNL     1       7.447  28.199  57.016  1.00  0.00     0.225 C 
HETATM   16  C   UNL     1       8.842  28.701  57.398  1.00  0.00     0.083 C 
HETATM   17  C   UNL     1       8.413  29.797  58.295  1.00  0.00    -0.021 A 
HETATM   18  C   UNL     1       7.095  30.120  58.016  1.00  0.00     0.076 A 
HETATM   19  C   UNL     1       9.130  30.479  59.259  1.00  0.00     0.017 A 
HETATM   20  C   UNL     1       6.444  31.139  58.675  1.00  0.00     0.044 A 
HETATM   21  O   UNL     1       6.533  29.318  57.048  1.00  0.00    -0.336 OA
HETATM   22  C   UNL     1       7.137  31.835  59.685  1.00  0.00    -0.053 A 
HETATM   23  C   UNL     1       8.492  31.506  59.972  1.00  0.00    -0.055 A 
HETATM   24  C   UNL     1       6.432  32.936  60.429  1.00  0.00     0.049 C 
HETATM   25  C   UNL     1       9.256  32.213  61.060  1.00  0.00     0.049 C 
ENDBRANCH  12  15
ENDBRANCH   1  11
BRANCH   8  26
HETATM   26  C   UNL     1       8.736  20.731  56.169  1.00  0.00     0.270 C 
HETATM   27  N   UNL     1       9.809  19.887  56.058  1.00  0.00    -0.365 N 
HETATM   28  H   UNL     1      10.230  19.754  55.145  1.00  0.00     0.159 HD
HETATM   29  H   UNL     1      10.122  19.373  56.866  1.00  0.00     0.159 HD
HETATM   30  O   UNL     1       8.166  20.888  57.243  1.00  0.00    -0.266 OA
ENDBRANCH   8  26
TORSDOF 3
ENDMDL
MODEL 6
REMARK VINA RESULT:      -9.6      2.266      2.762
REMARK  3 active torsions:
REMARK  status: ('A' for Active; 'I' for Inactive)
REMARK    1  A    between atoms: C_9  and  C_10 
REMARK       I    between atoms: C_10  and  N_11 
REMARK    2  A    between atoms: N_11  and  C_12 
REMARK    3  A    between atoms: C_19  and  C_20 
REMARK       I    between atoms: C_20  and  N_21 
ROOT
HETATM    1  C   UNL     1       4.502  28.581  55.607  1.00  0.00     0.035 A 
HETATM    2  C   UNL     1       4.317  29.328  56.778  1.00  0.00     0.046 A 
HETATM    3  C   UNL     1       3.752  30.617  56.705  1.00  0.00     0.030 A 
HETATM    4  C   UNL     1       3.355  31.104  55.467  1.00  0.00     0.063 A 
HETATM    5  N   UNL     1       2.854  32.351  55.718  1.00  0.00    -0.277 N 
HETATM    6  H   UNL     1       2.466  33.003  55.046  1.00  0.00     0.189 HD
HETATM    7  N   UNL     1       2.917  32.730  57.007  1.00  0.00    -0.168 NA
HETATM    8  C   UNL     1       3.475  31.667  57.629  1.00  0.00     0.156 A 
HETATM    9  C   UNL     1       3.501  30.378  54.282  1.00  0.00     0.034 A 
HETATM   10  C   UNL     1       4.097  29.111  54.376  1.00  0.00     0.032 A 
ENDROOT
BRANCH   1  11
HETATM   11  N   UNL     1       5.174  27.342  55.601  1.00  0.00    -0.325 N 
HETATM   12  C   UNL     1       6.196  26.973  54.741  1.00  0.00     0.252 C 
HETATM   13  O   UNL     1       6.913  27.744  54.108  1.00  0.00    -0.270 OA
HETATM   14  H   UNL     1       4.889  26.643  56.279  1.00  0.00     0.169 HD
BRANCH  12  15
HETATM   15  C   UNL     1       6.262  25.459  54.538  1.00  0.00     0.225 C 
HETATM   16  C   UNL     1       7.068  25.083  53.293  1.00  0.00     0.083 C 
HETATM   17  C   UNL     1       7.413  23.702  53.697  1.00  0.00    -0.021 A 
HETATM   18  C   UNL     1       7.266  23.582  55.069  1.00  0.00     0.076 A 
HETATM   19  C   UNL     1       7.851  22.641  52.927  1.00  0.00     0.017 A 
HETATM   20  C   UNL     1       7.558  22.409  55.729  1.00  0.00     0.044 A 
HETATM   21  O   UNL     1       6.794  24.729  55.666  1.00  0.00    -0.336 OA
HETATM   22  C   UNL     1       7.979  21.299  54.970  1.00  0.00    -0.053 A 
HETATM   23  C   UNL     1       8.133  21.421  53.560  1.00  0.00    -0.055 A 
HETATM   24  C   UNL     1       8.281  20.005  55.675  1.00  0.00     0.049 C 
HETATM   25  C   UNL     1       8.558  20.250  52.715  1.00  0.00     0.049 C 
ENDBRANCH  12  15
ENDBRANCH   1  11
BRANCH   8  26
HETATM   26  C   UNL     1       3.758  31.679  59.072  1.00  0.00     0.270 C 
HETATM   27  N   UNL     1       3.087  30.722  59.784  1.00  0.00    -0.365 N 
HETATM   28  H   UNL     1       2.449  30.108  59.291  1.00  0.00     0.159 HD
HETATM   29  H   UNL     1       3.194  30.681  60.785  1.00  0.00     0.159 HD
HETATM   30  O   UNL     1       4.506  32.474  59.632  1.00  0.00    -0.266 OA
ENDBRANCH   8  26
TORSDOF 3
ENDMDL
MODEL 7
REMARK VINA RESULT:      -9.5      3.997      6.328
REMARK  3 active torsions:
REMARK  status: ('A' for Active; 'I' for Inactive)
REMARK    1  A    between atoms: C_9  and  C_10 
REMARK       I    between atoms: C_10  and  N_11 
REMARK    2  A    between atoms: N_11  and  C_12 
REMARK    3  A    between atoms: C_19  and  C_20 
REMARK       I    between atoms: C_20  and  N_21 
ROOT
HETATM    1  C   UNL     1       7.083  32.155  61.969  1.00  0.00     0.035 A 
HETATM    2  C   UNL     1       5.782  32.670  62.041  1.00  0.00     0.046 A 
HETATM    3  C   UNL     1       5.351  33.325  63.212  1.00  0.00     0.030 A 
HETATM    4  C   UNL     1       6.246  33.477  64.261  1.00  0.00     0.063 A 
HETATM    5  N   UNL     1       5.549  34.140  65.233  1.00  0.00    -0.277 N 
HETATM    6  H   UNL     1       5.888  34.427  66.144  1.00  0.00     0.189 HD
HETATM    7  N   UNL     1       4.268  34.405  64.919  1.00  0.00    -0.168 NA
HETATM    8  C   UNL     1       4.130  33.903  63.671  1.00  0.00     0.156 A 
HETATM    9  C   UNL     1       7.559  32.999  64.216  1.00  0.00     0.034 A 
HETATM   10  C   UNL     1       7.954  32.321  63.053  1.00  0.00     0.032 A 
ENDROOT
BRANCH   1  11
HETATM   11  N   UNL     1       7.530  31.383  60.877  1.00  0.00    -0.325 N 
HETATM   12  C   UNL     1       8.291  31.840  59.813  1.00  0.00     0.252 C 
HETATM   13  O   UNL     1       8.987  32.852  59.813  1.00  0.00    -0.270 OA
HETATM   14  H   UNL     1       7.271  30.402  60.851  1.00  0.00     0.169 HD
BRANCH  12  15
HETATM   15  C   UNL     1       8.067  31.014  58.547  1.00  0.00     0.225 C 
HETATM   16  C   UNL     1       8.680  29.617  58.659  1.00  0.00     0.083 C 
HETATM   17  C   UNL     1       7.841  28.955  57.635  1.00  0.00    -0.021 A 
HETATM   18  C   UNL     1       6.701  29.713  57.427  1.00  0.00     0.076 A 
HETATM   19  C   UNL     1       8.046  27.767  56.961  1.00  0.00     0.017 A 
HETATM   20  C   UNL     1       5.716  29.314  56.551  1.00  0.00     0.044 A 
HETATM   21  O   UNL     1       6.680  30.876  58.162  1.00  0.00    -0.336 OA
HETATM   22  C   UNL     1       5.907  28.122  55.825  1.00  0.00    -0.053 A 
HETATM   23  C   UNL     1       7.078  27.341  56.038  1.00  0.00    -0.055 A 
HETATM   24  C   UNL     1       4.850  27.685  54.847  1.00  0.00     0.049 C 
HETATM   25  C   UNL     1       7.326  26.074  55.263  1.00  0.00     0.049 C 
ENDBRANCH  12  15
ENDBRANCH   1  11
BRANCH   8  26
HETATM   26  C   UNL     1       2.846  33.955  62.956  1.00  0.00     0.270 C 
HETATM   27  N   UNL     1       1.749  33.815  63.762  1.00  0.00    -0.365 N 
HETATM   28  H   UNL     1       1.891  33.668  64.755  1.00  0.00     0.159 HD
HETATM   29  H   UNL     1       0.829  33.803  63.352  1.00  0.00     0.159 HD
HETATM   30  O   UNL     1       2.726  34.091  61.744  1.00  0.00    -0.266 OA
ENDBRANCH   8  26
TORSDOF 3
ENDMDL
MODEL 8
REMARK VINA RESULT:      -9.4      2.087      3.012
REMARK  3 active torsions:
REMARK  status: ('A' for Active; 'I' for Inactive)
REMARK    1  A    between atoms: C_9  and  C_10 
REMARK       I    between atoms: C_10  and  N_11 
REMARK    2  A    between atoms: N_11  and  C_12 
REMARK    3  A    between atoms: C_19  and  C_20 
REMARK       I    between atoms: C_20  and  N_21 
ROOT
HETATM    1  C   UNL     1       5.410  29.229  55.523  1.00  0.00     0.035 A 
HETATM    2  C   UNL     1       5.913  29.837  56.682  1.00  0.00     0.046 A 
HETATM    3  C   UNL     1       5.609  31.185  56.953  1.00  0.00     0.030 A 
HETATM    4  C   UNL     1       4.784  31.875  56.077  1.00  0.00     0.063 A 
HETATM    5  N   UNL     1       4.676  33.133  56.602  1.00  0.00    -0.277 N 
HETATM    6  H   UNL     1       4.144  33.911  56.228  1.00  0.00     0.189 HD
HETATM    7  N   UNL     1       5.385  33.332  57.727  1.00  0.00    -0.168 NA
HETATM    8  C   UNL     1       5.972  32.134  57.955  1.00  0.00     0.156 A 
HETATM    9  C   UNL     1       4.244  31.295  54.925  1.00  0.00     0.034 A 
HETATM   10  C   UNL     1       4.588  29.961  54.659  1.00  0.00     0.032 A 
ENDROOT
BRANCH   1  11
HETATM   11  N   UNL     1       5.780  27.925  55.134  1.00  0.00    -0.325 N 
HETATM   12  C   UNL     1       5.603  26.771  55.881  1.00  0.00     0.252 C 
HETATM   13  O   UNL     1       4.804  26.630  56.803  1.00  0.00    -0.270 OA
HETATM   14  H   UNL     1       6.224  27.807  54.230  1.00  0.00     0.169 HD
BRANCH  12  15
HETATM   15  C   UNL     1       6.628  25.694  55.530  1.00  0.00     0.225 C 
HETATM   16  C   UNL     1       6.855  24.719  56.688  1.00  0.00     0.083 C 
HETATM   17  C   UNL     1       7.370  23.586  55.888  1.00  0.00    -0.021 A 
HETATM   18  C   UNL     1       6.992  23.755  54.567  1.00  0.00     0.076 A 
HETATM   19  C   UNL     1       8.089  22.477  56.292  1.00  0.00     0.017 A 
HETATM   20  C   UNL     1       7.302  22.825  53.600  1.00  0.00     0.044 A 
HETATM   21  O   UNL     1       6.308  24.929  54.345  1.00  0.00    -0.336 OA
HETATM   22  C   UNL     1       8.059  21.698  53.972  1.00  0.00    -0.053 A 
HETATM   23  C   UNL     1       8.449  21.521  55.330  1.00  0.00    -0.055 A 
HETATM   24  C   UNL     1       8.425  20.685  52.922  1.00  0.00     0.049 C 
HETATM   25  C   UNL     1       9.278  20.340  55.759  1.00  0.00     0.049 C 
ENDBRANCH  12  15
ENDBRANCH   1  11
BRANCH   8  26
HETATM   26  C   UNL     1       6.879  31.924  59.093  1.00  0.00     0.270 C 
HETATM   27  N   UNL     1       6.247  31.584  60.259  1.00  0.00    -0.365 N 
HETATM   28  H   UNL     1       5.235  31.524  60.263  1.00  0.00     0.159 HD
HETATM   29  H   UNL     1       6.789  31.456  61.099  1.00  0.00     0.159 HD
HETATM   30  O   UNL     1       8.097  32.053  59.050  1.00  0.00    -0.266 OA
ENDBRANCH   8  26
TORSDOF 3
ENDMDL
MODEL 9
REMARK VINA RESULT:      -9.4      6.142      7.943
REMARK  3 active torsions:
REMARK  status: ('A' for Active; 'I' for Inactive)
REMARK    1  A    between atoms: C_9  and  C_10 
REMARK       I    between atoms: C_10  and  N_11 
REMARK    2  A    between atoms: N_11  and  C_12 
REMARK    3  A    between atoms: C_19  and  C_20 
REMARK       I    between atoms: C_20  and  N_21 
ROOT
HETATM    1  C   UNL     1       4.858  27.563  49.871  1.00  0.00     0.035 A 
HETATM    2  C   UNL     1       3.709  27.343  49.099  1.00  0.00     0.046 A 
HETATM    3  C   UNL     1       3.301  28.309  48.158  1.00  0.00     0.030 A 
HETATM    4  C   UNL     1       4.075  29.449  47.991  1.00  0.00     0.063 A 
HETATM    5  N   UNL     1       3.436  30.177  47.027  1.00  0.00    -0.277 N 
HETATM    6  H   UNL     1       3.719  31.072  46.645  1.00  0.00     0.189 HD
HETATM    7  N   UNL     1       2.296  29.625  46.573  1.00  0.00    -0.168 NA
HETATM    8  C   UNL     1       2.198  28.469  47.267  1.00  0.00     0.156 A 
HETATM    9  C   UNL     1       5.239  29.691  48.725  1.00  0.00     0.034 A 
HETATM   10  C   UNL     1       5.607  28.731  49.680  1.00  0.00     0.032 A 
ENDROOT
BRANCH   1  11
HETATM   11  N   UNL     1       5.245  26.696  50.912  1.00  0.00    -0.325 N 
HETATM   12  C   UNL     1       5.646  27.076  52.183  1.00  0.00     0.252 C 
HETATM   13  O   UNL     1       5.398  28.152  52.721  1.00  0.00    -0.270 OA
HETATM   14  H   UNL     1       5.240  25.698  50.726  1.00  0.00     0.169 HD
BRANCH  12  15
HETATM   15  C   UNL     1       6.578  26.049  52.825  1.00  0.00     0.225 C 
HETATM   16  C   UNL     1       6.070  25.590  54.194  1.00  0.00     0.083 C 
HETATM   17  C   UNL     1       6.790  24.298  54.244  1.00  0.00    -0.021 A 
HETATM   18  C   UNL     1       7.162  23.938  52.960  1.00  0.00     0.076 A 
HETATM   19  C   UNL     1       7.071  23.488  55.327  1.00  0.00     0.017 A 
HETATM   20  C   UNL     1       7.817  22.754  52.701  1.00  0.00     0.044 A 
HETATM   21  O   UNL     1       6.826  24.878  52.013  1.00  0.00    -0.336 OA
HETATM   22  C   UNL     1       8.145  21.918  53.786  1.00  0.00    -0.053 A 
HETATM   23  C   UNL     1       7.762  22.286  55.107  1.00  0.00    -0.055 A 
HETATM   24  C   UNL     1       8.880  20.632  53.521  1.00  0.00     0.049 C 
HETATM   25  C   UNL     1       8.116  21.428  56.292  1.00  0.00     0.049 C 
ENDBRANCH  12  15
ENDBRANCH   1  11
BRANCH   8  26
HETATM   26  C   UNL     1       1.055  27.560  47.094  1.00  0.00     0.270 C 
HETATM   27  N   UNL     1       0.580  27.495  45.812  1.00  0.00    -0.365 N 
HETATM   28  H   UNL     1       1.016  28.072  45.102  1.00  0.00     0.159 HD
HETATM   29  H   UNL     1      -0.225  26.924  45.610  1.00  0.00     0.159 HD
HETATM   30  O   UNL     1       0.532  26.914  47.996  1.00  0.00    -0.266 OA
ENDBRANCH   8  26
TORSDOF 3
ENDMDL
MODEL 10
REMARK VINA RESULT:      -9.3      3.392      4.795
REMARK  3 active torsions:
REMARK  status: ('A' for Active; 'I' for Inactive)
REMARK    1  A    between atoms: C_9  and  C_10 
REMARK       I    between atoms: C_10  and  N_11 
REMARK    2  A    between atoms: N_11  and  C_12 
REMARK    3  A    between atoms: C_19  and  C_20 
REMARK       I    between atoms: C_20  and  N_21 
ROOT
HETATM    1  C   UNL     1       7.454  31.522  61.077  1.00  0.00     0.035 A 
HETATM    2  C   UNL     1       6.257  32.232  61.244  1.00  0.00     0.046 A 
HETATM    3  C   UNL     1       6.089  33.066  62.367  1.00  0.00     0.030 A 
HETATM    4  C   UNL     1       7.135  33.193  63.269  1.00  0.00     0.063 A 
HETATM    5  N   UNL     1       6.679  34.054  64.228  1.00  0.00    -0.277 N 
HETATM    6  H   UNL     1       7.178  34.382  65.047  1.00  0.00     0.189 HD
HETATM    7  N   UNL     1       5.414  34.475  64.045  1.00  0.00    -0.168 NA
HETATM    8  C   UNL     1       5.035  33.868  62.897  1.00  0.00     0.156 A 
HETATM    9  C   UNL     1       8.351  32.520  63.123  1.00  0.00     0.034 A 
HETATM   10  C   UNL     1       8.483  31.669  62.015  1.00  0.00     0.032 A 
ENDROOT
BRANCH   1  11
HETATM   11  N   UNL     1       7.633  30.578  60.045  1.00  0.00    -0.325 N 
HETATM   12  C   UNL     1       7.347  30.774  58.703  1.00  0.00     0.252 C 
HETATM   13  O   UNL     1       7.241  31.863  58.145  1.00  0.00    -0.270 OA
HETATM   14  H   UNL     1       7.997  29.664  60.294  1.00  0.00     0.169 HD
BRANCH  12  15
HETATM   15  C   UNL     1       7.026  29.464  57.984  1.00  0.00     0.225 C 
HETATM   16  C   UNL     1       7.208  29.582  56.470  1.00  0.00     0.083 C 
HETATM   17  C   UNL     1       7.396  28.142  56.185  1.00  0.00    -0.021 A 
HETATM   18  C   UNL     1       7.758  27.494  57.354  1.00  0.00     0.076 A 
HETATM   19  C   UNL     1       7.288  27.458  54.990  1.00  0.00     0.017 A 
HETATM   20  C   UNL     1       8.038  26.145  57.378  1.00  0.00     0.044 A 
HETATM   21  O   UNL     1       7.788  28.326  58.450  1.00  0.00    -0.336 OA
HETATM   22  C   UNL     1       7.908  25.413  56.182  1.00  0.00    -0.053 A 
HETATM   23  C   UNL     1       7.538  26.077  54.979  1.00  0.00    -0.055 A 
HETATM   24  C   UNL     1       8.189  23.934  56.197  1.00  0.00     0.049 C 
HETATM   25  C   UNL     1       7.368  25.322  53.688  1.00  0.00     0.049 C 
ENDBRANCH  12  15
ENDBRANCH   1  11
BRANCH   8  26
HETATM   26  C   UNL     1       3.682  34.037  62.346  1.00  0.00     0.270 C 
HETATM   27  N   UNL     1       2.847  32.977  62.574  1.00  0.00    -0.365 N 
HETATM   28  H   UNL     1       3.210  32.170  63.068  1.00  0.00     0.159 HD
HETATM   29  H   UNL     1       1.911  32.993  62.201  1.00  0.00     0.159 HD
HETATM   30  O   UNL     1       3.302  35.017  61.715  1.00  0.00    -0.266 OA
ENDBRANCH   8  26
TORSDOF 3
ENDMDL
