MODEL 1
REMARK VINA RESULT:     -11.1      0.000      0.000
REMARK  6 active torsions:
REMARK  status: ('A' for Active; 'I' for Inactive)
REMARK    1  A    between atoms: C_2  and  N_3 
REMARK    2  A    between atoms: C_2  and  C_32 
REMARK       I    between atoms: N_3  and  C_4 
REMARK    3  A    between atoms: C_4  and  C_5 
REMARK    4  A    between atoms: C_6  and  N_7 
REMARK       I    between atoms: N_7  and  C_8 
REMARK    5  A    between atoms: C_8  and  C_9 
REMARK    6  A    between atoms: C_9  and  N_10 
ROOT
HETATM    1  N   UNL     1       5.146  30.105  54.001  1.00  0.00    -0.325 N 
HETATM    2  C   UNL     1       4.665  29.046  53.250  1.00  0.00     0.240 C 
HETATM    3  O   UNL     1       3.526  28.589  53.306  1.00  0.00    -0.271 OA
HETATM    4  H   UNL     1       6.152  30.303  53.951  1.00  0.00     0.169 HD
ENDROOT
BRANCH   1   5
HETATM    5  C   UNL     1       4.407  30.955  54.867  1.00  0.00     0.050 A 
HETATM    6  C   UNL     1       4.744  31.022  56.236  1.00  0.00     0.058 A 
HETATM    7  C   UNL     1       4.056  31.888  57.104  1.00  0.00     0.019 A 
HETATM    8  C   UNL     1       3.013  32.677  56.625  1.00  0.00     0.001 A 
HETATM    9  C   UNL     1       2.660  32.606  55.282  1.00  0.00     0.002 A 
HETATM   10  C   UNL     1       3.351  31.756  54.411  1.00  0.00     0.030 A 
BRANCH   6  11
HETATM   11  C   UNL     1       5.835  30.175  56.786  1.00  0.00     0.254 C 
HETATM   12  N   UNL     1       6.751  30.824  57.587  1.00  0.00    -0.349 N 
HETATM   13  H   UNL     1       6.518  31.749  57.917  1.00  0.00     0.163 HD
HETATM   14  O   UNL     1       5.847  28.973  56.548  1.00  0.00    -0.268 OA
BRANCH  12  15
HETATM   15  C   UNL     1       7.744  30.087  58.353  1.00  0.00     0.114 C 
HETATM   16  C   UNL     1       9.001  29.872  57.509  1.00  0.00     0.037 C 
BRANCH  15  17
HETATM   17  C   UNL     1       8.044  30.809  59.656  1.00  0.00    -0.036 A 
HETATM   18  C   UNL     1       7.213  31.861  60.072  1.00  0.00     0.009 A 
HETATM   19  C   UNL     1       7.448  32.522  61.279  1.00  0.00     0.001 A 
HETATM   20  C   UNL     1       8.530  32.158  62.077  1.00  0.00     0.000 A 
HETATM   21  C   UNL     1       9.379  31.133  61.666  1.00  0.00     0.001 A 
HETATM   22  C   UNL     1       9.138  30.462  60.465  1.00  0.00     0.009 A 
ENDBRANCH  15  17
ENDBRANCH  12  15
ENDBRANCH   6  11
ENDBRANCH   1   5
BRANCH   2  23
HETATM   23  C   UNL     1       5.720  28.397  52.359  1.00  0.00     0.240 C 
BRANCH  23  24
HETATM   24  N   UNL     1       6.289  27.264  53.051  1.00  0.00    -0.259 N 
HETATM   25  C   UNL     1       7.483  27.286  53.695  1.00  0.00     0.326 A 
HETATM   26  O   UNL     1       8.245  28.232  53.797  1.00  0.00    -0.247 OA
HETATM   27  N   UNL     1       7.727  26.037  54.207  1.00  0.00    -0.324 N 
HETATM   28  C   UNL     1       6.632  25.117  53.974  1.00  0.00     0.120 A 
HETATM   29  H   UNL     1       8.564  25.839  54.739  1.00  0.00     0.165 HD
HETATM   30  C   UNL     1       7.049  23.865  53.201  1.00  0.00     0.080 C 
HETATM   31  C   UNL     1       5.913  24.760  55.275  1.00  0.00     0.046 C 
HETATM   32  C   UNL     1       5.739  26.013  53.100  1.00  0.00     0.257 A 
HETATM   33  C   UNL     1       7.688  22.810  54.076  1.00  0.00    -0.049 A 
HETATM   34  C   UNL     1       7.545  22.825  55.474  1.00  0.00    -0.052 A 
HETATM   35  C   UNL     1       8.385  21.757  53.463  1.00  0.00     0.007 A 
HETATM   36  C   UNL     1       6.815  23.935  56.191  1.00  0.00     0.042 C 
HETATM   37  C   UNL     1       8.142  21.807  56.235  1.00  0.00     0.007 A 
HETATM   38  C   UNL     1       8.843  20.773  55.616  1.00  0.00     0.001 A 
HETATM   39  C   UNL     1       8.961  20.745  54.230  1.00  0.00     0.001 A 
HETATM   40  O   UNL     1       4.706  25.655  52.551  1.00  0.00    -0.270 OA
ENDBRANCH  23  24
ENDBRANCH   2  23
TORSDOF 6
ENDMDL
MODEL 2
REMARK VINA RESULT:     -10.9      2.677      6.464
REMARK  6 active torsions:
REMARK  status: ('A' for Active; 'I' for Inactive)
REMARK    1  A    between atoms: C_2  and  N_3 
REMARK    2  A    between atoms: C_2  and  C_32 
REMARK       I    between atoms: N_3  and  C_4 
REMARK    3  A    between atoms: C_4  and  C_5 
REMARK    4  A    between atoms: C_6  and  N_7 
REMARK       I    between atoms: N_7  and  C_8 
REMARK    5  A    between atoms: C_8  and  C_9 
REMARK    6  A    between atoms: C_9  and  N_10 
ROOT
HETATM    1  N   UNL     1       4.994  28.759  56.309  1.00  0.00    -0.325 N 
HETATM    2  C   UNL     1       6.233  28.881  56.914  1.00  0.00     0.240 C 
HETATM    3  O   UNL     1       7.035  29.791  56.723  1.00  0.00    -0.271 OA
HETATM    4  H   UNL     1       4.477  27.884  56.460  1.00  0.00     0.169 HD
ENDROOT
BRANCH   1   5
HETATM    5  C   UNL     1       4.345  29.705  55.471  1.00  0.00     0.050 A 
HETATM    6  C   UNL     1       4.413  29.559  54.069  1.00  0.00     0.058 A 
HETATM    7  C   UNL     1       3.744  30.457  53.219  1.00  0.00     0.019 A 
HETATM    8  C   UNL     1       3.021  31.521  53.753  1.00  0.00     0.001 A 
HETATM    9  C   UNL     1       2.962  31.685  55.134  1.00  0.00     0.002 A 
HETATM   10  C   UNL     1       3.614  30.786  55.984  1.00  0.00     0.030 A 
BRANCH   6  11
HETATM   11  C   UNL     1       5.197  28.450  53.464  1.00  0.00     0.254 C 
HETATM   12  N   UNL     1       4.503  27.625  52.605  1.00  0.00    -0.349 N 
HETATM   13  H   UNL     1       3.599  27.934  52.281  1.00  0.00     0.163 HD
HETATM   14  O   UNL     1       6.393  28.348  53.710  1.00  0.00    -0.268 OA
BRANCH  12  15
HETATM   15  C   UNL     1       5.186  26.633  51.789  1.00  0.00     0.114 C 
HETATM   16  C   UNL     1       4.657  25.235  52.113  1.00  0.00     0.037 C 
BRANCH  15  17
HETATM   17  C   UNL     1       5.039  26.974  50.315  1.00  0.00    -0.036 A 
HETATM   18  C   UNL     1       5.462  28.229  49.849  1.00  0.00     0.009 A 
HETATM   19  C   UNL     1       5.366  28.557  48.495  1.00  0.00     0.001 A 
HETATM   20  C   UNL     1       4.824  27.647  47.592  1.00  0.00     0.000 A 
HETATM   21  C   UNL     1       4.375  26.408  48.042  1.00  0.00     0.001 A 
HETATM   22  C   UNL     1       4.482  26.072  49.394  1.00  0.00     0.009 A 
ENDBRANCH  15  17
ENDBRANCH  12  15
ENDBRANCH   6  11
ENDBRANCH   1   5
BRANCH   2  23
HETATM   23  C   UNL     1       6.591  27.708  57.823  1.00  0.00     0.240 C 
BRANCH  23  24
HETATM   24  N   UNL     1       6.728  26.515  57.020  1.00  0.00    -0.259 N 
HETATM   25  C   UNL     1       5.708  25.667  56.736  1.00  0.00     0.326 A 
HETATM   26  O   UNL     1       4.548  25.768  57.093  1.00  0.00    -0.247 OA
HETATM   27  N   UNL     1       6.199  24.629  55.985  1.00  0.00    -0.324 N 
HETATM   28  C   UNL     1       7.604  24.787  55.670  1.00  0.00     0.120 A 
HETATM   29  H   UNL     1       5.598  23.887  55.653  1.00  0.00     0.165 HD
HETATM   30  C   UNL     1       8.467  23.621  56.155  1.00  0.00     0.080 C 
HETATM   31  C   UNL     1       7.819  25.062  54.182  1.00  0.00     0.046 C 
HETATM   32  C   UNL     1       7.902  26.051  56.494  1.00  0.00     0.257 A 
HETATM   33  C   UNL     1       8.440  22.431  55.222  1.00  0.00    -0.049 A 
HETATM   34  C   UNL     1       7.998  22.546  53.892  1.00  0.00    -0.052 A 
HETATM   35  C   UNL     1       8.929  21.199  55.684  1.00  0.00     0.007 A 
HETATM   36  C   UNL     1       7.453  23.841  53.341  1.00  0.00     0.042 C 
HETATM   37  C   UNL     1       8.015  21.412  53.064  1.00  0.00     0.007 A 
HETATM   38  C   UNL     1       8.492  20.191  53.538  1.00  0.00     0.001 A 
HETATM   39  C   UNL     1       8.953  20.085  54.846  1.00  0.00     0.001 A 
HETATM   40  O   UNL     1       9.008  26.551  56.640  1.00  0.00    -0.270 OA
ENDBRANCH  23  24
ENDBRANCH   2  23
TORSDOF 6
ENDMDL
MODEL 3
REMARK VINA RESULT:     -10.6      1.364      1.855
REMARK  6 active torsions:
REMARK  status: ('A' for Active; 'I' for Inactive)
REMARK    1  A    between atoms: C_2  and  N_3 
REMARK    2  A    between atoms: C_2  and  C_32 
REMARK       I    between atoms: N_3  and  C_4 
REMARK    3  A    between atoms: C_4  and  C_5 
REMARK    4  A    between atoms: C_6  and  N_7 
REMARK       I    between atoms: N_7  and  C_8 
REMARK    5  A    between atoms: C_8  and  C_9 
REMARK    6  A    between atoms: C_9  and  N_10 
ROOT
HETATM    1  N   UNL     1       4.853  29.910  53.421  1.00  0.00    -0.325 N 
HETATM    2  C   UNL     1       4.455  28.737  52.802  1.00  0.00     0.240 C 
HETATM    3  O   UNL     1       3.354  28.206  52.918  1.00  0.00    -0.271 OA
HETATM    4  H   UNL     1       5.841  30.176  53.342  1.00  0.00     0.169 HD
ENDROOT
BRANCH   1   5
HETATM    5  C   UNL     1       4.049  30.798  54.185  1.00  0.00     0.050 A 
HETATM    6  C   UNL     1       4.057  30.712  55.594  1.00  0.00     0.058 A 
HETATM    7  C   UNL     1       3.304  31.607  56.373  1.00  0.00     0.019 A 
HETATM    8  C   UNL     1       2.519  32.581  55.761  1.00  0.00     0.001 A 
HETATM    9  C   UNL     1       2.489  32.664  54.372  1.00  0.00     0.002 A 
HETATM   10  C   UNL     1       3.248  31.784  53.593  1.00  0.00     0.030 A 
BRANCH   6  11
HETATM   11  C   UNL     1       4.863  29.668  56.280  1.00  0.00     0.254 C 
HETATM   12  N   UNL     1       6.120  30.057  56.693  1.00  0.00    -0.349 N 
HETATM   13  H   UNL     1       6.330  31.045  56.700  1.00  0.00     0.163 HD
HETATM   14  O   UNL     1       4.378  28.561  56.481  1.00  0.00    -0.268 OA
BRANCH  12  15
HETATM   15  C   UNL     1       6.932  29.210  57.552  1.00  0.00     0.114 C 
HETATM   16  C   UNL     1       6.802  27.749  57.119  1.00  0.00     0.037 C 
BRANCH  15  17
HETATM   17  C   UNL     1       8.376  29.685  57.544  1.00  0.00    -0.036 A 
HETATM   18  C   UNL     1       8.749  30.782  58.337  1.00  0.00     0.009 A 
HETATM   19  C   UNL     1      10.074  31.220  58.371  1.00  0.00     0.001 A 
HETATM   20  C   UNL     1      11.041  30.586  57.596  1.00  0.00     0.000 A 
HETATM   21  C   UNL     1      10.683  29.512  56.784  1.00  0.00     0.001 A 
HETATM   22  C   UNL     1       9.360  29.063  56.758  1.00  0.00     0.009 A 
ENDBRANCH  15  17
ENDBRANCH  12  15
ENDBRANCH   6  11
ENDBRANCH   1   5
BRANCH   2  23
HETATM   23  C   UNL     1       5.559  28.069  51.987  1.00  0.00     0.240 C 
BRANCH  23  24
HETATM   24  N   UNL     1       6.165  27.026  52.782  1.00  0.00    -0.259 N 
HETATM   25  C   UNL     1       7.320  27.174  53.479  1.00  0.00     0.326 A 
HETATM   26  O   UNL     1       8.010  28.175  53.552  1.00  0.00    -0.247 OA
HETATM   27  N   UNL     1       7.620  25.981  54.086  1.00  0.00    -0.324 N 
HETATM   28  C   UNL     1       6.602  24.973  53.865  1.00  0.00     0.120 A 
HETATM   29  H   UNL     1       8.439  25.876  54.670  1.00  0.00     0.165 HD
HETATM   30  C   UNL     1       7.142  23.706  53.200  1.00  0.00     0.080 C 
HETATM   31  C   UNL     1       5.841  24.651  55.151  1.00  0.00     0.046 C 
HETATM   32  C   UNL     1       5.698  25.746  52.889  1.00  0.00     0.257 A 
HETATM   33  C   UNL     1       7.803  22.757  54.174  1.00  0.00    -0.049 A 
HETATM   34  C   UNL     1       7.587  22.852  55.560  1.00  0.00    -0.052 A 
HETATM   35  C   UNL     1       8.600  21.718  53.669  1.00  0.00     0.007 A 
HETATM   36  C   UNL     1       6.747  23.953  56.163  1.00  0.00     0.042 C 
HETATM   37  C   UNL     1       8.209  21.930  56.416  1.00  0.00     0.007 A 
HETATM   38  C   UNL     1       9.009  20.910  55.903  1.00  0.00     0.001 A 
HETATM   39  C   UNL     1       9.201  20.801  54.530  1.00  0.00     0.001 A 
HETATM   40  O   UNL     1       4.722  25.281  52.318  1.00  0.00    -0.270 OA
ENDBRANCH  23  24
ENDBRANCH   2  23
TORSDOF 6
ENDMDL
MODEL 4
REMARK VINA RESULT:     -10.2      2.898      5.222
REMARK  6 active torsions:
REMARK  status: ('A' for Active; 'I' for Inactive)
REMARK    1  A    between atoms: C_2  and  N_3 
REMARK    2  A    between atoms: C_2  and  C_32 
REMARK       I    between atoms: N_3  and  C_4 
REMARK    3  A    between atoms: C_4  and  C_5 
REMARK    4  A    between atoms: C_6  and  N_7 
REMARK       I    between atoms: N_7  and  C_8 
REMARK    5  A    between atoms: C_8  and  C_9 
REMARK    6  A    between atoms: C_9  and  N_10 
ROOT
HETATM    1  N   UNL     1       7.213  30.719  58.364  1.00  0.00    -0.325 N 
HETATM    2  C   UNL     1       7.082  29.438  57.854  1.00  0.00     0.240 C 
HETATM    3  O   UNL     1       7.555  28.419  58.350  1.00  0.00    -0.271 OA
HETATM    4  H   UNL     1       6.879  31.496  57.784  1.00  0.00     0.169 HD
ENDROOT
BRANCH   1   5
HETATM    5  C   UNL     1       7.784  31.098  59.609  1.00  0.00     0.050 A 
HETATM    6  C   UNL     1       7.198  32.141  60.358  1.00  0.00     0.058 A 
HETATM    7  C   UNL     1       7.719  32.505  61.612  1.00  0.00     0.019 A 
HETATM    8  C   UNL     1       8.839  31.854  62.122  1.00  0.00     0.001 A 
HETATM    9  C   UNL     1       9.436  30.837  61.384  1.00  0.00     0.002 A 
HETATM   10  C   UNL     1       8.913  30.460  60.142  1.00  0.00     0.030 A 
BRANCH   6  11
HETATM   11  C   UNL     1       6.017  32.875  59.832  1.00  0.00     0.254 C 
HETATM   12  N   UNL     1       5.142  33.360  60.781  1.00  0.00    -0.349 N 
HETATM   13  H   UNL     1       5.450  33.377  61.743  1.00  0.00     0.163 HD
HETATM   14  O   UNL     1       5.900  33.050  58.625  1.00  0.00    -0.268 OA
BRANCH  12  15
HETATM   15  C   UNL     1       4.062  34.267  60.424  1.00  0.00     0.114 C 
HETATM   16  C   UNL     1       2.712  33.615  60.724  1.00  0.00     0.037 C 
BRANCH  15  17
HETATM   17  C   UNL     1       4.232  35.594  61.144  1.00  0.00    -0.036 A 
HETATM   18  C   UNL     1       5.272  35.751  62.073  1.00  0.00     0.009 A 
HETATM   19  C   UNL     1       5.468  36.969  62.727  1.00  0.00     0.001 A 
HETATM   20  C   UNL     1       4.614  38.041  62.481  1.00  0.00     0.000 A 
HETATM   21  C   UNL     1       3.561  37.894  61.582  1.00  0.00     0.001 A 
HETATM   22  C   UNL     1       3.370  36.680  60.916  1.00  0.00     0.009 A 
ENDBRANCH  15  17
ENDBRANCH  12  15
ENDBRANCH   6  11
ENDBRANCH   1   5
BRANCH   2  23
HETATM   23  C   UNL     1       6.339  29.382  56.522  1.00  0.00     0.240 C 
BRANCH  23  24
HETATM   24  N   UNL     1       6.461  28.051  55.971  1.00  0.00    -0.259 N 
HETATM   25  C   UNL     1       5.524  27.081  56.112  1.00  0.00     0.326 A 
HETATM   26  O   UNL     1       4.460  27.167  56.700  1.00  0.00    -0.247 OA
HETATM   27  N   UNL     1       5.979  25.941  55.498  1.00  0.00    -0.324 N 
HETATM   28  C   UNL     1       7.255  26.137  54.840  1.00  0.00     0.120 A 
HETATM   29  H   UNL     1       5.424  25.097  55.474  1.00  0.00     0.165 HD
HETATM   30  C   UNL     1       8.345  25.187  55.342  1.00  0.00     0.080 C 
HETATM   31  C   UNL     1       7.118  26.079  53.319  1.00  0.00     0.046 C 
HETATM   32  C   UNL     1       7.550  27.576  55.296  1.00  0.00     0.257 A 
HETATM   33  C   UNL     1       8.279  23.816  54.706  1.00  0.00    -0.049 A 
HETATM   34  C   UNL     1       7.560  23.587  53.519  1.00  0.00    -0.052 A 
HETATM   35  C   UNL     1       9.010  22.768  55.285  1.00  0.00     0.007 A 
HETATM   36  C   UNL     1       6.748  24.672  52.855  1.00  0.00     0.042 C 
HETATM   37  C   UNL     1       7.552  22.298  52.961  1.00  0.00     0.007 A 
HETATM   38  C   UNL     1       8.272  21.261  53.553  1.00  0.00     0.001 A 
HETATM   39  C   UNL     1       9.005  21.497  54.712  1.00  0.00     0.001 A 
HETATM   40  O   UNL     1       8.588  28.184  55.076  1.00  0.00    -0.270 OA
ENDBRANCH  23  24
ENDBRANCH   2  23
TORSDOF 6
ENDMDL
MODEL 5
REMARK VINA RESULT:     -10.2      3.701     10.913
REMARK  6 active torsions:
REMARK  status: ('A' for Active; 'I' for Inactive)
REMARK    1  A    between atoms: C_2  and  N_3 
REMARK    2  A    between atoms: C_2  and  C_32 
REMARK       I    between atoms: N_3  and  C_4 
REMARK    3  A    between atoms: C_4  and  C_5 
REMARK    4  A    between atoms: C_6  and  N_7 
REMARK       I    between atoms: N_7  and  C_8 
REMARK    5  A    between atoms: C_8  and  C_9 
REMARK    6  A    between atoms: C_9  and  N_10 
ROOT
HETATM    1  N   UNL     1       7.016  30.491  58.689  1.00  0.00    -0.325 N 
HETATM    2  C   UNL     1       6.149  31.551  58.488  1.00  0.00     0.240 C 
HETATM    3  O   UNL     1       6.367  32.529  57.778  1.00  0.00    -0.271 OA
HETATM    4  H   UNL     1       6.764  29.802  59.407  1.00  0.00     0.169 HD
ENDROOT
BRANCH   1   5
HETATM    5  C   UNL     1       8.249  30.247  58.026  1.00  0.00     0.050 A 
HETATM    6  C   UNL     1       8.323  29.244  57.035  1.00  0.00     0.058 A 
HETATM    7  C   UNL     1       9.520  29.013  56.334  1.00  0.00     0.019 A 
HETATM    8  C   UNL     1      10.659  29.758  56.628  1.00  0.00     0.001 A 
HETATM    9  C   UNL     1      10.603  30.735  57.616  1.00  0.00     0.002 A 
HETATM   10  C   UNL     1       9.411  30.980  58.306  1.00  0.00     0.030 A 
BRANCH   6  11
HETATM   11  C   UNL     1       7.133  28.413  56.714  1.00  0.00     0.254 C 
HETATM   12  N   UNL     1       6.932  28.145  55.376  1.00  0.00    -0.349 N 
HETATM   13  H   UNL     1       7.690  28.337  54.737  1.00  0.00     0.163 HD
HETATM   14  O   UNL     1       6.433  27.980  57.622  1.00  0.00    -0.268 OA
BRANCH  12  15
HETATM   15  C   UNL     1       5.935  27.181  54.937  1.00  0.00     0.114 C 
HETATM   16  C   UNL     1       4.909  27.867  54.033  1.00  0.00     0.037 C 
BRANCH  15  17
HETATM   17  C   UNL     1       6.608  26.004  54.252  1.00  0.00    -0.036 A 
HETATM   18  C   UNL     1       7.326  26.211  53.063  1.00  0.00     0.009 A 
HETATM   19  C   UNL     1       7.978  25.153  52.429  1.00  0.00     0.001 A 
HETATM   20  C   UNL     1       7.903  23.867  52.958  1.00  0.00     0.000 A 
HETATM   21  C   UNL     1       7.174  23.639  54.122  1.00  0.00     0.001 A 
HETATM   22  C   UNL     1       6.531  24.699  54.766  1.00  0.00     0.009 A 
ENDBRANCH  15  17
ENDBRANCH  12  15
ENDBRANCH   6  11
ENDBRANCH   1   5
BRANCH   2  23
HETATM   23  C   UNL     1       4.867  31.459  59.312  1.00  0.00     0.240 C 
BRANCH  23  24
HETATM   24  N   UNL     1       4.982  32.329  60.460  1.00  0.00    -0.259 N 
HETATM   25  C   UNL     1       6.009  32.288  61.345  1.00  0.00     0.326 A 
HETATM   26  O   UNL     1       6.972  31.543  61.319  1.00  0.00    -0.247 OA
HETATM   27  N   UNL     1       5.780  33.223  62.323  1.00  0.00    -0.324 N 
HETATM   28  C   UNL     1       4.581  33.999  62.080  1.00  0.00     0.120 A 
HETATM   29  H   UNL     1       6.435  33.367  63.079  1.00  0.00     0.165 HD
HETATM   30  C   UNL     1       3.566  33.916  63.221  1.00  0.00     0.080 C 
HETATM   31  C   UNL     1       4.913  35.449  61.729  1.00  0.00     0.046 C 
HETATM   32  C   UNL     1       4.054  33.258  60.840  1.00  0.00     0.257 A 
HETATM   33  C   UNL     1       3.881  34.849  64.368  1.00  0.00    -0.049 A 
HETATM   34  C   UNL     1       4.765  35.932  64.218  1.00  0.00    -0.052 A 
HETATM   35  C   UNL     1       3.221  34.661  65.593  1.00  0.00     0.007 A 
HETATM   36  C   UNL     1       5.511  36.181  62.929  1.00  0.00     0.042 C 
HETATM   37  C   UNL     1       5.004  36.779  65.312  1.00  0.00     0.007 A 
HETATM   38  C   UNL     1       4.352  36.574  66.527  1.00  0.00     0.001 A 
HETATM   39  C   UNL     1       3.457  35.518  66.666  1.00  0.00     0.001 A 
HETATM   40  O   UNL     1       2.984  33.478  60.291  1.00  0.00    -0.270 OA
ENDBRANCH  23  24
ENDBRANCH   2  23
TORSDOF 6
ENDMDL
MODEL 6
REMARK VINA RESULT:     -10.2      1.640      8.117
REMARK  6 active torsions:
REMARK  status: ('A' for Active; 'I' for Inactive)
REMARK    1  A    between atoms: C_2  and  N_3 
REMARK    2  A    between atoms: C_2  and  C_32 
REMARK       I    between atoms: N_3  and  C_4 
REMARK    3  A    between atoms: C_4  and  C_5 
REMARK    4  A    between atoms: C_6  and  N_7 
REMARK       I    between atoms: N_7  and  C_8 
REMARK    5  A    between atoms: C_8  and  C_9 
REMARK    6  A    between atoms: C_9  and  N_10 
ROOT
HETATM    1  N   UNL     1       3.779  28.879  53.458  1.00  0.00    -0.325 N 
HETATM    2  C   UNL     1       3.926  30.217  53.781  1.00  0.00     0.240 C 
HETATM    3  O   UNL     1       4.535  31.051  53.116  1.00  0.00    -0.271 OA
HETATM    4  H   UNL     1       3.357  28.265  54.163  1.00  0.00     0.169 HD
ENDROOT
BRANCH   1   5
HETATM    5  C   UNL     1       4.168  28.234  52.253  1.00  0.00     0.050 A 
HETATM    6  C   UNL     1       5.178  27.248  52.282  1.00  0.00     0.058 A 
HETATM    7  C   UNL     1       5.550  26.565  51.111  1.00  0.00     0.019 A 
HETATM    8  C   UNL     1       4.940  26.872  49.897  1.00  0.00     0.001 A 
HETATM    9  C   UNL     1       3.958  27.856  49.852  1.00  0.00     0.002 A 
HETATM   10  C   UNL     1       3.573  28.528  51.018  1.00  0.00     0.030 A 
BRANCH   6  11
HETATM   11  C   UNL     1       5.867  26.913  53.556  1.00  0.00     0.254 C 
HETATM   12  N   UNL     1       5.814  25.588  53.935  1.00  0.00    -0.349 N 
HETATM   13  H   UNL     1       5.511  24.912  53.250  1.00  0.00     0.163 HD
HETATM   14  O   UNL     1       6.468  27.788  54.168  1.00  0.00    -0.268 OA
BRANCH  12  15
HETATM   15  C   UNL     1       6.612  25.084  55.042  1.00  0.00     0.114 C 
HETATM   16  C   UNL     1       5.784  25.086  56.328  1.00  0.00     0.037 C 
BRANCH  15  17
HETATM   17  C   UNL     1       7.156  23.704  54.711  1.00  0.00    -0.036 A 
HETATM   18  C   UNL     1       7.454  22.809  55.750  1.00  0.00     0.009 A 
HETATM   19  C   UNL     1       7.927  21.525  55.473  1.00  0.00     0.001 A 
HETATM   20  C   UNL     1       8.132  21.124  54.156  1.00  0.00     0.000 A 
HETATM   21  C   UNL     1       7.865  22.008  53.114  1.00  0.00     0.001 A 
HETATM   22  C   UNL     1       7.379  23.290  53.388  1.00  0.00     0.009 A 
ENDBRANCH  15  17
ENDBRANCH  12  15
ENDBRANCH   6  11
ENDBRANCH   1   5
BRANCH   2  23
HETATM   23  C   UNL     1       3.317  30.593  55.129  1.00  0.00     0.240 C 
BRANCH  23  24
HETATM   24  N   UNL     1       4.329  30.469  56.153  1.00  0.00    -0.259 N 
HETATM   25  C   UNL     1       4.566  29.332  56.856  1.00  0.00     0.326 A 
HETATM   26  O   UNL     1       3.990  28.265  56.742  1.00  0.00    -0.247 OA
HETATM   27  N   UNL     1       5.565  29.580  57.763  1.00  0.00    -0.324 N 
HETATM   28  C   UNL     1       6.099  30.922  57.650  1.00  0.00     0.120 A 
HETATM   29  H   UNL     1       5.906  28.858  58.383  1.00  0.00     0.165 HD
HETATM   30  C   UNL     1       5.993  31.726  58.946  1.00  0.00     0.080 C 
HETATM   31  C   UNL     1       7.529  30.913  57.111  1.00  0.00     0.046 C 
HETATM   32  C   UNL     1       5.134  31.483  56.591  1.00  0.00     0.257 A 
HETATM   33  C   UNL     1       7.099  31.419  59.930  1.00  0.00    -0.049 A 
HETATM   34  C   UNL     1       8.285  30.777  59.532  1.00  0.00    -0.052 A 
HETATM   35  C   UNL     1       6.958  31.847  61.260  1.00  0.00     0.007 A 
HETATM   36  C   UNL     1       8.490  30.287  58.119  1.00  0.00     0.042 C 
HETATM   37  C   UNL     1       9.288  30.537  60.484  1.00  0.00     0.007 A 
HETATM   38  C   UNL     1       9.131  30.955  61.805  1.00  0.00     0.001 A 
HETATM   39  C   UNL     1       7.969  31.614  62.192  1.00  0.00     0.001 A 
HETATM   40  O   UNL     1       5.107  32.645  56.210  1.00  0.00    -0.270 OA
ENDBRANCH  23  24
ENDBRANCH   2  23
TORSDOF 6
ENDMDL
MODEL 7
REMARK VINA RESULT:     -10.1      4.409      7.590
REMARK  6 active torsions:
REMARK  status: ('A' for Active; 'I' for Inactive)
REMARK    1  A    between atoms: C_2  and  N_3 
REMARK    2  A    between atoms: C_2  and  C_32 
REMARK       I    between atoms: N_3  and  C_4 
REMARK    3  A    between atoms: C_4  and  C_5 
REMARK    4  A    between atoms: C_6  and  N_7 
REMARK       I    between atoms: N_7  and  C_8 
REMARK    5  A    between atoms: C_8  and  C_9 
REMARK    6  A    between atoms: C_9  and  N_10 
ROOT
HETATM    1  N   UNL     1       3.703  28.390  50.786  1.00  0.00    -0.325 N 
HETATM    2  C   UNL     1       5.046  28.389  51.120  1.00  0.00     0.240 C 
HETATM    3  O   UNL     1       5.975  28.164  50.348  1.00  0.00    -0.271 OA
HETATM    4  H   UNL     1       3.024  28.466  51.552  1.00  0.00     0.169 HD
ENDROOT
BRANCH   1   5
HETATM    5  C   UNL     1       3.135  28.274  49.489  1.00  0.00     0.050 A 
HETATM    6  C   UNL     1       3.010  29.421  48.675  1.00  0.00     0.058 A 
HETATM    7  C   UNL     1       2.492  29.325  47.372  1.00  0.00     0.019 A 
HETATM    8  C   UNL     1       2.073  28.094  46.873  1.00  0.00     0.001 A 
HETATM    9  C   UNL     1       2.174  26.960  47.672  1.00  0.00     0.002 A 
HETATM   10  C   UNL     1       2.702  27.048  48.965  1.00  0.00     0.030 A 
BRANCH   6  11
HETATM   11  C   UNL     1       3.424  30.754  49.185  1.00  0.00     0.254 C 
HETATM   12  N   UNL     1       4.644  31.215  48.736  1.00  0.00    -0.349 N 
HETATM   13  H   UNL     1       5.069  30.741  47.953  1.00  0.00     0.163 HD
HETATM   14  O   UNL     1       2.671  31.383  49.919  1.00  0.00    -0.268 OA
BRANCH  12  15
HETATM   15  C   UNL     1       5.078  32.581  48.987  1.00  0.00     0.114 C 
HETATM   16  C   UNL     1       5.770  32.667  50.348  1.00  0.00     0.037 C 
BRANCH  15  17
HETATM   17  C   UNL     1       5.971  33.063  47.856  1.00  0.00    -0.036 A 
HETATM   18  C   UNL     1       5.611  32.799  46.526  1.00  0.00     0.009 A 
HETATM   19  C   UNL     1       6.398  33.256  45.468  1.00  0.00     0.001 A 
HETATM   20  C   UNL     1       7.570  33.963  45.723  1.00  0.00     0.000 A 
HETATM   21  C   UNL     1       7.956  34.212  47.037  1.00  0.00     0.001 A 
HETATM   22  C   UNL     1       7.163  33.767  48.098  1.00  0.00     0.009 A 
ENDBRANCH  15  17
ENDBRANCH  12  15
ENDBRANCH   6  11
ENDBRANCH   1   5
BRANCH   2  23
HETATM   23  C   UNL     1       5.309  28.620  52.605  1.00  0.00     0.240 C 
BRANCH  23  24
HETATM   24  N   UNL     1       5.955  27.451  53.157  1.00  0.00    -0.259 N 
HETATM   25  C   UNL     1       7.229  27.435  53.623  1.00  0.00     0.326 A 
HETATM   26  O   UNL     1       8.010  28.368  53.659  1.00  0.00    -0.247 OA
HETATM   27  N   UNL     1       7.526  26.160  54.037  1.00  0.00    -0.324 N 
HETATM   28  C   UNL     1       6.396  25.261  53.920  1.00  0.00     0.120 A 
HETATM   29  H   UNL     1       8.427  25.931  54.434  1.00  0.00     0.165 HD
HETATM   30  C   UNL     1       6.681  24.044  53.038  1.00  0.00     0.080 C 
HETATM   31  C   UNL     1       5.865  24.847  55.292  1.00  0.00     0.046 C 
HETATM   32  C   UNL     1       5.400  26.204  53.225  1.00  0.00     0.257 A 
HETATM   33  C   UNL     1       7.424  22.944  53.763  1.00  0.00    -0.049 A 
HETATM   34  C   UNL     1       7.482  22.892  55.167  1.00  0.00    -0.052 A 
HETATM   35  C   UNL     1       8.012  21.916  53.009  1.00  0.00     0.007 A 
HETATM   36  C   UNL     1       6.876  23.972  56.031  1.00  0.00     0.042 C 
HETATM   37  C   UNL     1       8.167  21.835  55.786  1.00  0.00     0.007 A 
HETATM   38  C   UNL     1       8.758  20.827  55.026  1.00  0.00     0.001 A 
HETATM   39  C   UNL     1       8.677  20.865  53.638  1.00  0.00     0.001 A 
HETATM   40  O   UNL     1       4.295  25.880  52.814  1.00  0.00    -0.270 OA
ENDBRANCH  23  24
ENDBRANCH   2  23
TORSDOF 6
ENDMDL
MODEL 8
REMARK VINA RESULT:     -10.0      2.490      5.661
REMARK  6 active torsions:
REMARK  status: ('A' for Active; 'I' for Inactive)
REMARK    1  A    between atoms: C_2  and  N_3 
REMARK    2  A    between atoms: C_2  and  C_32 
REMARK       I    between atoms: N_3  and  C_4 
REMARK    3  A    between atoms: C_4  and  C_5 
REMARK    4  A    between atoms: C_6  and  N_7 
REMARK       I    between atoms: N_7  and  C_8 
REMARK    5  A    between atoms: C_8  and  C_9 
REMARK    6  A    between atoms: C_9  and  N_10 
ROOT
HETATM    1  N   UNL     1       6.993  31.739  59.612  1.00  0.00    -0.325 N 
HETATM    2  C   UNL     1       7.523  30.624  58.986  1.00  0.00     0.240 C 
HETATM    3  O   UNL     1       8.322  29.835  59.485  1.00  0.00    -0.271 OA
HETATM    4  H   UNL     1       6.437  32.384  59.039  1.00  0.00     0.169 HD
ENDROOT
BRANCH   1   5
HETATM    5  C   UNL     1       7.146  32.119  60.972  1.00  0.00     0.050 A 
HETATM    6  C   UNL     1       6.063  32.711  61.659  1.00  0.00     0.058 A 
HETATM    7  C   UNL     1       6.176  33.056  63.017  1.00  0.00     0.019 A 
HETATM    8  C   UNL     1       7.370  32.839  63.699  1.00  0.00     0.001 A 
HETATM    9  C   UNL     1       8.450  32.275  63.027  1.00  0.00     0.002 A 
HETATM   10  C   UNL     1       8.339  31.916  61.680  1.00  0.00     0.030 A 
BRANCH   6  11
HETATM   11  C   UNL     1       4.782  32.980  60.955  1.00  0.00     0.254 C 
HETATM   12  N   UNL     1       4.644  34.245  60.424  1.00  0.00    -0.349 N 
HETATM   13  H   UNL     1       5.470  34.822  60.357  1.00  0.00     0.163 HD
HETATM   14  O   UNL     1       3.952  32.085  60.842  1.00  0.00    -0.268 OA
BRANCH  12  15
HETATM   15  C   UNL     1       3.539  34.580  59.539  1.00  0.00     0.114 C 
HETATM   16  C   UNL     1       3.026  35.986  59.854  1.00  0.00     0.037 C 
BRANCH  15  17
HETATM   17  C   UNL     1       3.967  34.437  58.088  1.00  0.00    -0.036 A 
HETATM   18  C   UNL     1       3.810  33.203  57.438  1.00  0.00     0.009 A 
HETATM   19  C   UNL     1       4.167  33.051  56.097  1.00  0.00     0.001 A 
HETATM   20  C   UNL     1       4.710  34.123  55.392  1.00  0.00     0.000 A 
HETATM   21  C   UNL     1       4.897  35.347  56.029  1.00  0.00     0.001 A 
HETATM   22  C   UNL     1       4.528  35.505  57.368  1.00  0.00     0.009 A 
ENDBRANCH  15  17
ENDBRANCH  12  15
ENDBRANCH   6  11
ENDBRANCH   1   5
BRANCH   2  23
HETATM   23  C   UNL     1       7.088  30.473  57.530  1.00  0.00     0.240 C 
BRANCH  23  24
HETATM   24  N   UNL     1       7.480  29.166  57.056  1.00  0.00    -0.259 N 
HETATM   25  C   UNL     1       8.686  28.888  56.499  1.00  0.00     0.326 A 
HETATM   26  O   UNL     1       9.608  29.664  56.318  1.00  0.00    -0.247 OA
HETATM   27  N   UNL     1       8.704  27.566  56.132  1.00  0.00    -0.324 N 
HETATM   28  C   UNL     1       7.490  26.869  56.507  1.00  0.00     0.120 A 
HETATM   29  H   UNL     1       9.520  27.147  55.708  1.00  0.00     0.165 HD
HETATM   30  C   UNL     1       6.771  26.228  55.318  1.00  0.00     0.080 C 
HETATM   31  C   UNL     1       7.746  25.855  57.621  1.00  0.00     0.046 C 
HETATM   32  C   UNL     1       6.678  28.059  57.045  1.00  0.00     0.257 A 
HETATM   33  C   UNL     1       7.358  24.894  54.916  1.00  0.00    -0.049 A 
HETATM   34  C   UNL     1       8.194  24.164  55.780  1.00  0.00    -0.052 A 
HETATM   35  C   UNL     1       7.003  24.347  53.673  1.00  0.00     0.007 A 
HETATM   36  C   UNL     1       8.618  24.703  57.124  1.00  0.00     0.042 C 
HETATM   37  C   UNL     1       8.693  22.920  55.362  1.00  0.00     0.007 A 
HETATM   38  C   UNL     1       8.342  22.393  54.119  1.00  0.00     0.001 A 
HETATM   39  C   UNL     1       7.494  23.104  53.277  1.00  0.00     0.001 A 
HETATM   40  O   UNL     1       5.511  28.007  57.407  1.00  0.00    -0.270 OA
ENDBRANCH  23  24
ENDBRANCH   2  23
TORSDOF 6
ENDMDL
MODEL 9
REMARK VINA RESULT:      -9.9      3.600      5.567
REMARK  6 active torsions:
REMARK  status: ('A' for Active; 'I' for Inactive)
REMARK    1  A    between atoms: C_2  and  N_3 
REMARK    2  A    between atoms: C_2  and  C_32 
REMARK       I    between atoms: N_3  and  C_4 
REMARK    3  A    between atoms: C_4  and  C_5 
REMARK    4  A    between atoms: C_6  and  N_7 
REMARK       I    between atoms: N_7  and  C_8 
REMARK    5  A    between atoms: C_8  and  C_9 
REMARK    6  A    between atoms: C_9  and  N_10 
ROOT
HETATM    1  N   UNL     1       5.386  31.690  59.608  1.00  0.00    -0.325 N 
HETATM    2  C   UNL     1       6.376  31.552  58.650  1.00  0.00     0.240 C 
HETATM    3  O   UNL     1       6.505  32.251  57.648  1.00  0.00    -0.271 OA
HETATM    4  H   UNL     1       5.316  30.960  60.326  1.00  0.00     0.169 HD
ENDROOT
BRANCH   1   5
HETATM    5  C   UNL     1       4.422  32.728  59.708  1.00  0.00     0.050 A 
HETATM    6  C   UNL     1       4.047  33.213  60.980  1.00  0.00     0.058 A 
HETATM    7  C   UNL     1       3.127  34.269  61.104  1.00  0.00     0.019 A 
HETATM    8  C   UNL     1       2.554  34.836  59.968  1.00  0.00     0.001 A 
HETATM    9  C   UNL     1       2.901  34.354  58.711  1.00  0.00     0.002 A 
HETATM   10  C   UNL     1       3.827  33.313  58.581  1.00  0.00     0.030 A 
BRANCH   6  11
HETATM   11  C   UNL     1       4.619  32.614  62.214  1.00  0.00     0.254 C 
HETATM   12  N   UNL     1       5.536  33.392  62.888  1.00  0.00    -0.349 N 
HETATM   13  H   UNL     1       5.603  34.368  62.638  1.00  0.00     0.163 HD
HETATM   14  O   UNL     1       4.233  31.513  62.589  1.00  0.00    -0.268 OA
BRANCH  12  15
HETATM   15  C   UNL     1       6.019  33.022  64.210  1.00  0.00     0.114 C 
HETATM   16  C   UNL     1       7.548  33.036  64.230  1.00  0.00     0.037 C 
BRANCH  15  17
HETATM   17  C   UNL     1       5.423  33.941  65.263  1.00  0.00    -0.036 A 
HETATM   18  C   UNL     1       4.199  34.582  65.011  1.00  0.00     0.009 A 
HETATM   19  C   UNL     1       3.615  35.408  65.973  1.00  0.00     0.001 A 
HETATM   20  C   UNL     1       4.255  35.627  67.190  1.00  0.00     0.000 A 
HETATM   21  C   UNL     1       5.481  35.019  67.445  1.00  0.00     0.001 A 
HETATM   22  C   UNL     1       6.062  34.181  66.490  1.00  0.00     0.009 A 
ENDBRANCH  15  17
ENDBRANCH  12  15
ENDBRANCH   6  11
ENDBRANCH   1   5
BRANCH   2  23
HETATM   23  C   UNL     1       7.300  30.360  58.890  1.00  0.00     0.240 C 
BRANCH  23  24
HETATM   24  N   UNL     1       7.111  29.397  57.829  1.00  0.00    -0.259 N 
HETATM   25  C   UNL     1       5.898  29.021  57.350  1.00  0.00     0.326 A 
HETATM   26  O   UNL     1       4.808  29.420  57.717  1.00  0.00    -0.247 OA
HETATM   27  N   UNL     1       6.089  28.071  56.378  1.00  0.00    -0.324 N 
HETATM   28  C   UNL     1       7.491  27.819  56.115  1.00  0.00     0.120 A 
HETATM   29  H   UNL     1       5.310  27.663  55.879  1.00  0.00     0.165 HD
HETATM   30  C   UNL     1       7.889  26.355  56.315  1.00  0.00     0.080 C 
HETATM   31  C   UNL     1       7.903  28.328  54.734  1.00  0.00     0.046 C 
HETATM   32  C   UNL     1       8.111  28.698  57.214  1.00  0.00     0.257 A 
HETATM   33  C   UNL     1       7.556  25.479  55.129  1.00  0.00    -0.049 A 
HETATM   34  C   UNL     1       7.286  26.024  53.861  1.00  0.00    -0.052 A 
HETATM   35  C   UNL     1       7.584  24.085  55.291  1.00  0.00     0.007 A 
HETATM   36  C   UNL     1       7.234  27.514  53.628  1.00  0.00     0.042 C 
HETATM   37  C   UNL     1       7.004  25.161  52.790  1.00  0.00     0.007 A 
HETATM   38  C   UNL     1       7.022  23.778  52.966  1.00  0.00     0.001 A 
HETATM   39  C   UNL     1       7.316  23.240  54.215  1.00  0.00     0.001 A 
HETATM   40  O   UNL     1       9.304  28.756  57.478  1.00  0.00    -0.270 OA
ENDBRANCH  23  24
ENDBRANCH   2  23
TORSDOF 6
ENDMDL
MODEL 10
REMARK VINA RESULT:      -9.8      2.732      9.933
REMARK  6 active torsions:
REMARK  status: ('A' for Active; 'I' for Inactive)
REMARK    1  A    between atoms: C_2  and  N_3 
REMARK    2  A    between atoms: C_2  and  C_32 
REMARK       I    between atoms: N_3  and  C_4 
REMARK    3  A    between atoms: C_4  and  C_5 
REMARK    4  A    between atoms: C_6  and  N_7 
REMARK       I    between atoms: N_7  and  C_8 
REMARK    5  A    between atoms: C_8  and  C_9 
REMARK    6  A    between atoms: C_9  and  N_10 
ROOT
HETATM    1  N   UNL     1       6.117  30.151  55.837  1.00  0.00    -0.325 N 
HETATM    2  C   UNL     1       5.994  30.010  57.209  1.00  0.00     0.240 C 
HETATM    3  O   UNL     1       5.114  29.376  57.786  1.00  0.00    -0.271 OA
HETATM    4  H   UNL     1       6.821  30.813  55.491  1.00  0.00     0.169 HD
ENDROOT
BRANCH   1   5
HETATM    5  C   UNL     1       5.360  29.495  54.830  1.00  0.00     0.050 A 
HETATM    6  C   UNL     1       5.723  28.194  54.418  1.00  0.00     0.058 A 
HETATM    7  C   UNL     1       4.964  27.507  53.454  1.00  0.00     0.019 A 
HETATM    8  C   UNL     1       3.852  28.114  52.875  1.00  0.00     0.001 A 
HETATM    9  C   UNL     1       3.496  29.402  53.260  1.00  0.00     0.002 A 
HETATM   10  C   UNL     1       4.239  30.085  54.229  1.00  0.00     0.030 A 
BRANCH   6  11
HETATM   11  C   UNL     1       6.919  27.527  54.997  1.00  0.00     0.254 C 
HETATM   12  N   UNL     1       6.726  26.238  55.448  1.00  0.00    -0.349 N 
HETATM   13  H   UNL     1       5.878  25.764  55.174  1.00  0.00     0.163 HD
HETATM   14  O   UNL     1       7.995  28.113  55.007  1.00  0.00    -0.268 OA
BRANCH  12  15
HETATM   15  C   UNL     1       7.845  25.398  55.845  1.00  0.00     0.114 C 
HETATM   16  C   UNL     1       7.790  25.131  57.350  1.00  0.00     0.037 C 
BRANCH  15  17
HETATM   17  C   UNL     1       7.851  24.113  55.034  1.00  0.00    -0.036 A 
HETATM   18  C   UNL     1       7.842  24.178  53.632  1.00  0.00     0.009 A 
HETATM   19  C   UNL     1       7.877  23.013  52.863  1.00  0.00     0.001 A 
HETATM   20  C   UNL     1       7.896  21.766  53.482  1.00  0.00     0.000 A 
HETATM   21  C   UNL     1       7.879  21.683  54.872  1.00  0.00     0.001 A 
HETATM   22  C   UNL     1       7.858  22.848  55.644  1.00  0.00     0.009 A 
ENDBRANCH  15  17
ENDBRANCH  12  15
ENDBRANCH   6  11
ENDBRANCH   1   5
BRANCH   2  23
HETATM   23  C   UNL     1       7.029  30.801  58.003  1.00  0.00     0.240 C 
BRANCH  23  24
HETATM   24  N   UNL     1       6.346  31.725  58.879  1.00  0.00    -0.259 N 
HETATM   25  C   UNL     1       5.464  32.665  58.455  1.00  0.00     0.326 A 
HETATM   26  O   UNL     1       5.111  32.877  57.308  1.00  0.00    -0.247 OA
HETATM   27  N   UNL     1       5.037  33.385  59.542  1.00  0.00    -0.324 N 
HETATM   28  C   UNL     1       5.585  32.888  60.788  1.00  0.00     0.120 A 
HETATM   29  H   UNL     1       4.361  34.131  59.448  1.00  0.00     0.165 HD
HETATM   30  C   UNL     1       6.370  33.946  61.566  1.00  0.00     0.080 C 
HETATM   31  C   UNL     1       4.508  32.239  61.656  1.00  0.00     0.046 C 
HETATM   32  C   UNL     1       6.537  31.817  60.229  1.00  0.00     0.257 A 
HETATM   33  C   UNL     1       5.488  34.868  62.376  1.00  0.00    -0.049 A 
HETATM   34  C   UNL     1       4.156  34.535  62.682  1.00  0.00    -0.052 A 
HETATM   35  C   UNL     1       6.038  36.054  62.885  1.00  0.00     0.007 A 
HETATM   36  C   UNL     1       3.507  33.278  62.156  1.00  0.00     0.042 C 
HETATM   37  C   UNL     1       3.389  35.419  63.457  1.00  0.00     0.007 A 
HETATM   38  C   UNL     1       3.943  36.601  63.947  1.00  0.00     0.001 A 
HETATM   39  C   UNL     1       5.269  36.917  63.665  1.00  0.00     0.001 A 
HETATM   40  O   UNL     1       7.325  31.161  60.895  1.00  0.00    -0.270 OA
ENDBRANCH  23  24
ENDBRANCH   2  23
TORSDOF 6
ENDMDL
