MODEL 1
REMARK VINA RESULT:      -7.9      0.000      0.000
REMARK  5 active torsions:
REMARK  status: ('A' for Active; 'I' for Inactive)
REMARK    1  A    between atoms: C_8  and  N_9 
REMARK       I    between atoms: N_9  and  C_10 
REMARK       I    between atoms: C_10  and  N_11 
REMARK    2  A    between atoms: N_11  and  C_12 
REMARK    3  A    between atoms: C_13  and  O_14 
REMARK    4  A    between atoms: O_14  and  C_15 
REMARK    5  A    between atoms: C_15  and  C_16 
ROOT
HETATM    1  N   UNL     1       6.364  26.522  53.226  1.00  0.00    -0.305 N 
HETATM    2  C   UNL     1       6.354  25.156  53.439  1.00  0.00     0.325 C 
HETATM    3  N   UNL     1       7.648  24.663  53.443  1.00  0.00    -0.306 N 
HETATM    4  O   UNL     1       5.353  24.473  53.605  1.00  0.00    -0.247 OA
HETATM    5  H   UNL     1       7.217  27.002  53.466  1.00  0.00     0.171 HD
HETATM    6  H   UNL     1       8.359  25.254  53.030  1.00  0.00     0.171 HD
ENDROOT
BRANCH   3   7
HETATM    7  C   UNL     1       8.071  23.351  53.748  1.00  0.00     0.072 A 
HETATM    8  C   UNL     1       8.635  23.136  55.020  1.00  0.00     0.096 A 
HETATM    9  C   UNL     1       9.038  21.861  55.426  1.00  0.00     0.042 A 
HETATM   10  C   UNL     1       8.909  20.792  54.543  1.00  0.00     0.045 A 
HETATM   11  C   UNL     1       8.370  21.007  53.278  1.00  0.00     0.118 A 
HETATM   12  F   UNL     1       8.242  19.971  52.439  1.00  0.00    -0.206 F 
HETATM   13  C   UNL     1       7.946  22.272  52.875  1.00  0.00     0.074 A 
BRANCH   8  14
HETATM   14  O   UNL     1       8.732  24.212  55.870  1.00  0.00    -0.340 OA
BRANCH  14  15
HETATM   15  C   UNL     1       7.752  24.150  56.924  1.00  0.00     0.293 C 
BRANCH  15  16
HETATM   16  C   UNL     1       7.111  25.515  57.114  1.00  0.00     0.408 C 
HETATM   17  F   UNL     1       7.598  26.412  56.226  1.00  0.00    -0.169 F 
HETATM   18  F   UNL     1       5.770  25.462  56.955  1.00  0.00    -0.169 F 
HETATM   19  F   UNL     1       7.357  25.993  58.355  1.00  0.00    -0.169 F 
ENDBRANCH  15  16
ENDBRANCH  14  15
ENDBRANCH   8  14
ENDBRANCH   3   7
BRANCH   1  20
HETATM   20  C   UNL     1       5.261  27.329  53.000  1.00  0.00     0.086 A 
HETATM   21  C   UNL     1       4.704  27.473  51.743  1.00  0.00     0.052 A 
HETATM   22  C   UNL     1       5.062  26.915  50.417  1.00  0.00     0.072 C 
HETATM   23  N   UNL     1       3.647  28.323  51.899  1.00  0.00    -0.280 N 
HETATM   24  H   UNL     1       3.009  28.668  51.191  1.00  0.00     0.189 HD
HETATM   25  N   UNL     1       3.453  28.718  53.160  1.00  0.00    -0.177 NA
HETATM   26  C   UNL     1       4.431  28.114  53.853  1.00  0.00     0.079 A 
HETATM   27  C   UNL     1       4.470  28.305  55.324  1.00  0.00     0.075 C 
ENDBRANCH   1  20
TORSDOF 5
ENDMDL
MODEL 2
REMARK VINA RESULT:      -7.9      1.365      2.248
REMARK  5 active torsions:
REMARK  status: ('A' for Active; 'I' for Inactive)
REMARK    1  A    between atoms: C_8  and  N_9 
REMARK       I    between atoms: N_9  and  C_10 
REMARK       I    between atoms: C_10  and  N_11 
REMARK    2  A    between atoms: N_11  and  C_12 
REMARK    3  A    between atoms: C_13  and  O_14 
REMARK    4  A    between atoms: O_14  and  C_15 
REMARK    5  A    between atoms: C_15  and  C_16 
ROOT
HETATM    1  N   UNL     1       5.721  25.811  52.958  1.00  0.00    -0.305 N 
HETATM    2  C   UNL     1       6.834  24.997  53.066  1.00  0.00     0.325 C 
HETATM    3  N   UNL     1       6.568  23.936  53.916  1.00  0.00    -0.306 N 
HETATM    4  O   UNL     1       7.901  25.178  52.497  1.00  0.00    -0.247 OA
HETATM    5  H   UNL     1       4.834  25.379  53.163  1.00  0.00     0.171 HD
HETATM    6  H   UNL     1       5.770  24.036  54.530  1.00  0.00     0.171 HD
ENDROOT
BRANCH   3   7
HETATM    7  C   UNL     1       7.394  22.825  54.192  1.00  0.00     0.072 A 
HETATM    8  C   UNL     1       7.809  22.647  55.527  1.00  0.00     0.096 A 
HETATM    9  C   UNL     1       8.588  21.549  55.901  1.00  0.00     0.042 A 
HETATM   10  C   UNL     1       8.989  20.635  54.930  1.00  0.00     0.045 A 
HETATM   11  C   UNL     1       8.597  20.820  53.608  1.00  0.00     0.118 A 
HETATM   12  F   UNL     1       8.980  19.931  52.683  1.00  0.00    -0.206 F 
HETATM   13  C   UNL     1       7.801  21.901  53.232  1.00  0.00     0.074 A 
BRANCH   8  14
HETATM   14  O   UNL     1       7.381  23.562  56.459  1.00  0.00    -0.340 OA
BRANCH  14  15
HETATM   15  C   UNL     1       8.457  24.404  56.914  1.00  0.00     0.293 C 
BRANCH  15  16
HETATM   16  C   UNL     1       7.927  25.792  57.232  1.00  0.00     0.408 C 
HETATM   17  F   UNL     1       7.503  25.873  58.513  1.00  0.00    -0.169 F 
HETATM   18  F   UNL     1       8.872  26.740  57.048  1.00  0.00    -0.169 F 
HETATM   19  F   UNL     1       6.880  26.100  56.433  1.00  0.00    -0.169 F 
ENDBRANCH  15  16
ENDBRANCH  14  15
ENDBRANCH   8  14
ENDBRANCH   3   7
BRANCH   1  20
HETATM   20  C   UNL     1       5.661  27.043  52.328  1.00  0.00     0.086 A 
HETATM   21  C   UNL     1       6.068  28.206  52.956  1.00  0.00     0.052 A 
HETATM   22  C   UNL     1       6.602  28.481  54.312  1.00  0.00     0.072 C 
HETATM   23  N   UNL     1       5.875  29.207  52.047  1.00  0.00    -0.280 N 
HETATM   24  H   UNL     1       6.052  30.199  52.159  1.00  0.00     0.189 HD
HETATM   25  N   UNL     1       5.404  28.785  50.871  1.00  0.00    -0.177 NA
HETATM   26  C   UNL     1       5.271  27.458  51.022  1.00  0.00     0.079 A 
HETATM   27  C   UNL     1       4.810  26.663  49.856  1.00  0.00     0.075 C 
ENDBRANCH   1  20
TORSDOF 5
ENDMDL
MODEL 3
REMARK VINA RESULT:      -7.8      3.105      7.087
REMARK  5 active torsions:
REMARK  status: ('A' for Active; 'I' for Inactive)
REMARK    1  A    between atoms: C_8  and  N_9 
REMARK       I    between atoms: N_9  and  C_10 
REMARK       I    between atoms: C_10  and  N_11 
REMARK    2  A    between atoms: N_11  and  C_12 
REMARK    3  A    between atoms: C_13  and  O_14 
REMARK    4  A    between atoms: O_14  and  C_15 
REMARK    5  A    between atoms: C_15  and  C_16 
ROOT
HETATM    1  N   UNL     1       7.339  22.771  55.346  1.00  0.00    -0.305 N 
HETATM    2  C   UNL     1       7.967  23.984  55.560  1.00  0.00     0.325 C 
HETATM    3  N   UNL     1       7.054  25.019  55.455  1.00  0.00    -0.306 N 
HETATM    4  O   UNL     1       9.155  24.132  55.810  1.00  0.00    -0.247 OA
HETATM    5  H   UNL     1       6.346  22.750  55.513  1.00  0.00     0.171 HD
HETATM    6  H   UNL     1       6.182  24.810  54.984  1.00  0.00     0.171 HD
ENDROOT
BRANCH   3   7
HETATM    7  C   UNL     1       7.267  26.389  55.724  1.00  0.00     0.072 A 
HETATM    8  C   UNL     1       7.614  27.213  54.635  1.00  0.00     0.096 A 
HETATM    9  C   UNL     1       7.799  28.588  54.800  1.00  0.00     0.042 A 
HETATM   10  C   UNL     1       7.669  29.147  56.068  1.00  0.00     0.045 A 
HETATM   11  C   UNL     1       7.345  28.331  57.148  1.00  0.00     0.118 A 
HETATM   12  F   UNL     1       7.213  28.879  58.363  1.00  0.00    -0.206 F 
HETATM   13  C   UNL     1       7.138  26.962  56.988  1.00  0.00     0.074 A 
BRANCH   8  14
HETATM   14  O   UNL     1       7.719  26.628  53.395  1.00  0.00    -0.340 OA
BRANCH  14  15
HETATM   15  C   UNL     1       6.482  26.706  52.662  1.00  0.00     0.293 C 
BRANCH  15  16
HETATM   16  C   UNL     1       6.286  25.439  51.845  1.00  0.00     0.408 C 
HETATM   17  F   UNL     1       5.629  24.495  52.556  1.00  0.00    -0.169 F 
HETATM   18  F   UNL     1       5.577  25.677  50.720  1.00  0.00    -0.169 F 
HETATM   19  F   UNL     1       7.478  24.918  51.475  1.00  0.00    -0.169 F 
ENDBRANCH  15  16
ENDBRANCH  14  15
ENDBRANCH   8  14
ENDBRANCH   3   7
BRANCH   1  20
HETATM   20  C   UNL     1       7.955  21.537  55.214  1.00  0.00     0.086 A 
HETATM   21  C   UNL     1       8.424  20.833  56.307  1.00  0.00     0.052 A 
HETATM   22  C   UNL     1       8.441  21.129  57.760  1.00  0.00     0.072 C 
HETATM   23  N   UNL     1       8.955  19.679  55.807  1.00  0.00    -0.280 N 
HETATM   24  H   UNL     1       9.402  18.922  56.313  1.00  0.00     0.189 HD
HETATM   25  N   UNL     1       8.843  19.563  54.481  1.00  0.00    -0.177 NA
HETATM   26  C   UNL     1       8.227  20.692  54.099  1.00  0.00     0.079 A 
HETATM   27  C   UNL     1       7.895  20.858  52.661  1.00  0.00     0.075 C 
ENDBRANCH   1  20
TORSDOF 5
ENDMDL
MODEL 4
REMARK VINA RESULT:      -7.8      1.705      2.734
REMARK  5 active torsions:
REMARK  status: ('A' for Active; 'I' for Inactive)
REMARK    1  A    between atoms: C_8  and  N_9 
REMARK       I    between atoms: N_9  and  C_10 
REMARK       I    between atoms: C_10  and  N_11 
REMARK    2  A    between atoms: N_11  and  C_12 
REMARK    3  A    between atoms: C_13  and  O_14 
REMARK    4  A    between atoms: O_14  and  C_15 
REMARK    5  A    between atoms: C_15  and  C_16 
ROOT
HETATM    1  N   UNL     1       5.871  26.683  51.063  1.00  0.00    -0.305 N 
HETATM    2  C   UNL     1       5.899  25.550  51.855  1.00  0.00     0.325 C 
HETATM    3  N   UNL     1       7.207  25.206  52.150  1.00  0.00    -0.306 N 
HETATM    4  O   UNL     1       4.916  24.935  52.246  1.00  0.00    -0.247 OA
HETATM    5  H   UNL     1       6.680  27.282  51.117  1.00  0.00     0.171 HD
HETATM    6  H   UNL     1       7.926  25.608  51.562  1.00  0.00     0.171 HD
ENDROOT
BRANCH   3   7
HETATM    7  C   UNL     1       7.656  24.193  53.026  1.00  0.00     0.072 A 
HETATM    8  C   UNL     1       7.825  24.540  54.380  1.00  0.00     0.096 A 
HETATM    9  C   UNL     1       8.221  23.591  55.326  1.00  0.00     0.042 A 
HETATM   10  C   UNL     1       8.484  22.287  54.915  1.00  0.00     0.045 A 
HETATM   11  C   UNL     1       8.337  21.947  53.573  1.00  0.00     0.118 A 
HETATM   12  F   UNL     1       8.584  20.688  53.189  1.00  0.00    -0.206 F 
HETATM   13  C   UNL     1       7.921  22.883  52.628  1.00  0.00     0.074 A 
BRANCH   8  14
HETATM   14  O   UNL     1       7.541  25.833  54.751  1.00  0.00    -0.340 OA
BRANCH  14  15
HETATM   15  C   UNL     1       7.130  25.915  56.129  1.00  0.00     0.293 C 
BRANCH  15  16
HETATM   16  C   UNL     1       5.631  26.157  56.207  1.00  0.00     0.408 C 
HETATM   17  F   UNL     1       5.345  27.196  57.024  1.00  0.00    -0.169 F 
HETATM   18  F   UNL     1       5.107  26.431  54.992  1.00  0.00    -0.169 F 
HETATM   19  F   UNL     1       4.994  25.067  56.690  1.00  0.00    -0.169 F 
ENDBRANCH  15  16
ENDBRANCH  14  15
ENDBRANCH   8  14
ENDBRANCH   3   7
BRANCH   1  20
HETATM   20  C   UNL     1       4.758  27.226  50.442  1.00  0.00     0.086 A 
HETATM   21  C   UNL     1       3.899  28.085  51.102  1.00  0.00     0.052 A 
HETATM   22  C   UNL     1       3.874  28.612  52.488  1.00  0.00     0.072 C 
HETATM   23  N   UNL     1       2.936  28.419  50.193  1.00  0.00    -0.280 N 
HETATM   24  H   UNL     1       2.132  29.023  50.323  1.00  0.00     0.189 HD
HETATM   25  N   UNL     1       3.117  27.872  48.989  1.00  0.00    -0.177 NA
HETATM   26  C   UNL     1       4.234  27.139  49.120  1.00  0.00     0.079 A 
HETATM   27  C   UNL     1       4.752  26.430  47.923  1.00  0.00     0.075 C 
ENDBRANCH   1  20
TORSDOF 5
ENDMDL
MODEL 5
REMARK VINA RESULT:      -7.6      3.046      4.419
REMARK  5 active torsions:
REMARK  status: ('A' for Active; 'I' for Inactive)
REMARK    1  A    between atoms: C_8  and  N_9 
REMARK       I    between atoms: N_9  and  C_10 
REMARK       I    between atoms: C_10  and  N_11 
REMARK    2  A    between atoms: N_11  and  C_12 
REMARK    3  A    between atoms: C_13  and  O_14 
REMARK    4  A    between atoms: O_14  and  C_15 
REMARK    5  A    between atoms: C_15  and  C_16 
ROOT
HETATM    1  N   UNL     1       7.325  27.549  56.661  1.00  0.00    -0.305 N 
HETATM    2  C   UNL     1       7.001  26.204  56.649  1.00  0.00     0.325 C 
HETATM    3  N   UNL     1       7.962  25.489  55.955  1.00  0.00    -0.306 N 
HETATM    4  O   UNL     1       6.014  25.709  57.175  1.00  0.00    -0.247 OA
HETATM    5  H   UNL     1       8.298  27.772  56.528  1.00  0.00     0.171 HD
HETATM    6  H   UNL     1       8.569  26.020  55.343  1.00  0.00     0.171 HD
ENDROOT
BRANCH   3   7
HETATM    7  C   UNL     1       8.064  24.086  55.820  1.00  0.00     0.072 A 
HETATM    8  C   UNL     1       8.011  23.559  54.515  1.00  0.00     0.096 A 
HETATM    9  C   UNL     1       8.150  22.189  54.283  1.00  0.00     0.042 A 
HETATM   10  C   UNL     1       8.311  21.327  55.364  1.00  0.00     0.045 A 
HETATM   11  C   UNL     1       8.344  21.845  56.656  1.00  0.00     0.118 A 
HETATM   12  F   UNL     1       8.508  21.008  57.689  1.00  0.00    -0.206 F 
HETATM   13  C   UNL     1       8.228  23.213  56.893  1.00  0.00     0.074 A 
BRANCH   8  14
HETATM   14  O   UNL     1       7.866  24.442  53.471  1.00  0.00    -0.340 OA
BRANCH  14  15
HETATM   15  C   UNL     1       6.631  24.231  52.760  1.00  0.00     0.293 C 
BRANCH  15  16
HETATM   16  C   UNL     1       5.616  25.289  53.163  1.00  0.00     0.408 C 
HETATM   17  F   UNL     1       4.953  24.928  54.285  1.00  0.00    -0.169 F 
HETATM   18  F   UNL     1       6.207  26.481  53.398  1.00  0.00    -0.169 F 
HETATM   19  F   UNL     1       4.700  25.472  52.186  1.00  0.00    -0.169 F 
ENDBRANCH  15  16
ENDBRANCH  14  15
ENDBRANCH   8  14
ENDBRANCH   3   7
BRANCH   1  20
HETATM   20  C   UNL     1       6.525  28.583  57.119  1.00  0.00     0.086 A 
HETATM   21  C   UNL     1       6.993  29.529  58.013  1.00  0.00     0.052 A 
HETATM   22  C   UNL     1       8.298  29.709  58.692  1.00  0.00     0.072 C 
HETATM   23  N   UNL     1       5.950  30.383  58.230  1.00  0.00    -0.280 N 
HETATM   24  H   UNL     1       5.919  31.195  58.837  1.00  0.00     0.189 HD
HETATM   25  N   UNL     1       4.853  30.087  57.528  1.00  0.00    -0.177 NA
HETATM   26  C   UNL     1       5.188  28.987  56.835  1.00  0.00     0.079 A 
HETATM   27  C   UNL     1       4.190  28.420  55.894  1.00  0.00     0.075 C 
ENDBRANCH   1  20
TORSDOF 5
ENDMDL
MODEL 6
REMARK VINA RESULT:      -7.5      4.463      6.177
REMARK  5 active torsions:
REMARK  status: ('A' for Active; 'I' for Inactive)
REMARK    1  A    between atoms: C_8  and  N_9 
REMARK       I    between atoms: N_9  and  C_10 
REMARK       I    between atoms: C_10  and  N_11 
REMARK    2  A    between atoms: N_11  and  C_12 
REMARK    3  A    between atoms: C_13  and  O_14 
REMARK    4  A    between atoms: O_14  and  C_15 
REMARK    5  A    between atoms: C_15  and  C_16 
ROOT
HETATM    1  N   UNL     1       8.157  28.999  57.739  1.00  0.00    -0.305 N 
HETATM    2  C   UNL     1       7.799  28.614  56.460  1.00  0.00     0.325 C 
HETATM    3  N   UNL     1       7.198  27.367  56.488  1.00  0.00    -0.306 N 
HETATM    4  O   UNL     1       7.978  29.273  55.446  1.00  0.00    -0.247 OA
HETATM    5  H   UNL     1       7.647  28.565  58.492  1.00  0.00     0.171 HD
HETATM    6  H   UNL     1       7.349  26.809  57.319  1.00  0.00     0.171 HD
ENDROOT
BRANCH   3   7
HETATM    7  C   UNL     1       6.584  26.680  55.417  1.00  0.00     0.072 A 
HETATM    8  C   UNL     1       7.070  25.394  55.113  1.00  0.00     0.096 A 
HETATM    9  C   UNL     1       6.492  24.623  54.101  1.00  0.00     0.042 A 
HETATM   10  C   UNL     1       5.439  25.151  53.359  1.00  0.00     0.045 A 
HETATM   11  C   UNL     1       4.971  26.430  53.645  1.00  0.00     0.118 A 
HETATM   12  F   UNL     1       3.952  26.926  52.931  1.00  0.00    -0.206 F 
HETATM   13  C   UNL     1       5.528  27.196  54.668  1.00  0.00     0.074 A 
BRANCH   8  14
HETATM   14  O   UNL     1       8.100  24.900  55.878  1.00  0.00    -0.340 OA
BRANCH  14  15
HETATM   15  C   UNL     1       7.656  23.853  56.761  1.00  0.00     0.293 C 
BRANCH  15  16
HETATM   16  C   UNL     1       8.231  22.519  56.310  1.00  0.00     0.408 C 
HETATM   17  F   UNL     1       7.343  21.833  55.556  1.00  0.00    -0.169 F 
HETATM   18  F   UNL     1       9.355  22.684  55.578  1.00  0.00    -0.169 F 
HETATM   19  F   UNL     1       8.547  21.749  57.376  1.00  0.00    -0.169 F 
ENDBRANCH  15  16
ENDBRANCH  14  15
ENDBRANCH   8  14
ENDBRANCH   3   7
BRANCH   1  20
HETATM   20  C   UNL     1       8.918  30.104  58.083  1.00  0.00     0.086 A 
HETATM   21  C   UNL     1       8.412  31.125  58.867  1.00  0.00     0.052 A 
HETATM   22  C   UNL     1       7.085  31.352  59.485  1.00  0.00     0.072 C 
HETATM   23  N   UNL     1       9.428  32.028  59.002  1.00  0.00    -0.280 N 
HETATM   24  H   UNL     1       9.421  32.910  59.502  1.00  0.00     0.189 HD
HETATM   25  N   UNL     1      10.560  31.662  58.397  1.00  0.00    -0.177 NA
HETATM   26  C   UNL     1      10.269  30.480  57.830  1.00  0.00     0.079 A 
HETATM   27  C   UNL     1      11.350  29.762  57.111  1.00  0.00     0.075 C 
ENDBRANCH   1  20
TORSDOF 5
ENDMDL
MODEL 7
REMARK VINA RESULT:      -7.5      2.533      6.014
REMARK  5 active torsions:
REMARK  status: ('A' for Active; 'I' for Inactive)
REMARK    1  A    between atoms: C_8  and  N_9 
REMARK       I    between atoms: N_9  and  C_10 
REMARK       I    between atoms: C_10  and  N_11 
REMARK    2  A    between atoms: N_11  and  C_12 
REMARK    3  A    between atoms: C_13  and  O_14 
REMARK    4  A    between atoms: O_14  and  C_15 
REMARK    5  A    between atoms: C_15  and  C_16 
ROOT
HETATM    1  N   UNL     1       8.196  23.439  53.708  1.00  0.00    -0.305 N 
HETATM    2  C   UNL     1       7.095  24.259  53.547  1.00  0.00     0.325 C 
HETATM    3  N   UNL     1       7.395  25.296  52.680  1.00  0.00    -0.306 N 
HETATM    4  O   UNL     1       6.008  24.099  54.083  1.00  0.00    -0.247 OA
HETATM    5  H   UNL     1       8.876  23.458  52.965  1.00  0.00     0.171 HD
HETATM    6  H   UNL     1       8.377  25.483  52.519  1.00  0.00     0.171 HD
ENDROOT
BRANCH   3   7
HETATM    7  C   UNL     1       6.514  26.270  52.162  1.00  0.00     0.072 A 
HETATM    8  C   UNL     1       6.541  27.546  52.758  1.00  0.00     0.096 A 
HETATM    9  C   UNL     1       5.738  28.585  52.280  1.00  0.00     0.042 A 
HETATM   10  C   UNL     1       4.872  28.343  51.217  1.00  0.00     0.045 A 
HETATM   11  C   UNL     1       4.830  27.078  50.640  1.00  0.00     0.118 A 
HETATM   12  F   UNL     1       3.999  26.858  49.612  1.00  0.00    -0.206 F 
HETATM   13  C   UNL     1       5.644  26.043  51.097  1.00  0.00     0.074 A 
BRANCH   8  14
HETATM   14  O   UNL     1       7.420  27.751  53.795  1.00  0.00    -0.340 OA
BRANCH  14  15
HETATM   15  C   UNL     1       6.753  28.258  54.967  1.00  0.00     0.293 C 
BRANCH  15  16
HETATM   16  C   UNL     1       6.799  27.220  56.077  1.00  0.00     0.408 C 
HETATM   17  F   UNL     1       5.690  26.447  56.070  1.00  0.00    -0.169 F 
HETATM   18  F   UNL     1       7.871  26.406  55.953  1.00  0.00    -0.169 F 
HETATM   19  F   UNL     1       6.877  27.816  57.288  1.00  0.00    -0.169 F 
ENDBRANCH  15  16
ENDBRANCH  14  15
ENDBRANCH   8  14
ENDBRANCH   3   7
BRANCH   1  20
HETATM   20  C   UNL     1       8.323  22.400  54.616  1.00  0.00     0.086 A 
HETATM   21  C   UNL     1       8.403  21.080  54.211  1.00  0.00     0.052 A 
HETATM   22  C   UNL     1       8.362  20.436  52.877  1.00  0.00     0.072 C 
HETATM   23  N   UNL     1       8.525  20.347  55.357  1.00  0.00    -0.280 N 
HETATM   24  H   UNL     1       8.597  19.340  55.452  1.00  0.00     0.189 HD
HETATM   25  N   UNL     1       8.561  21.084  56.469  1.00  0.00    -0.177 NA
HETATM   26  C   UNL     1       8.444  22.349  56.035  1.00  0.00     0.079 A 
HETATM   27  C   UNL     1       8.504  23.443  57.037  1.00  0.00     0.075 C 
ENDBRANCH   1  20
TORSDOF 5
ENDMDL
MODEL 8
REMARK VINA RESULT:      -7.5      2.139      4.880
REMARK  5 active torsions:
REMARK  status: ('A' for Active; 'I' for Inactive)
REMARK    1  A    between atoms: C_8  and  N_9 
REMARK       I    between atoms: N_9  and  C_10 
REMARK       I    between atoms: C_10  and  N_11 
REMARK    2  A    between atoms: N_11  and  C_12 
REMARK    3  A    between atoms: C_13  and  O_14 
REMARK    4  A    between atoms: O_14  and  C_15 
REMARK    5  A    between atoms: C_15  and  C_16 
ROOT
HETATM    1  N   UNL     1       5.656  26.347  50.282  1.00  0.00    -0.305 N 
HETATM    2  C   UNL     1       5.574  26.420  51.660  1.00  0.00     0.325 C 
HETATM    3  N   UNL     1       6.520  25.592  52.239  1.00  0.00    -0.306 N 
HETATM    4  O   UNL     1       4.786  27.115  52.287  1.00  0.00    -0.247 OA
HETATM    5  H   UNL     1       6.541  26.048  49.905  1.00  0.00     0.171 HD
HETATM    6  H   UNL     1       6.919  24.875  51.646  1.00  0.00     0.171 HD
ENDROOT
BRANCH   3   7
HETATM    7  C   UNL     1       6.842  25.475  53.609  1.00  0.00     0.072 A 
HETATM    8  C   UNL     1       7.072  24.178  54.108  1.00  0.00     0.096 A 
HETATM    9  C   UNL     1       7.442  23.971  55.440  1.00  0.00     0.042 A 
HETATM   10  C   UNL     1       7.552  25.064  56.295  1.00  0.00     0.045 A 
HETATM   11  C   UNL     1       7.307  26.344  55.808  1.00  0.00     0.118 A 
HETATM   12  F   UNL     1       7.424  27.390  56.636  1.00  0.00    -0.206 F 
HETATM   13  C   UNL     1       6.959  26.560  54.476  1.00  0.00     0.074 A 
BRANCH   8  14
HETATM   14  O   UNL     1       6.968  23.124  53.231  1.00  0.00    -0.340 OA
BRANCH  14  15
HETATM   15  C   UNL     1       8.209  22.402  53.114  1.00  0.00     0.293 C 
BRANCH  15  16
HETATM   16  C   UNL     1       7.989  20.939  53.462  1.00  0.00     0.408 C 
HETATM   17  F   UNL     1       9.147  20.244  53.410  1.00  0.00    -0.169 F 
HETATM   18  F   UNL     1       7.475  20.794  54.704  1.00  0.00    -0.169 F 
HETATM   19  F   UNL     1       7.126  20.364  52.594  1.00  0.00    -0.169 F 
ENDBRANCH  15  16
ENDBRANCH  14  15
ENDBRANCH   8  14
ENDBRANCH   3   7
BRANCH   1  20
HETATM   20  C   UNL     1       4.772  26.907  49.374  1.00  0.00     0.086 A 
HETATM   21  C   UNL     1       4.807  28.252  49.054  1.00  0.00     0.052 A 
HETATM   22  C   UNL     1       5.656  29.373  49.521  1.00  0.00     0.072 C 
HETATM   23  N   UNL     1       3.812  28.442  48.138  1.00  0.00    -0.280 N 
HETATM   24  H   UNL     1       3.532  29.305  47.685  1.00  0.00     0.189 HD
HETATM   25  N   UNL     1       3.154  27.326  47.816  1.00  0.00    -0.177 NA
HETATM   26  C   UNL     1       3.732  26.371  48.560  1.00  0.00     0.079 A 
HETATM   27  C   UNL     1       3.262  24.973  48.396  1.00  0.00     0.075 C 
ENDBRANCH   1  20
TORSDOF 5
ENDMDL
MODEL 9
REMARK VINA RESULT:      -7.4      4.099      5.539
REMARK  5 active torsions:
REMARK  status: ('A' for Active; 'I' for Inactive)
REMARK    1  A    between atoms: C_8  and  N_9 
REMARK       I    between atoms: N_9  and  C_10 
REMARK       I    between atoms: C_10  and  N_11 
REMARK    2  A    between atoms: N_11  and  C_12 
REMARK    3  A    between atoms: C_13  and  O_14 
REMARK    4  A    between atoms: O_14  and  C_15 
REMARK    5  A    between atoms: C_15  and  C_16 
ROOT
HETATM    1  N   UNL     1       7.980  28.827  56.363  1.00  0.00    -0.305 N 
HETATM    2  C   UNL     1       8.105  27.465  56.570  1.00  0.00     0.325 C 
HETATM    3  N   UNL     1       7.539  26.768  55.516  1.00  0.00    -0.306 N 
HETATM    4  O   UNL     1       8.639  26.942  57.538  1.00  0.00    -0.247 OA
HETATM    5  H   UNL     1       7.866  29.121  55.406  1.00  0.00     0.171 HD
HETATM    6  H   UNL     1       6.898  27.282  54.925  1.00  0.00     0.171 HD
ENDROOT
BRANCH   3   7
HETATM    7  C   UNL     1       7.567  25.375  55.289  1.00  0.00     0.072 A 
HETATM    8  C   UNL     1       7.407  24.936  53.960  1.00  0.00     0.096 A 
HETATM    9  C   UNL     1       7.469  23.578  53.635  1.00  0.00     0.042 A 
HETATM   10  C   UNL     1       7.659  22.642  54.648  1.00  0.00     0.045 A 
HETATM   11  C   UNL     1       7.798  23.074  55.964  1.00  0.00     0.118 A 
HETATM   12  F   UNL     1       7.989  22.166  56.930  1.00  0.00    -0.206 F 
HETATM   13  C   UNL     1       7.759  24.427  56.292  1.00  0.00     0.074 A 
BRANCH   8  14
HETATM   14  O   UNL     1       7.236  25.890  52.985  1.00  0.00    -0.340 OA
BRANCH  14  15
HETATM   15  C   UNL     1       6.692  25.326  51.776  1.00  0.00     0.293 C 
BRANCH  15  16
HETATM   16  C   UNL     1       5.191  25.565  51.727  1.00  0.00     0.408 C 
HETATM   17  F   UNL     1       4.517  24.574  52.353  1.00  0.00    -0.169 F 
HETATM   18  F   UNL     1       4.853  26.733  52.317  1.00  0.00    -0.169 F 
HETATM   19  F   UNL     1       4.755  25.612  50.448  1.00  0.00    -0.169 F 
ENDBRANCH  15  16
ENDBRANCH  14  15
ENDBRANCH   8  14
ENDBRANCH   3   7
BRANCH   1  20
HETATM   20  C   UNL     1       8.283  29.828  57.271  1.00  0.00     0.086 A 
HETATM   21  C   UNL     1       9.587  30.189  57.555  1.00  0.00     0.052 A 
HETATM   22  C   UNL     1      10.895  29.685  57.073  1.00  0.00     0.072 C 
HETATM   23  N   UNL     1       9.503  31.196  58.473  1.00  0.00    -0.280 N 
HETATM   24  H   UNL     1      10.259  31.701  58.922  1.00  0.00     0.189 HD
HETATM   25  N   UNL     1       8.251  31.539  58.786  1.00  0.00    -0.177 NA
HETATM   26  C   UNL     1       7.487  30.714  58.054  1.00  0.00     0.079 A 
HETATM   27  C   UNL     1       6.013  30.872  58.128  1.00  0.00     0.075 C 
ENDBRANCH   1  20
TORSDOF 5
ENDMDL
MODEL 10
REMARK VINA RESULT:      -7.4      7.050     10.177
REMARK  5 active torsions:
REMARK  status: ('A' for Active; 'I' for Inactive)
REMARK    1  A    between atoms: C_8  and  N_9 
REMARK       I    between atoms: N_9  and  C_10 
REMARK       I    between atoms: C_10  and  N_11 
REMARK    2  A    between atoms: N_11  and  C_12 
REMARK    3  A    between atoms: C_13  and  O_14 
REMARK    4  A    between atoms: O_14  and  C_15 
REMARK    5  A    between atoms: C_15  and  C_16 
ROOT
HETATM    1  N   UNL     1       6.164  30.304  58.330  1.00  0.00    -0.305 N 
HETATM    2  C   UNL     1       6.458  31.502  58.956  1.00  0.00     0.325 C 
HETATM    3  N   UNL     1       5.585  31.716  60.010  1.00  0.00    -0.306 N 
HETATM    4  O   UNL     1       7.358  32.266  58.637  1.00  0.00    -0.247 OA
HETATM    5  H   UNL     1       5.672  29.622  58.885  1.00  0.00     0.171 HD
HETATM    6  H   UNL     1       4.731  31.172  60.009  1.00  0.00     0.171 HD
ENDROOT
BRANCH   3   7
HETATM    7  C   UNL     1       5.626  32.752  60.968  1.00  0.00     0.072 A 
HETATM    8  C   UNL     1       6.347  32.506  62.153  1.00  0.00     0.096 A 
HETATM    9  C   UNL     1       6.481  33.491  63.135  1.00  0.00     0.042 A 
HETATM   10  C   UNL     1       5.863  34.724  62.953  1.00  0.00     0.045 A 
HETATM   11  C   UNL     1       5.134  34.962  61.791  1.00  0.00     0.118 A 
HETATM   12  F   UNL     1       4.549  36.156  61.621  1.00  0.00    -0.206 F 
HETATM   13  C   UNL     1       5.014  33.993  60.797  1.00  0.00     0.074 A 
BRANCH   8  14
HETATM   14  O   UNL     1       6.957  31.282  62.290  1.00  0.00    -0.340 OA
BRANCH  14  15
HETATM   15  C   UNL     1       8.315  31.410  62.751  1.00  0.00     0.293 C 
BRANCH  15  16
HETATM   16  C   UNL     1       9.269  30.857  61.705  1.00  0.00     0.408 C 
HETATM   17  F   UNL     1      10.012  31.841  61.150  1.00  0.00    -0.169 F 
HETATM   18  F   UNL     1      10.117  29.948  62.235  1.00  0.00    -0.169 F 
HETATM   19  F   UNL     1       8.587  30.247  60.709  1.00  0.00    -0.169 F 
ENDBRANCH  15  16
ENDBRANCH  14  15
ENDBRANCH   8  14
ENDBRANCH   3   7
BRANCH   1  20
HETATM   20  C   UNL     1       6.716  29.837  57.149  1.00  0.00     0.086 A 
HETATM   21  C   UNL     1       5.973  29.724  55.988  1.00  0.00     0.052 A 
HETATM   22  C   UNL     1       4.550  30.000  55.677  1.00  0.00     0.072 C 
HETATM   23  N   UNL     1       6.832  29.244  55.041  1.00  0.00    -0.280 N 
HETATM   24  H   UNL     1       6.637  29.024  54.071  1.00  0.00     0.189 HD
HETATM   25  N   UNL     1       8.079  29.065  55.484  1.00  0.00    -0.177 NA
HETATM   26  C   UNL     1       8.030  29.429  56.775  1.00  0.00     0.079 A 
HETATM   27  C   UNL     1       9.289  29.400  57.560  1.00  0.00     0.075 C 
ENDBRANCH   1  20
TORSDOF 5
ENDMDL
