MODEL 1
REMARK VINA RESULT:     -11.7      0.000      0.000
REMARK  3 active torsions:
REMARK  status: ('A' for Active; 'I' for Inactive)
REMARK    1  A    between atoms: C_4  and  N_5 
REMARK    2  A    between atoms: N_5  and  C_6 
REMARK    3  A    between atoms: C_13  and  C_14 
ROOT
HETATM    1  C   UNL     1       7.495  28.031  56.738  1.00  0.00     0.741 A 
HETATM    2  N   UNL     1       7.057  28.789  57.758  1.00  0.00    -0.066 NA
HETATM    3  C   UNL     1       7.870  29.747  58.253  1.00  0.00     0.069 A 
HETATM    4  C   UNL     1       9.123  29.979  57.738  1.00  0.00     0.053 A 
HETATM    5  C   UNL     1       9.993  31.044  58.261  1.00  0.00     0.163 C 
HETATM    6  O   UNL     1      11.096  31.231  57.757  1.00  0.00    -0.292 OA
HETATM    7  C   UNL     1       9.448  31.923  59.366  1.00  0.00     0.093 C 
HETATM    8  C   UNL     1       8.436  31.169  60.236  1.00  0.00     0.031 C 
HETATM    9  C   UNL     1       7.311  30.589  59.366  1.00  0.00     0.070 C 
HETATM   10  C   UNL     1       9.506  29.163  56.702  1.00  0.00     0.153 A 
HETATM   11  N   UNL     1       8.715  28.190  56.191  1.00  0.00    -0.073 NA
ENDROOT
BRANCH   1  12
HETATM   12  N   UNL     1       6.709  27.051  56.175  1.00  0.00    -0.015 N 
HETATM   13  H   UNL     1       5.731  27.144  56.369  1.00  0.00     0.203 HD
BRANCH  12  14
HETATM   14  C   UNL     1       7.034  25.907  55.475  1.00  0.00     0.742 A 
HETATM   15  N   UNL     1       7.141  26.059  54.146  1.00  0.00    -0.066 NA
HETATM   16  C   UNL     1       7.449  24.970  53.405  1.00  0.00     0.062 A 
HETATM   17  C   UNL     1       7.544  25.201  51.925  1.00  0.00     0.072 C 
HETATM   18  C   UNL     1       7.662  23.707  53.969  1.00  0.00     0.018 A 
HETATM   19  C   UNL     1       7.531  23.662  55.358  1.00  0.00     0.088 A 
HETATM   20  C   UNL     1       7.988  22.526  53.256  1.00  0.00     0.016 A 
HETATM   21  N   UNL     1       7.224  24.735  56.091  1.00  0.00    -0.062 NA
HETATM   22  C   UNL     1       7.727  22.449  56.008  1.00  0.00     0.033 A 
HETATM   23  C   UNL     1       8.048  21.282  55.311  1.00  0.00     0.002 A 
HETATM   24  C   UNL     1       8.179  21.320  53.929  1.00  0.00     0.001 A 
ENDBRANCH  12  14
ENDBRANCH   1  12
BRANCH   8  25
HETATM   25  C   UNL     1       7.890  32.043  61.350  1.00  0.00    -0.053 A 
HETATM   26  C   UNL     1       6.809  32.915  61.144  1.00  0.00     0.007 A 
HETATM   27  C   UNL     1       6.316  33.699  62.189  1.00  0.00     0.001 A 
HETATM   28  C   UNL     1       6.896  33.626  63.452  1.00  0.00     0.000 A 
HETATM   29  C   UNL     1       7.972  32.769  63.672  1.00  0.00     0.001 A 
HETATM   30  C   UNL     1       8.467  31.983  62.629  1.00  0.00     0.007 A 
ENDBRANCH   8  25
TORSDOF 3
ENDMDL
MODEL 2
REMARK VINA RESULT:     -11.5      2.360      9.621
REMARK  3 active torsions:
REMARK  status: ('A' for Active; 'I' for Inactive)
REMARK    1  A    between atoms: C_4  and  N_5 
REMARK    2  A    between atoms: N_5  and  C_6 
REMARK    3  A    between atoms: C_13  and  C_14 
ROOT
HETATM    1  C   UNL     1       6.144  28.298  55.332  1.00  0.00     0.741 A 
HETATM    2  N   UNL     1       6.664  27.082  55.570  1.00  0.00    -0.066 NA
HETATM    3  C   UNL     1       6.787  26.214  54.543  1.00  0.00     0.069 A 
HETATM    4  C   UNL     1       6.411  26.542  53.262  1.00  0.00     0.053 A 
HETATM    5  C   UNL     1       6.576  25.604  52.140  1.00  0.00     0.163 C 
HETATM    6  O   UNL     1       6.246  25.944  51.009  1.00  0.00    -0.292 OA
HETATM    7  C   UNL     1       7.223  24.266  52.427  1.00  0.00     0.093 C 
HETATM    8  C   UNL     1       6.956  23.809  53.865  1.00  0.00     0.031 C 
HETATM    9  C   UNL     1       7.412  24.885  54.862  1.00  0.00     0.070 C 
HETATM   10  C   UNL     1       5.883  27.798  53.095  1.00  0.00     0.153 A 
HETATM   11  N   UNL     1       5.740  28.685  54.107  1.00  0.00    -0.073 NA
ENDROOT
BRANCH   1  12
HETATM   12  N   UNL     1       6.008  29.236  56.331  1.00  0.00    -0.015 N 
HETATM   13  H   UNL     1       5.082  29.607  56.427  1.00  0.00     0.203 HD
BRANCH  12  14
HETATM   14  C   UNL     1       6.936  29.831  57.160  1.00  0.00     0.742 A 
HETATM   15  N   UNL     1       8.220  29.612  56.836  1.00  0.00    -0.066 NA
HETATM   16  C   UNL     1       9.176  30.164  57.618  1.00  0.00     0.062 A 
HETATM   17  C   UNL     1      10.591  29.874  57.210  1.00  0.00     0.072 C 
HETATM   18  C   UNL     1       8.878  30.950  58.737  1.00  0.00     0.018 A 
HETATM   19  C   UNL     1       7.513  31.118  58.980  1.00  0.00     0.088 A 
HETATM   20  C   UNL     1       9.824  31.558  59.598  1.00  0.00     0.016 A 
HETATM   21  N   UNL     1       6.568  30.572  58.212  1.00  0.00    -0.062 NA
HETATM   22  C   UNL     1       7.120  31.886  60.070  1.00  0.00     0.033 A 
HETATM   23  C   UNL     1       8.049  32.488  60.922  1.00  0.00     0.002 A 
HETATM   24  C   UNL     1       9.407  32.324  60.686  1.00  0.00     0.001 A 
ENDBRANCH  12  14
ENDBRANCH   1  12
BRANCH   8  25
HETATM   25  C   UNL     1       7.597  22.464  54.158  1.00  0.00    -0.053 A 
HETATM   26  C   UNL     1       7.739  21.982  55.469  1.00  0.00     0.007 A 
HETATM   27  C   UNL     1       8.320  20.736  55.711  1.00  0.00     0.001 A 
HETATM   28  C   UNL     1       8.772  19.957  54.650  1.00  0.00     0.000 A 
HETATM   29  C   UNL     1       8.643  20.423  53.344  1.00  0.00     0.001 A 
HETATM   30  C   UNL     1       8.060  21.669  53.098  1.00  0.00     0.007 A 
ENDBRANCH   8  25
TORSDOF 3
ENDMDL
MODEL 3
REMARK VINA RESULT:     -11.5      2.171      9.899
REMARK  3 active torsions:
REMARK  status: ('A' for Active; 'I' for Inactive)
REMARK    1  A    between atoms: C_4  and  N_5 
REMARK    2  A    between atoms: N_5  and  C_6 
REMARK    3  A    between atoms: C_13  and  C_14 
ROOT
HETATM    1  C   UNL     1       7.809  28.352  57.054  1.00  0.00     0.741 A 
HETATM    2  N   UNL     1       8.223  27.106  56.771  1.00  0.00    -0.066 NA
HETATM    3  C   UNL     1       7.529  26.378  55.869  1.00  0.00     0.069 A 
HETATM    4  C   UNL     1       6.424  26.879  55.222  1.00  0.00     0.053 A 
HETATM    5  C   UNL     1       5.690  26.095  54.218  1.00  0.00     0.163 C 
HETATM    6  O   UNL     1       4.721  26.588  53.649  1.00  0.00    -0.292 OA
HETATM    7  C   UNL     1       6.216  24.718  53.873  1.00  0.00     0.093 C 
HETATM    8  C   UNL     1       6.943  24.080  55.063  1.00  0.00     0.031 C 
HETATM    9  C   UNL     1       8.062  25.006  55.564  1.00  0.00     0.070 C 
HETATM   10  C   UNL     1       6.057  28.157  55.566  1.00  0.00     0.153 A 
HETATM   11  N   UNL     1       6.728  28.905  56.472  1.00  0.00    -0.073 NA
ENDROOT
BRANCH   1  12
HETATM   12  N   UNL     1       8.483  29.153  57.949  1.00  0.00    -0.015 N 
HETATM   13  H   UNL     1       9.465  28.967  58.012  1.00  0.00     0.203 HD
BRANCH  12  14
HETATM   14  C   UNL     1       8.035  30.098  58.849  1.00  0.00     0.742 A 
HETATM   15  N   UNL     1       7.065  30.908  58.396  1.00  0.00    -0.066 NA
HETATM   16  C   UNL     1       6.591  31.860  59.231  1.00  0.00     0.062 A 
HETATM   17  C   UNL     1       5.516  32.740  58.663  1.00  0.00     0.072 C 
HETATM   18  C   UNL     1       7.067  32.027  60.536  1.00  0.00     0.018 A 
HETATM   19  C   UNL     1       8.070  31.130  60.907  1.00  0.00     0.088 A 
HETATM   20  C   UNL     1       6.618  33.000  61.464  1.00  0.00     0.016 A 
HETATM   21  N   UNL     1       8.541  30.191  60.083  1.00  0.00    -0.062 NA
HETATM   22  C   UNL     1       8.603  31.217  62.187  1.00  0.00     0.033 A 
HETATM   23  C   UNL     1       8.165  32.174  63.105  1.00  0.00     0.002 A 
HETATM   24  C   UNL     1       7.168  33.070  62.743  1.00  0.00     0.001 A 
ENDBRANCH  12  14
ENDBRANCH   1  12
BRANCH   8  25
HETATM   25  C   UNL     1       7.469  22.697  54.726  1.00  0.00    -0.053 A 
HETATM   26  C   UNL     1       7.690  21.727  55.717  1.00  0.00     0.007 A 
HETATM   27  C   UNL     1       8.162  20.458  55.381  1.00  0.00     0.001 A 
HETATM   28  C   UNL     1       8.422  20.138  54.051  1.00  0.00     0.000 A 
HETATM   29  C   UNL     1       8.213  21.090  53.056  1.00  0.00     0.001 A 
HETATM   30  C   UNL     1       7.740  22.361  53.390  1.00  0.00     0.007 A 
ENDBRANCH   8  25
TORSDOF 3
ENDMDL
MODEL 4
REMARK VINA RESULT:     -11.1      6.075      9.995
REMARK  3 active torsions:
REMARK  status: ('A' for Active; 'I' for Inactive)
REMARK    1  A    between atoms: C_4  and  N_5 
REMARK    2  A    between atoms: N_5  and  C_6 
REMARK    3  A    between atoms: C_13  and  C_14 
ROOT
HETATM    1  C   UNL     1       5.416  27.424  51.611  1.00  0.00     0.741 A 
HETATM    2  N   UNL     1       5.882  26.169  51.720  1.00  0.00    -0.066 NA
HETATM    3  C   UNL     1       6.110  25.663  52.951  1.00  0.00     0.069 A 
HETATM    4  C   UNL     1       5.866  26.388  54.094  1.00  0.00     0.053 A 
HETATM    5  C   UNL     1       6.087  25.823  55.434  1.00  0.00     0.163 C 
HETATM    6  O   UNL     1       5.836  26.497  56.428  1.00  0.00    -0.292 OA
HETATM    7  C   UNL     1       6.551  24.385  55.527  1.00  0.00     0.093 C 
HETATM    8  C   UNL     1       7.383  23.982  54.304  1.00  0.00     0.031 C 
HETATM    9  C   UNL     1       6.593  24.241  53.012  1.00  0.00     0.070 C 
HETATM   10  C   UNL     1       5.397  27.665  53.906  1.00  0.00     0.153 A 
HETATM   11  N   UNL     1       5.167  28.199  52.683  1.00  0.00    -0.073 NA
ENDROOT
BRANCH   1  12
HETATM   12  N   UNL     1       5.145  27.992  50.386  1.00  0.00    -0.015 N 
HETATM   13  H   UNL     1       5.761  28.740  50.132  1.00  0.00     0.203 HD
BRANCH  12  14
HETATM   14  C   UNL     1       4.119  27.784  49.487  1.00  0.00     0.742 A 
HETATM   15  N   UNL     1       4.005  26.529  49.026  1.00  0.00    -0.066 NA
HETATM   16  C   UNL     1       3.022  26.266  48.135  1.00  0.00     0.062 A 
HETATM   17  C   UNL     1       2.952  24.848  47.649  1.00  0.00     0.072 C 
HETATM   18  C   UNL     1       2.127  27.244  47.686  1.00  0.00     0.018 A 
HETATM   19  C   UNL     1       2.332  28.513  48.232  1.00  0.00     0.088 A 
HETATM   20  C   UNL     1       1.076  27.041  46.757  1.00  0.00     0.016 A 
HETATM   21  N   UNL     1       3.304  28.774  49.109  1.00  0.00    -0.062 NA
HETATM   22  C   UNL     1       1.490  29.549  47.846  1.00  0.00     0.033 A 
HETATM   23  C   UNL     1       0.452  29.354  46.931  1.00  0.00     0.002 A 
HETATM   24  C   UNL     1       0.244  28.095  46.384  1.00  0.00     0.001 A 
ENDBRANCH  12  14
ENDBRANCH   1  12
BRANCH   8  25
HETATM   25  C   UNL     1       7.857  22.543  54.393  1.00  0.00    -0.053 A 
HETATM   26  C   UNL     1       7.985  21.882  55.625  1.00  0.00     0.007 A 
HETATM   27  C   UNL     1       8.411  20.553  55.680  1.00  0.00     0.001 A 
HETATM   28  C   UNL     1       8.716  19.868  54.507  1.00  0.00     0.000 A 
HETATM   29  C   UNL     1       8.598  20.511  53.277  1.00  0.00     0.001 A 
HETATM   30  C   UNL     1       8.172  21.840  53.220  1.00  0.00     0.007 A 
ENDBRANCH   8  25
TORSDOF 3
ENDMDL
MODEL 5
REMARK VINA RESULT:     -11.1      1.000      2.105
REMARK  3 active torsions:
REMARK  status: ('A' for Active; 'I' for Inactive)
REMARK    1  A    between atoms: C_4  and  N_5 
REMARK    2  A    between atoms: N_5  and  C_6 
REMARK    3  A    between atoms: C_13  and  C_14 
ROOT
HETATM    1  C   UNL     1       7.642  28.818  56.877  1.00  0.00     0.741 A 
HETATM    2  N   UNL     1       7.095  29.377  57.969  1.00  0.00    -0.066 NA
HETATM    3  C   UNL     1       7.807  30.294  58.658  1.00  0.00     0.069 A 
HETATM    4  C   UNL     1       9.068  30.681  58.268  1.00  0.00     0.053 A 
HETATM    5  C   UNL     1       9.829  31.703  59.004  1.00  0.00     0.163 C 
HETATM    6  O   UNL     1      10.942  32.034  58.610  1.00  0.00    -0.292 OA
HETATM    7  C   UNL     1       9.162  32.362  60.192  1.00  0.00     0.093 C 
HETATM    8  C   UNL     1       8.159  31.420  60.868  1.00  0.00     0.031 C 
HETATM    9  C   UNL     1       7.129  30.915  59.847  1.00  0.00     0.070 C 
HETATM   10  C   UNL     1       9.565  30.063  57.147  1.00  0.00     0.153 A 
HETATM   11  N   UNL     1       8.876  29.135  56.443  1.00  0.00    -0.073 NA
ENDROOT
BRANCH   1  12
HETATM   12  N   UNL     1       6.961  27.891  56.120  1.00  0.00    -0.015 N 
HETATM   13  H   UNL     1       6.028  28.163  55.874  1.00  0.00     0.203 HD
BRANCH  12  14
HETATM   14  C   UNL     1       7.292  26.612  55.722  1.00  0.00     0.742 A 
HETATM   15  N   UNL     1       7.736  25.804  56.698  1.00  0.00    -0.066 NA
HETATM   16  C   UNL     1       8.084  24.540  56.366  1.00  0.00     0.062 A 
HETATM   17  C   UNL     1       8.583  23.689  57.497  1.00  0.00     0.072 C 
HETATM   18  C   UNL     1       7.995  24.049  55.059  1.00  0.00     0.018 A 
HETATM   19  C   UNL     1       7.516  24.970  54.124  1.00  0.00     0.088 A 
HETATM   20  C   UNL     1       8.340  22.740  54.640  1.00  0.00     0.016 A 
HETATM   21  N   UNL     1       7.175  26.219  54.449  1.00  0.00    -0.062 NA
HETATM   22  C   UNL     1       7.390  24.571  52.799  1.00  0.00     0.033 A 
HETATM   23  C   UNL     1       7.730  23.282  52.381  1.00  0.00     0.002 A 
HETATM   24  C   UNL     1       8.207  22.362  53.304  1.00  0.00     0.001 A 
ENDBRANCH  12  14
ENDBRANCH   1  12
BRANCH   8  25
HETATM   25  C   UNL     1       7.490  32.073  62.064  1.00  0.00    -0.053 A 
HETATM   26  C   UNL     1       8.224  32.487  63.188  1.00  0.00     0.007 A 
HETATM   27  C   UNL     1       7.587  33.097  64.269  1.00  0.00     0.001 A 
HETATM   28  C   UNL     1       6.210  33.300  64.247  1.00  0.00     0.000 A 
HETATM   29  C   UNL     1       5.468  32.891  63.142  1.00  0.00     0.001 A 
HETATM   30  C   UNL     1       6.102  32.281  62.058  1.00  0.00     0.007 A 
ENDBRANCH   8  25
TORSDOF 3
ENDMDL
MODEL 6
REMARK VINA RESULT:     -11.1      2.254      9.946
REMARK  3 active torsions:
REMARK  status: ('A' for Active; 'I' for Inactive)
REMARK    1  A    between atoms: C_4  and  N_5 
REMARK    2  A    between atoms: N_5  and  C_6 
REMARK    3  A    between atoms: C_13  and  C_14 
ROOT
HETATM    1  C   UNL     1       7.797  28.408  56.672  1.00  0.00     0.741 A 
HETATM    2  N   UNL     1       8.216  27.154  56.437  1.00  0.00    -0.066 NA
HETATM    3  C   UNL     1       7.513  26.382  55.580  1.00  0.00     0.069 A 
HETATM    4  C   UNL     1       6.391  26.846  54.933  1.00  0.00     0.053 A 
HETATM    5  C   UNL     1       5.646  26.012  53.978  1.00  0.00     0.163 C 
HETATM    6  O   UNL     1       4.663  26.472  53.406  1.00  0.00    -0.292 OA
HETATM    7  C   UNL     1       6.178  24.626  53.683  1.00  0.00     0.093 C 
HETATM    8  C   UNL     1       6.932  24.047  54.886  1.00  0.00     0.031 C 
HETATM    9  C   UNL     1       8.051  25.002  55.325  1.00  0.00     0.070 C 
HETATM   10  C   UNL     1       6.019  28.135  55.227  1.00  0.00     0.153 A 
HETATM   11  N   UNL     1       6.701  28.927  56.088  1.00  0.00    -0.073 NA
ENDROOT
BRANCH   1  12
HETATM   12  N   UNL     1       8.479  29.252  57.520  1.00  0.00    -0.015 N 
HETATM   13  H   UNL     1       9.477  29.181  57.459  1.00  0.00     0.203 HD
BRANCH  12  14
HETATM   14  C   UNL     1       8.040  30.109  58.508  1.00  0.00     0.742 A 
HETATM   15  N   UNL     1       8.699  30.025  59.675  1.00  0.00    -0.066 NA
HETATM   16  C   UNL     1       8.308  30.835  60.685  1.00  0.00     0.062 A 
HETATM   17  C   UNL     1       9.076  30.688  61.966  1.00  0.00     0.072 C 
HETATM   18  C   UNL     1       7.256  31.749  60.558  1.00  0.00     0.018 A 
HETATM   19  C   UNL     1       6.643  31.757  59.303  1.00  0.00     0.088 A 
HETATM   20  C   UNL     1       6.793  32.626  61.570  1.00  0.00     0.016 A 
HETATM   21  N   UNL     1       7.026  30.957  58.305  1.00  0.00    -0.062 NA
HETATM   22  C   UNL     1       5.589  32.635  59.081  1.00  0.00     0.033 A 
HETATM   23  C   UNL     1       5.129  33.502  60.075  1.00  0.00     0.002 A 
HETATM   24  C   UNL     1       5.733  33.498  61.326  1.00  0.00     0.001 A 
ENDBRANCH  12  14
ENDBRANCH   1  12
BRANCH   8  25
HETATM   25  C   UNL     1       7.464  22.654  54.600  1.00  0.00    -0.053 A 
HETATM   26  C   UNL     1       7.709  22.210  53.291  1.00  0.00     0.007 A 
HETATM   27  C   UNL     1       8.210  20.929  53.055  1.00  0.00     0.001 A 
HETATM   28  C   UNL     1       8.471  20.072  54.121  1.00  0.00     0.000 A 
HETATM   29  C   UNL     1       8.229  20.496  55.425  1.00  0.00     0.001 A 
HETATM   30  C   UNL     1       7.728  21.778  55.664  1.00  0.00     0.007 A 
ENDBRANCH   8  25
TORSDOF 3
ENDMDL
MODEL 7
REMARK VINA RESULT:     -10.9      5.322      9.428
REMARK  3 active torsions:
REMARK  status: ('A' for Active; 'I' for Inactive)
REMARK    1  A    between atoms: C_4  and  N_5 
REMARK    2  A    between atoms: N_5  and  C_6 
REMARK    3  A    between atoms: C_13  and  C_14 
ROOT
HETATM    1  C   UNL     1       5.842  27.946  52.642  1.00  0.00     0.741 A 
HETATM    2  N   UNL     1       6.178  26.650  52.536  1.00  0.00    -0.066 NA
HETATM    3  C   UNL     1       6.570  25.986  53.644  1.00  0.00     0.069 A 
HETATM    4  C   UNL     1       6.623  26.592  54.878  1.00  0.00     0.053 A 
HETATM    5  C   UNL     1       7.021  25.857  56.088  1.00  0.00     0.163 C 
HETATM    6  O   UNL     1       7.034  26.431  57.172  1.00  0.00    -0.292 OA
HETATM    7  C   UNL     1       7.332  24.382  55.949  1.00  0.00     0.093 C 
HETATM    8  C   UNL     1       7.876  24.051  54.555  1.00  0.00     0.031 C 
HETATM    9  C   UNL     1       6.896  24.528  53.473  1.00  0.00     0.070 C 
HETATM   10  C   UNL     1       6.271  27.919  54.909  1.00  0.00     0.153 A 
HETATM   11  N   UNL     1       5.882  28.611  53.812  1.00  0.00    -0.073 NA
ENDROOT
BRANCH   1  12
HETATM   12  N   UNL     1       5.416  28.675  51.554  1.00  0.00    -0.015 N 
HETATM   13  H   UNL     1       5.862  29.566  51.453  1.00  0.00     0.203 HD
BRANCH  12  14
HETATM   14  C   UNL     1       4.415  28.444  50.632  1.00  0.00     0.742 A 
HETATM   15  N   UNL     1       3.351  29.257  50.725  1.00  0.00    -0.066 NA
HETATM   16  C   UNL     1       2.334  29.073  49.853  1.00  0.00     0.062 A 
HETATM   17  C   UNL     1       1.169  30.005  50.013  1.00  0.00     0.072 C 
HETATM   18  C   UNL     1       2.353  28.081  48.866  1.00  0.00     0.018 A 
HETATM   19  C   UNL     1       3.508  27.296  48.855  1.00  0.00     0.088 A 
HETATM   20  C   UNL     1       1.327  27.832  47.921  1.00  0.00     0.016 A 
HETATM   21  N   UNL     1       4.512  27.474  49.717  1.00  0.00    -0.062 NA
HETATM   22  C   UNL     1       3.618  26.285  47.908  1.00  0.00     0.033 A 
HETATM   23  C   UNL     1       2.610  26.036  46.974  1.00  0.00     0.002 A 
HETATM   24  C   UNL     1       1.458  26.812  46.980  1.00  0.00     0.001 A 
ENDBRANCH  12  14
ENDBRANCH   1  12
BRANCH   8  25
HETATM   25  C   UNL     1       8.195  22.574  54.410  1.00  0.00    -0.053 A 
HETATM   26  C   UNL     1       8.597  21.793  55.506  1.00  0.00     0.007 A 
HETATM   27  C   UNL     1       8.873  20.434  55.349  1.00  0.00     0.001 A 
HETATM   28  C   UNL     1       8.754  19.836  54.098  1.00  0.00     0.000 A 
HETATM   29  C   UNL     1       8.361  20.597  53.000  1.00  0.00     0.001 A 
HETATM   30  C   UNL     1       8.084  21.958  53.154  1.00  0.00     0.007 A 
ENDBRANCH   8  25
TORSDOF 3
ENDMDL
MODEL 8
REMARK VINA RESULT:     -10.5      2.297      3.478
REMARK  3 active torsions:
REMARK  status: ('A' for Active; 'I' for Inactive)
REMARK    1  A    between atoms: C_4  and  N_5 
REMARK    2  A    between atoms: N_5  and  C_6 
REMARK    3  A    between atoms: C_13  and  C_14 
ROOT
HETATM    1  C   UNL     1       6.871  30.084  56.469  1.00  0.00     0.741 A 
HETATM    2  N   UNL     1       7.241  30.431  57.713  1.00  0.00    -0.066 NA
HETATM    3  C   UNL     1       6.395  31.172  58.462  1.00  0.00     0.069 A 
HETATM    4  C   UNL     1       5.164  31.569  57.994  1.00  0.00     0.053 A 
HETATM    5  C   UNL     1       4.234  32.350  58.823  1.00  0.00     0.163 C 
HETATM    6  O   UNL     1       3.137  32.666  58.375  1.00  0.00    -0.292 OA
HETATM    7  C   UNL     1       4.651  32.671  60.243  1.00  0.00     0.093 C 
HETATM    8  C   UNL     1       6.175  32.779  60.370  1.00  0.00     0.031 C 
HETATM    9  C   UNL     1       6.846  31.495  59.859  1.00  0.00     0.070 C 
HETATM   10  C   UNL     1       4.857  31.183  56.713  1.00  0.00     0.153 A 
HETATM   11  N   UNL     1       5.688  30.448  55.938  1.00  0.00    -0.073 NA
ENDROOT
BRANCH   1  12
HETATM   12  N   UNL     1       7.678  29.314  55.662  1.00  0.00    -0.015 N 
HETATM   13  H   UNL     1       8.395  29.827  55.185  1.00  0.00     0.203 HD
BRANCH  12  14
HETATM   14  C   UNL     1       7.620  27.980  55.313  1.00  0.00     0.742 A 
HETATM   15  N   UNL     1       7.518  27.123  56.341  1.00  0.00    -0.066 NA
HETATM   16  C   UNL     1       7.465  25.800  56.060  1.00  0.00     0.062 A 
HETATM   17  C   UNL     1       7.363  24.891  57.251  1.00  0.00     0.072 C 
HETATM   18  C   UNL     1       7.507  25.301  54.754  1.00  0.00     0.018 A 
HETATM   19  C   UNL     1       7.608  26.279  53.762  1.00  0.00     0.088 A 
HETATM   20  C   UNL     1       7.455  23.933  54.387  1.00  0.00     0.016 A 
HETATM   21  N   UNL     1       7.663  27.584  54.037  1.00  0.00    -0.062 NA
HETATM   22  C   UNL     1       7.654  25.878  52.433  1.00  0.00     0.033 A 
HETATM   23  C   UNL     1       7.603  24.531  52.066  1.00  0.00     0.002 A 
HETATM   24  C   UNL     1       7.504  23.554  53.047  1.00  0.00     0.001 A 
ENDBRANCH  12  14
ENDBRANCH   1  12
BRANCH   8  25
HETATM   25  C   UNL     1       6.600  33.106  61.790  1.00  0.00    -0.053 A 
HETATM   26  C   UNL     1       5.988  34.132  62.528  1.00  0.00     0.007 A 
HETATM   27  C   UNL     1       6.388  34.405  63.837  1.00  0.00     0.001 A 
HETATM   28  C   UNL     1       7.406  33.661  64.427  1.00  0.00     0.000 A 
HETATM   29  C   UNL     1       8.026  32.643  63.707  1.00  0.00     0.001 A 
HETATM   30  C   UNL     1       7.627  32.367  62.397  1.00  0.00     0.007 A 
ENDBRANCH   8  25
TORSDOF 3
ENDMDL
MODEL 9
REMARK VINA RESULT:     -10.4      5.532      9.701
REMARK  3 active torsions:
REMARK  status: ('A' for Active; 'I' for Inactive)
REMARK    1  A    between atoms: C_4  and  N_5 
REMARK    2  A    between atoms: N_5  and  C_6 
REMARK    3  A    between atoms: C_13  and  C_14 
ROOT
HETATM    1  C   UNL     1       4.235  27.529  53.077  1.00  0.00     0.741 A 
HETATM    2  N   UNL     1       4.718  26.282  52.949  1.00  0.00    -0.066 NA
HETATM    3  C   UNL     1       5.470  25.768  53.946  1.00  0.00     0.069 A 
HETATM    4  C   UNL     1       5.744  26.476  55.092  1.00  0.00     0.053 A 
HETATM    5  C   UNL     1       6.538  25.902  56.189  1.00  0.00     0.163 C 
HETATM    6  O   UNL     1       6.741  26.561  57.203  1.00  0.00    -0.292 OA
HETATM    7  C   UNL     1       7.014  24.472  56.044  1.00  0.00     0.093 C 
HETATM    8  C   UNL     1       7.229  24.098  54.573  1.00  0.00     0.031 C 
HETATM    9  C   UNL     1       5.948  24.355  53.764  1.00  0.00     0.070 C 
HETATM   10  C   UNL     1       5.223  27.746  55.151  1.00  0.00     0.153 A 
HETATM   11  N   UNL     1       4.473  28.288  54.163  1.00  0.00    -0.073 NA
ENDROOT
BRANCH   1  12
HETATM   12  N   UNL     1       3.446  28.104  52.106  1.00  0.00    -0.015 N 
HETATM   13  H   UNL     1       2.469  28.123  52.325  1.00  0.00     0.203 HD
BRANCH  12  14
HETATM   14  C   UNL     1       3.744  28.570  50.842  1.00  0.00     0.742 A 
HETATM   15  N   UNL     1       4.072  27.626  49.945  1.00  0.00    -0.066 NA
HETATM   16  C   UNL     1       4.382  28.024  48.690  1.00  0.00     0.062 A 
HETATM   17  C   UNL     1       4.751  26.925  47.737  1.00  0.00     0.072 C 
HETATM   18  C   UNL     1       4.369  29.367  48.297  1.00  0.00     0.018 A 
HETATM   19  C   UNL     1       4.009  30.263  49.305  1.00  0.00     0.088 A 
HETATM   20  C   UNL     1       4.681  29.855  47.003  1.00  0.00     0.016 A 
HETATM   21  N   UNL     1       3.706  29.873  50.545  1.00  0.00    -0.062 NA
HETATM   22  C   UNL     1       3.966  31.620  49.007  1.00  0.00     0.033 A 
HETATM   23  C   UNL     1       4.272  32.106  47.734  1.00  0.00     0.002 A 
HETATM   24  C   UNL     1       4.632  31.220  46.727  1.00  0.00     0.001 A 
ENDBRANCH  12  14
ENDBRANCH   1  12
BRANCH   8  25
HETATM   25  C   UNL     1       7.712  22.667  54.419  1.00  0.00    -0.053 A 
HETATM   26  C   UNL     1       7.945  21.842  55.531  1.00  0.00     0.007 A 
HETATM   27  C   UNL     1       8.377  20.525  55.364  1.00  0.00     0.001 A 
HETATM   28  C   UNL     1       8.584  20.015  54.085  1.00  0.00     0.000 A 
HETATM   29  C   UNL     1       8.361  20.822  52.972  1.00  0.00     0.001 A 
HETATM   30  C   UNL     1       7.928  22.139  53.137  1.00  0.00     0.007 A 
ENDBRANCH   8  25
TORSDOF 3
ENDMDL
MODEL 10
REMARK VINA RESULT:     -10.4      1.272      2.604
REMARK  3 active torsions:
REMARK  status: ('A' for Active; 'I' for Inactive)
REMARK    1  A    between atoms: C_4  and  N_5 
REMARK    2  A    between atoms: N_5  and  C_6 
REMARK    3  A    between atoms: C_13  and  C_14 
ROOT
HETATM    1  C   UNL     1       8.273  27.900  57.397  1.00  0.00     0.741 A 
HETATM    2  N   UNL     1       7.691  28.611  58.378  1.00  0.00    -0.066 NA
HETATM    3  C   UNL     1       8.265  29.768  58.772  1.00  0.00     0.069 A 
HETATM    4  C   UNL     1       9.416  30.247  58.191  1.00  0.00     0.053 A 
HETATM    5  C   UNL     1      10.021  31.523  58.603  1.00  0.00     0.163 C 
HETATM    6  O   UNL     1      11.037  31.923  58.044  1.00  0.00    -0.292 OA
HETATM    7  C   UNL     1       9.308  32.333  59.665  1.00  0.00     0.093 C 
HETATM    8  C   UNL     1       8.523  31.433  60.626  1.00  0.00     0.031 C 
HETATM    9  C   UNL     1       7.548  30.540  59.845  1.00  0.00     0.070 C 
HETATM   10  C   UNL     1       9.957  29.465  57.200  1.00  0.00     0.153 A 
HETATM   11  N   UNL     1       9.408  28.297  56.791  1.00  0.00    -0.073 NA
ENDROOT
BRANCH   1  12
HETATM   12  N   UNL     1       7.729  26.722  56.936  1.00  0.00    -0.015 N 
HETATM   13  H   UNL     1       7.708  25.984  57.613  1.00  0.00     0.203 HD
BRANCH  12  14
HETATM   14  C   UNL     1       7.297  26.342  55.682  1.00  0.00     0.742 A 
HETATM   15  N   UNL     1       7.552  25.067  55.350  1.00  0.00    -0.066 NA
HETATM   16  C   UNL     1       7.158  24.638  54.129  1.00  0.00     0.062 A 
HETATM   17  C   UNL     1       7.480  23.207  53.812  1.00  0.00     0.072 C 
HETATM   18  C   UNL     1       6.500  25.465  53.212  1.00  0.00     0.018 A 
HETATM   19  C   UNL     1       6.281  26.770  53.661  1.00  0.00     0.088 A 
HETATM   20  C   UNL     1       6.060  25.085  51.920  1.00  0.00     0.016 A 
HETATM   21  N   UNL     1       6.671  27.195  54.865  1.00  0.00    -0.062 NA
HETATM   22  C   UNL     1       5.631  27.664  52.820  1.00  0.00     0.033 A 
HETATM   23  C   UNL     1       5.195  27.294  51.545  1.00  0.00     0.002 A 
HETATM   24  C   UNL     1       5.410  26.000  51.092  1.00  0.00     0.001 A 
ENDBRANCH  12  14
ENDBRANCH   1  12
BRANCH   8  25
HETATM   25  C   UNL     1       7.811  32.238  61.697  1.00  0.00    -0.053 A 
HETATM   26  C   UNL     1       6.641  32.965  61.422  1.00  0.00     0.007 A 
HETATM   27  C   UNL     1       5.997  33.687  62.428  1.00  0.00     0.001 A 
HETATM   28  C   UNL     1       6.512  33.697  63.721  1.00  0.00     0.000 A 
HETATM   29  C   UNL     1       7.674  32.985  64.009  1.00  0.00     0.001 A 
HETATM   30  C   UNL     1       8.320  32.261  63.005  1.00  0.00     0.007 A 
ENDBRANCH   8  25
TORSDOF 3
ENDMDL
