MODEL 1
REMARK VINA RESULT:     -11.2      0.000      0.000
REMARK  5 active torsions:
REMARK  status: ('A' for Active; 'I' for Inactive)
REMARK    1  A    between atoms: C_4  and  O_5 
REMARK    2  A    between atoms: O_5  and  C_6 
REMARK    3  A    between atoms: C_6  and  C_7 
REMARK       I    between atoms: C_7  and  N_8 
REMARK    4  A    between atoms: N_8  and  C_9 
REMARK    5  A    between atoms: C_12  and  C_13 
ROOT
HETATM    1  C   UNL     1       7.209  28.939  57.815  1.00  0.00     0.034 A 
HETATM    2  C   UNL     1       8.469  28.418  57.512  1.00  0.00     0.030 A 
HETATM    3  C   UNL     1       8.598  27.232  56.780  1.00  0.00     0.017 A 
HETATM    4  C   UNL     1       7.461  26.550  56.340  1.00  0.00     0.010 A 
HETATM    5  C   UNL     1       6.195  27.034  56.684  1.00  0.00     0.017 A 
HETATM    6  C   UNL     1       6.072  28.226  57.411  1.00  0.00     0.030 A 
ENDROOT
BRANCH   1   7
HETATM    7  N   UNL     1       7.015  30.165  58.485  1.00  0.00    -0.325 N 
HETATM    8  C   UNL     1       7.766  30.678  59.527  1.00  0.00     0.246 C 
HETATM    9  O   UNL     1       8.683  30.106  60.115  1.00  0.00    -0.271 OA
HETATM   10  H   UNL     1       6.273  30.771  58.148  1.00  0.00     0.169 HD
BRANCH   8  11
HETATM   11  C   UNL     1       7.349  32.084  59.961  1.00  0.00     0.278 C 
BRANCH  11  12
HETATM   12  O   UNL     1       6.195  32.100  60.794  1.00  0.00    -0.342 OA
BRANCH  12  13
HETATM   13  C   UNL     1       6.404  32.511  62.086  1.00  0.00     0.069 A 
HETATM   14  C   UNL     1       5.410  32.907  62.989  1.00  0.00     0.043 A 
HETATM   15  C   UNL     1       5.740  33.295  64.296  1.00  0.00    -0.059 A 
HETATM   16  C   UNL     1       4.667  33.670  65.276  1.00  0.00     0.048 C 
HETATM   17  C   UNL     1       7.080  33.276  64.697  1.00  0.00     0.007 A 
HETATM   18  C   UNL     1       8.077  32.897  63.798  1.00  0.00     0.003 A 
HETATM   19  C   UNL     1       7.738  32.521  62.497  1.00  0.00     0.037 A 
ENDBRANCH  12  13
ENDBRANCH  11  12
ENDBRANCH   8  11
ENDBRANCH   1   7
BRANCH   4  20
HETATM   20  C   UNL     1       7.581  25.335  55.494  1.00  0.00     0.141 A 
HETATM   21  N   UNL     1       7.569  24.148  56.009  1.00  0.00    -0.230 NA
HETATM   22  C   UNL     1       7.684  23.046  55.139  1.00  0.00     0.074 A 
HETATM   23  C   UNL     1       7.771  23.186  53.752  1.00  0.00     0.061 A 
HETATM   24  C   UNL     1       7.716  21.757  55.677  1.00  0.00     0.032 A 
HETATM   25  C   UNL     1       7.743  24.550  53.207  1.00  0.00     0.259 A 
HETATM   26  C   UNL     1       7.877  22.077  52.907  1.00  0.00     0.019 A 
HETATM   27  O   UNL     1       7.774  24.779  52.004  1.00  0.00    -0.267 OA
HETATM   28  N   UNL     1       7.671  25.555  54.136  1.00  0.00    -0.307 N 
HETATM   29  H   UNL     1       7.606  26.485  53.748  1.00  0.00     0.170 HD
HETATM   30  C   UNL     1       7.905  20.797  53.459  1.00  0.00     0.001 A 
HETATM   31  C   UNL     1       7.826  20.639  54.843  1.00  0.00     0.002 A 
ENDBRANCH   4  20
TORSDOF 5
ENDMDL
MODEL 2
REMARK VINA RESULT:     -11.1      1.982      2.993
REMARK  5 active torsions:
REMARK  status: ('A' for Active; 'I' for Inactive)
REMARK    1  A    between atoms: C_4  and  O_5 
REMARK    2  A    between atoms: O_5  and  C_6 
REMARK    3  A    between atoms: C_6  and  C_7 
REMARK       I    between atoms: C_7  and  N_8 
REMARK    4  A    between atoms: N_8  and  C_9 
REMARK    5  A    between atoms: C_12  and  C_13 
ROOT
HETATM    1  C   UNL     1       6.634  28.163  57.557  1.00  0.00     0.034 A 
HETATM    2  C   UNL     1       5.630  27.342  57.037  1.00  0.00     0.030 A 
HETATM    3  C   UNL     1       5.931  26.074  56.528  1.00  0.00     0.017 A 
HETATM    4  C   UNL     1       7.249  25.609  56.533  1.00  0.00     0.010 A 
HETATM    5  C   UNL     1       8.269  26.444  57.001  1.00  0.00     0.017 A 
HETATM    6  C   UNL     1       7.960  27.710  57.516  1.00  0.00     0.030 A 
ENDROOT
BRANCH   1   7
HETATM    7  N   UNL     1       6.384  29.418  58.149  1.00  0.00    -0.325 N 
HETATM    8  C   UNL     1       5.951  30.571  57.517  1.00  0.00     0.246 C 
HETATM    9  O   UNL     1       5.799  30.725  56.307  1.00  0.00    -0.271 OA
HETATM   10  H   UNL     1       6.485  29.490  59.157  1.00  0.00     0.169 HD
BRANCH   8  11
HETATM   11  C   UNL     1       5.680  31.737  58.469  1.00  0.00     0.278 C 
BRANCH  11  12
HETATM   12  O   UNL     1       6.795  32.606  58.631  1.00  0.00    -0.342 OA
BRANCH  12  13
HETATM   13  C   UNL     1       7.575  32.371  59.735  1.00  0.00     0.069 A 
HETATM   14  C   UNL     1       7.207  32.617  61.063  1.00  0.00     0.043 A 
HETATM   15  C   UNL     1       8.085  32.322  62.117  1.00  0.00    -0.059 A 
HETATM   16  C   UNL     1       7.668  32.541  63.543  1.00  0.00     0.048 C 
HETATM   17  C   UNL     1       9.336  31.766  61.830  1.00  0.00     0.007 A 
HETATM   18  C   UNL     1       9.714  31.532  60.508  1.00  0.00     0.003 A 
HETATM   19  C   UNL     1       8.837  31.837  59.466  1.00  0.00     0.037 A 
ENDBRANCH  12  13
ENDBRANCH  11  12
ENDBRANCH   8  11
ENDBRANCH   1   7
BRANCH   4  20
HETATM   20  C   UNL     1       7.574  24.236  56.072  1.00  0.00     0.141 A 
HETATM   21  N   UNL     1       7.615  23.937  54.813  1.00  0.00    -0.230 NA
HETATM   22  C   UNL     1       7.934  22.613  54.456  1.00  0.00     0.074 A 
HETATM   23  C   UNL     1       8.243  21.630  55.399  1.00  0.00     0.061 A 
HETATM   24  C   UNL     1       7.943  22.257  53.105  1.00  0.00     0.032 A 
HETATM   25  C   UNL     1       8.221  22.023  56.815  1.00  0.00     0.259 A 
HETATM   26  C   UNL     1       8.564  20.323  55.021  1.00  0.00     0.019 A 
HETATM   27  O   UNL     1       8.515  21.247  57.717  1.00  0.00    -0.267 OA
HETATM   28  N   UNL     1       7.859  23.321  57.062  1.00  0.00    -0.307 N 
HETATM   29  H   UNL     1       7.892  23.591  58.034  1.00  0.00     0.170 HD
HETATM   30  C   UNL     1       8.571  19.985  53.669  1.00  0.00     0.001 A 
HETATM   31  C   UNL     1       8.259  20.951  52.713  1.00  0.00     0.002 A 
ENDBRANCH   4  20
TORSDOF 5
ENDMDL
MODEL 3
REMARK VINA RESULT:     -11.0      1.338      2.177
REMARK  5 active torsions:
REMARK  status: ('A' for Active; 'I' for Inactive)
REMARK    1  A    between atoms: C_4  and  O_5 
REMARK    2  A    between atoms: O_5  and  C_6 
REMARK    3  A    between atoms: C_6  and  C_7 
REMARK       I    between atoms: C_7  and  N_8 
REMARK    4  A    between atoms: N_8  and  C_9 
REMARK    5  A    between atoms: C_12  and  C_13 
ROOT
HETATM    1  C   UNL     1       6.278  28.645  57.390  1.00  0.00     0.034 A 
HETATM    2  C   UNL     1       5.257  27.817  56.917  1.00  0.00     0.030 A 
HETATM    3  C   UNL     1       5.551  26.669  56.173  1.00  0.00     0.017 A 
HETATM    4  C   UNL     1       6.878  26.333  55.892  1.00  0.00     0.010 A 
HETATM    5  C   UNL     1       7.904  27.183  56.314  1.00  0.00     0.017 A 
HETATM    6  C   UNL     1       7.604  28.328  57.065  1.00  0.00     0.030 A 
ENDROOT
BRANCH   1   7
HETATM    7  N   UNL     1       6.050  29.773  58.205  1.00  0.00    -0.325 N 
HETATM    8  C   UNL     1       5.536  30.997  57.815  1.00  0.00     0.246 C 
HETATM    9  O   UNL     1       5.276  31.345  56.664  1.00  0.00    -0.271 OA
HETATM   10  H   UNL     1       6.237  29.680  59.198  1.00  0.00     0.169 HD
BRANCH   8  11
HETATM   11  C   UNL     1       5.321  31.977  58.970  1.00  0.00     0.278 C 
BRANCH  11  12
HETATM   12  O   UNL     1       6.392  32.898  59.138  1.00  0.00    -0.342 OA
BRANCH  12  13
HETATM   13  C   UNL     1       7.261  32.616  60.161  1.00  0.00     0.069 A 
HETATM   14  C   UNL     1       7.036  32.872  61.519  1.00  0.00     0.043 A 
HETATM   15  C   UNL     1       7.994  32.525  62.484  1.00  0.00    -0.059 A 
HETATM   16  C   UNL     1       7.727  32.755  63.943  1.00  0.00     0.048 C 
HETATM   17  C   UNL     1       9.182  31.909  62.076  1.00  0.00     0.007 A 
HETATM   18  C   UNL     1       9.419  31.665  60.724  1.00  0.00     0.003 A 
HETATM   19  C   UNL     1       8.463  32.021  59.772  1.00  0.00     0.037 A 
ENDBRANCH  12  13
ENDBRANCH  11  12
ENDBRANCH   8  11
ENDBRANCH   1   7
BRANCH   4  20
HETATM   20  C   UNL     1       7.210  25.077  55.173  1.00  0.00     0.141 A 
HETATM   21  N   UNL     1       7.263  23.939  55.789  1.00  0.00    -0.230 NA
HETATM   22  C   UNL     1       7.582  22.792  55.036  1.00  0.00     0.074 A 
HETATM   23  C   UNL     1       7.801  22.832  53.657  1.00  0.00     0.061 A 
HETATM   24  C   UNL     1       7.686  21.561  55.687  1.00  0.00     0.032 A 
HETATM   25  C   UNL     1       7.694  24.138  52.993  1.00  0.00     0.259 A 
HETATM   26  C   UNL     1       8.109  21.679  52.928  1.00  0.00     0.019 A 
HETATM   27  O   UNL     1       7.829  24.274  51.782  1.00  0.00    -0.267 OA
HETATM   28  N   UNL     1       7.421  25.198  53.817  1.00  0.00    -0.307 N 
HETATM   29  H   UNL     1       7.305  26.083  53.343  1.00  0.00     0.170 HD
HETATM   30  C   UNL     1       8.207  20.457  53.592  1.00  0.00     0.001 A 
HETATM   31  C   UNL     1       7.997  20.399  54.970  1.00  0.00     0.002 A 
ENDBRANCH   4  20
TORSDOF 5
ENDMDL
MODEL 4
REMARK VINA RESULT:     -10.6      1.921     11.170
REMARK  5 active torsions:
REMARK  status: ('A' for Active; 'I' for Inactive)
REMARK    1  A    between atoms: C_4  and  O_5 
REMARK    2  A    between atoms: O_5  and  C_6 
REMARK    3  A    between atoms: C_6  and  C_7 
REMARK       I    between atoms: C_7  and  N_8 
REMARK    4  A    between atoms: N_8  and  C_9 
REMARK    5  A    between atoms: C_12  and  C_13 
ROOT
HETATM    1  C   UNL     1       7.561  29.028  56.885  1.00  0.00     0.034 A 
HETATM    2  C   UNL     1       8.547  29.261  57.847  1.00  0.00     0.030 A 
HETATM    3  C   UNL     1       8.333  30.170  58.889  1.00  0.00     0.017 A 
HETATM    4  C   UNL     1       7.123  30.862  58.980  1.00  0.00     0.010 A 
HETATM    5  C   UNL     1       6.151  30.678  57.993  1.00  0.00     0.017 A 
HETATM    6  C   UNL     1       6.368  29.760  56.956  1.00  0.00     0.030 A 
ENDROOT
BRANCH   1   7
HETATM    7  N   UNL     1       7.689  28.074  55.855  1.00  0.00    -0.325 N 
HETATM    8  C   UNL     1       7.252  26.761  55.871  1.00  0.00     0.246 C 
HETATM    9  O   UNL     1       6.758  26.169  56.829  1.00  0.00    -0.271 OA
HETATM   10  H   UNL     1       8.106  28.380  54.981  1.00  0.00     0.169 HD
BRANCH   8  11
HETATM   11  C   UNL     1       7.458  26.021  54.548  1.00  0.00     0.278 C 
BRANCH  11  12
HETATM   12  O   UNL     1       6.551  24.943  54.356  1.00  0.00    -0.342 OA
BRANCH  12  13
HETATM   13  C   UNL     1       7.111  23.690  54.355  1.00  0.00     0.069 A 
HETATM   14  C   UNL     1       7.375  22.912  55.488  1.00  0.00     0.043 A 
HETATM   15  C   UNL     1       7.939  21.633  55.365  1.00  0.00    -0.059 A 
HETATM   16  C   UNL     1       8.174  20.782  56.579  1.00  0.00     0.048 C 
HETATM   17  C   UNL     1       8.228  21.133  54.091  1.00  0.00     0.007 A 
HETATM   18  C   UNL     1       7.981  21.909  52.959  1.00  0.00     0.003 A 
HETATM   19  C   UNL     1       7.428  23.183  53.093  1.00  0.00     0.037 A 
ENDBRANCH  12  13
ENDBRANCH  11  12
ENDBRANCH   8  11
ENDBRANCH   1   7
BRANCH   4  20
HETATM   20  C   UNL     1       6.849  31.769  60.124  1.00  0.00     0.141 A 
HETATM   21  N   UNL     1       7.526  31.694  61.225  1.00  0.00    -0.230 NA
HETATM   22  C   UNL     1       7.208  32.593  62.261  1.00  0.00     0.074 A 
HETATM   23  C   UNL     1       6.225  33.577  62.132  1.00  0.00     0.061 A 
HETATM   24  C   UNL     1       7.896  32.501  63.474  1.00  0.00     0.032 A 
HETATM   25  C   UNL     1       5.507  33.651  60.852  1.00  0.00     0.259 A 
HETATM   26  C   UNL     1       5.931  34.464  63.173  1.00  0.00     0.019 A 
HETATM   27  O   UNL     1       4.656  34.503  60.623  1.00  0.00    -0.267 OA
HETATM   28  N   UNL     1       5.860  32.708  59.923  1.00  0.00    -0.307 N 
HETATM   29  H   UNL     1       5.393  32.797  59.032  1.00  0.00     0.170 HD
HETATM   30  C   UNL     1       6.629  34.362  64.375  1.00  0.00     0.001 A 
HETATM   31  C   UNL     1       7.609  33.380  64.525  1.00  0.00     0.002 A 
ENDBRANCH   4  20
TORSDOF 5
ENDMDL
MODEL 5
REMARK VINA RESULT:     -10.3      1.661     11.003
REMARK  5 active torsions:
REMARK  status: ('A' for Active; 'I' for Inactive)
REMARK    1  A    between atoms: C_4  and  O_5 
REMARK    2  A    between atoms: O_5  and  C_6 
REMARK    3  A    between atoms: C_6  and  C_7 
REMARK       I    between atoms: C_7  and  N_8 
REMARK    4  A    between atoms: N_8  and  C_9 
REMARK    5  A    between atoms: C_12  and  C_13 
ROOT
HETATM    1  C   UNL     1       7.357  28.028  56.047  1.00  0.00     0.034 A 
HETATM    2  C   UNL     1       8.263  28.036  57.110  1.00  0.00     0.030 A 
HETATM    3  C   UNL     1       8.166  28.989  58.130  1.00  0.00     0.017 A 
HETATM    4  C   UNL     1       7.153  29.951  58.098  1.00  0.00     0.010 A 
HETATM    5  C   UNL     1       6.274  29.986  57.012  1.00  0.00     0.017 A 
HETATM    6  C   UNL     1       6.372  29.025  55.997  1.00  0.00     0.030 A 
ENDROOT
BRANCH   1   7
HETATM    7  N   UNL     1       7.359  27.052  55.030  1.00  0.00    -0.325 N 
HETATM    8  C   UNL     1       6.510  25.965  54.910  1.00  0.00     0.246 C 
HETATM    9  O   UNL     1       5.662  25.609  55.726  1.00  0.00    -0.271 OA
HETATM   10  H   UNL     1       8.021  27.169  54.269  1.00  0.00     0.169 HD
BRANCH   8  11
HETATM   11  C   UNL     1       6.716  25.155  53.629  1.00  0.00     0.278 C 
BRANCH  11  12
HETATM   12  O   UNL     1       7.999  24.545  53.546  1.00  0.00    -0.342 OA
BRANCH  12  13
HETATM   13  C   UNL     1       8.053  23.226  53.920  1.00  0.00     0.069 A 
HETATM   14  C   UNL     1       8.242  22.752  55.223  1.00  0.00     0.043 A 
HETATM   15  C   UNL     1       8.265  21.375  55.491  1.00  0.00    -0.059 A 
HETATM   16  C   UNL     1       8.417  20.872  56.897  1.00  0.00     0.048 C 
HETATM   17  C   UNL     1       8.086  20.471  54.438  1.00  0.00     0.007 A 
HETATM   18  C   UNL     1       7.912  20.936  53.135  1.00  0.00     0.003 A 
HETATM   19  C   UNL     1       7.900  22.308  52.878  1.00  0.00     0.037 A 
ENDBRANCH  12  13
ENDBRANCH  11  12
ENDBRANCH   8  11
ENDBRANCH   1   7
BRANCH   4  20
HETATM   20  C   UNL     1       6.987  30.918  59.213  1.00  0.00     0.141 A 
HETATM   21  N   UNL     1       6.068  31.830  59.186  1.00  0.00    -0.230 NA
HETATM   22  C   UNL     1       5.973  32.708  60.284  1.00  0.00     0.074 A 
HETATM   23  C   UNL     1       6.799  32.606  61.406  1.00  0.00     0.061 A 
HETATM   24  C   UNL     1       5.017  33.726  60.258  1.00  0.00     0.032 A 
HETATM   25  C   UNL     1       7.803  31.533  61.410  1.00  0.00     0.259 A 
HETATM   26  C   UNL     1       6.681  33.484  62.488  1.00  0.00     0.019 A 
HETATM   27  O   UNL     1       8.549  31.334  62.362  1.00  0.00    -0.267 OA
HETATM   28  N   UNL     1       7.845  30.759  60.280  1.00  0.00    -0.307 N 
HETATM   29  H   UNL     1       8.507  29.997  60.313  1.00  0.00     0.170 HD
HETATM   30  C   UNL     1       5.720  34.492  62.447  1.00  0.00     0.001 A 
HETATM   31  C   UNL     1       4.891  34.614  61.333  1.00  0.00     0.002 A 
ENDBRANCH   4  20
TORSDOF 5
ENDMDL
MODEL 6
REMARK VINA RESULT:      -9.8      6.970     10.385
REMARK  5 active torsions:
REMARK  status: ('A' for Active; 'I' for Inactive)
REMARK    1  A    between atoms: C_4  and  O_5 
REMARK    2  A    between atoms: O_5  and  C_6 
REMARK    3  A    between atoms: C_6  and  C_7 
REMARK       I    between atoms: C_7  and  N_8 
REMARK    4  A    between atoms: N_8  and  C_9 
REMARK    5  A    between atoms: C_12  and  C_13 
ROOT
HETATM    1  C   UNL     1       4.720  27.592  51.697  1.00  0.00     0.034 A 
HETATM    2  C   UNL     1       5.034  27.752  53.049  1.00  0.00     0.030 A 
HETATM    3  C   UNL     1       5.632  26.716  53.775  1.00  0.00     0.017 A 
HETATM    4  C   UNL     1       5.925  25.499  53.152  1.00  0.00     0.010 A 
HETATM    5  C   UNL     1       5.566  25.309  51.815  1.00  0.00     0.017 A 
HETATM    6  C   UNL     1       4.973  26.353  51.091  1.00  0.00     0.030 A 
ENDROOT
BRANCH   1   7
HETATM    7  N   UNL     1       4.184  28.621  50.896  1.00  0.00    -0.325 N 
HETATM    8  C   UNL     1       4.882  29.515  50.104  1.00  0.00     0.246 C 
HETATM    9  O   UNL     1       6.105  29.627  50.034  1.00  0.00    -0.271 OA
HETATM   10  H   UNL     1       3.173  28.700  50.849  1.00  0.00     0.169 HD
BRANCH   8  11
HETATM   11  C   UNL     1       3.988  30.443  49.280  1.00  0.00     0.278 C 
BRANCH  11  12
HETATM   12  O   UNL     1       3.983  30.138  47.890  1.00  0.00    -0.342 OA
BRANCH  12  13
HETATM   13  C   UNL     1       3.152  29.114  47.512  1.00  0.00     0.069 A 
HETATM   14  C   UNL     1       3.472  27.751  47.534  1.00  0.00     0.043 A 
HETATM   15  C   UNL     1       2.532  26.787  47.137  1.00  0.00    -0.059 A 
HETATM   16  C   UNL     1       2.862  25.324  47.209  1.00  0.00     0.048 C 
HETATM   17  C   UNL     1       1.262  27.200  46.724  1.00  0.00     0.007 A 
HETATM   18  C   UNL     1       0.942  28.557  46.686  1.00  0.00     0.003 A 
HETATM   19  C   UNL     1       1.886  29.508  47.075  1.00  0.00     0.037 A 
ENDBRANCH  12  13
ENDBRANCH  11  12
ENDBRANCH   8  11
ENDBRANCH   1   7
BRANCH   4  20
HETATM   20  C   UNL     1       6.632  24.420  53.886  1.00  0.00     0.141 A 
HETATM   21  N   UNL     1       7.016  23.335  53.291  1.00  0.00    -0.230 NA
HETATM   22  C   UNL     1       7.684  22.360  54.056  1.00  0.00     0.074 A 
HETATM   23  C   UNL     1       7.979  22.535  55.411  1.00  0.00     0.061 A 
HETATM   24  C   UNL     1       8.069  21.164  53.445  1.00  0.00     0.032 A 
HETATM   25  C   UNL     1       7.559  23.796  56.037  1.00  0.00     0.259 A 
HETATM   26  C   UNL     1       8.650  21.555  56.149  1.00  0.00     0.019 A 
HETATM   27  O   UNL     1       7.804  24.063  57.207  1.00  0.00    -0.267 OA
HETATM   28  N   UNL     1       6.880  24.662  55.221  1.00  0.00    -0.307 N 
HETATM   29  H   UNL     1       6.637  25.543  55.649  1.00  0.00     0.170 HD
HETATM   30  C   UNL     1       9.030  20.369  55.523  1.00  0.00     0.001 A 
HETATM   31  C   UNL     1       8.738  20.174  54.173  1.00  0.00     0.002 A 
ENDBRANCH   4  20
TORSDOF 5
ENDMDL
MODEL 7
REMARK VINA RESULT:      -9.8      8.206     12.477
REMARK  5 active torsions:
REMARK  status: ('A' for Active; 'I' for Inactive)
REMARK    1  A    between atoms: C_4  and  O_5 
REMARK    2  A    between atoms: O_5  and  C_6 
REMARK    3  A    between atoms: C_6  and  C_7 
REMARK       I    between atoms: C_7  and  N_8 
REMARK    4  A    between atoms: N_8  and  C_9 
REMARK    5  A    between atoms: C_12  and  C_13 
ROOT
HETATM    1  C   UNL     1       4.697  26.969  49.462  1.00  0.00     0.034 A 
HETATM    2  C   UNL     1       4.028  28.141  49.824  1.00  0.00     0.030 A 
HETATM    3  C   UNL     1       2.933  28.600  49.083  1.00  0.00     0.017 A 
HETATM    4  C   UNL     1       2.492  27.887  47.965  1.00  0.00     0.010 A 
HETATM    5  C   UNL     1       3.187  26.744  47.563  1.00  0.00     0.017 A 
HETATM    6  C   UNL     1       4.279  26.284  48.313  1.00  0.00     0.030 A 
ENDROOT
BRANCH   1   7
HETATM    7  N   UNL     1       5.759  26.418  50.208  1.00  0.00    -0.325 N 
HETATM    8  C   UNL     1       5.702  25.902  51.491  1.00  0.00     0.246 C 
HETATM    9  O   UNL     1       4.729  25.922  52.242  1.00  0.00    -0.271 OA
HETATM   10  H   UNL     1       6.663  26.342  49.752  1.00  0.00     0.169 HD
BRANCH   8  11
HETATM   11  C   UNL     1       7.018  25.287  51.972  1.00  0.00     0.278 C 
BRANCH  11  12
HETATM   12  O   UNL     1       7.089  25.139  53.385  1.00  0.00    -0.342 OA
BRANCH  12  13
HETATM   13  C   UNL     1       7.629  23.959  53.830  1.00  0.00     0.069 A 
HETATM   14  C   UNL     1       7.699  22.766  53.102  1.00  0.00     0.043 A 
HETATM   15  C   UNL     1       8.290  21.619  53.655  1.00  0.00    -0.059 A 
HETATM   16  C   UNL     1       8.408  20.356  52.852  1.00  0.00     0.048 C 
HETATM   17  C   UNL     1       8.821  21.681  54.948  1.00  0.00     0.007 A 
HETATM   18  C   UNL     1       8.742  22.862  55.684  1.00  0.00     0.003 A 
HETATM   19  C   UNL     1       8.145  23.994  55.128  1.00  0.00     0.037 A 
ENDBRANCH  12  13
ENDBRANCH  11  12
ENDBRANCH   8  11
ENDBRANCH   1   7
BRANCH   4  20
HETATM   20  C   UNL     1       1.283  28.316  47.217  1.00  0.00     0.141 A 
HETATM   21  N   UNL     1       0.765  29.491  47.385  1.00  0.00    -0.230 NA
HETATM   22  C   UNL     1      -0.380  29.824  46.635  1.00  0.00     0.074 A 
HETATM   23  C   UNL     1      -0.947  28.956  45.699  1.00  0.00     0.061 A 
HETATM   24  C   UNL     1      -0.980  31.070  46.830  1.00  0.00     0.032 A 
HETATM   25  C   UNL     1      -0.305  27.647  45.514  1.00  0.00     0.259 A 
HETATM   26  C   UNL     1      -2.081  29.311  44.960  1.00  0.00     0.019 A 
HETATM   27  O   UNL     1      -0.701  26.831  44.691  1.00  0.00    -0.267 OA
HETATM   28  N   UNL     1       0.776  27.402  46.319  1.00  0.00    -0.307 N 
HETATM   29  H   UNL     1       1.237  26.519  46.151  1.00  0.00     0.170 HD
HETATM   30  C   UNL     1      -2.666  30.559  45.164  1.00  0.00     0.001 A 
HETATM   31  C   UNL     1      -2.117  31.436  46.100  1.00  0.00     0.002 A 
ENDBRANCH   4  20
TORSDOF 5
ENDMDL
MODEL 8
REMARK VINA RESULT:      -9.6      1.599      2.157
REMARK  5 active torsions:
REMARK  status: ('A' for Active; 'I' for Inactive)
REMARK    1  A    between atoms: C_4  and  O_5 
REMARK    2  A    between atoms: O_5  and  C_6 
REMARK    3  A    between atoms: C_6  and  C_7 
REMARK       I    between atoms: C_7  and  N_8 
REMARK    4  A    between atoms: N_8  and  C_9 
REMARK    5  A    between atoms: C_12  and  C_13 
ROOT
HETATM    1  C   UNL     1       5.993  29.206  57.395  1.00  0.00     0.034 A 
HETATM    2  C   UNL     1       7.081  28.430  57.804  1.00  0.00     0.030 A 
HETATM    3  C   UNL     1       7.413  27.248  57.132  1.00  0.00     0.017 A 
HETATM    4  C   UNL     1       6.656  26.827  56.036  1.00  0.00     0.010 A 
HETATM    5  C   UNL     1       5.534  27.567  55.652  1.00  0.00     0.017 A 
HETATM    6  C   UNL     1       5.210  28.753  56.324  1.00  0.00     0.030 A 
ENDROOT
BRANCH   1   7
HETATM    7  N   UNL     1       5.653  30.441  57.985  1.00  0.00    -0.325 N 
HETATM    8  C   UNL     1       4.382  30.946  58.195  1.00  0.00     0.246 C 
HETATM    9  O   UNL     1       3.326  30.444  57.816  1.00  0.00    -0.271 OA
HETATM   10  H   UNL     1       6.411  31.015  58.341  1.00  0.00     0.169 HD
BRANCH   8  11
HETATM   11  C   UNL     1       4.360  32.274  58.954  1.00  0.00     0.278 C 
BRANCH  11  12
HETATM   12  O   UNL     1       4.026  32.134  60.330  1.00  0.00    -0.342 OA
BRANCH  12  13
HETATM   13  C   UNL     1       4.842  32.800  61.209  1.00  0.00     0.069 A 
HETATM   14  C   UNL     1       5.970  32.266  61.842  1.00  0.00     0.043 A 
HETATM   15  C   UNL     1       6.743  33.049  62.714  1.00  0.00    -0.059 A 
HETATM   16  C   UNL     1       7.980  32.488  63.351  1.00  0.00     0.048 C 
HETATM   17  C   UNL     1       6.378  34.380  62.940  1.00  0.00     0.007 A 
HETATM   18  C   UNL     1       5.247  34.914  62.324  1.00  0.00     0.003 A 
HETATM   19  C   UNL     1       4.481  34.124  61.465  1.00  0.00     0.037 A 
ENDBRANCH  12  13
ENDBRANCH  11  12
ENDBRANCH   8  11
ENDBRANCH   1   7
BRANCH   4  20
HETATM   20  C   UNL     1       7.043  25.620  55.263  1.00  0.00     0.141 A 
HETATM   21  N   UNL     1       7.067  24.446  55.808  1.00  0.00    -0.230 NA
HETATM   22  C   UNL     1       7.441  23.350  55.006  1.00  0.00     0.074 A 
HETATM   23  C   UNL     1       7.747  23.477  53.649  1.00  0.00     0.061 A 
HETATM   24  C   UNL     1       7.515  22.080  55.584  1.00  0.00     0.032 A 
HETATM   25  C   UNL     1       7.671  24.822  53.062  1.00  0.00     0.259 A 
HETATM   26  C   UNL     1       8.109  22.373  52.870  1.00  0.00     0.019 A 
HETATM   27  O   UNL     1       7.881  25.034  51.873  1.00  0.00    -0.267 OA
HETATM   28  N   UNL     1       7.338  25.827  53.932  1.00  0.00    -0.307 N 
HETATM   29  H   UNL     1       7.244  26.739  53.509  1.00  0.00     0.170 HD
HETATM   30  C   UNL     1       8.175  21.113  53.461  1.00  0.00     0.001 A 
HETATM   31  C   UNL     1       7.880  20.968  54.817  1.00  0.00     0.002 A 
ENDBRANCH   4  20
TORSDOF 5
ENDMDL
MODEL 9
REMARK VINA RESULT:      -9.4      6.468     10.730
REMARK  5 active torsions:
REMARK  status: ('A' for Active; 'I' for Inactive)
REMARK    1  A    between atoms: C_4  and  O_5 
REMARK    2  A    between atoms: O_5  and  C_6 
REMARK    3  A    between atoms: C_6  and  C_7 
REMARK       I    between atoms: C_7  and  N_8 
REMARK    4  A    between atoms: N_8  and  C_9 
REMARK    5  A    between atoms: C_12  and  C_13 
ROOT
HETATM    1  C   UNL     1       6.105  26.879  52.439  1.00  0.00     0.034 A 
HETATM    2  C   UNL     1       5.822  28.241  52.308  1.00  0.00     0.030 A 
HETATM    3  C   UNL     1       5.009  28.708  51.269  1.00  0.00     0.017 A 
HETATM    4  C   UNL     1       4.467  27.813  50.343  1.00  0.00     0.010 A 
HETATM    5  C   UNL     1       4.787  26.456  50.433  1.00  0.00     0.017 A 
HETATM    6  C   UNL     1       5.596  25.992  51.480  1.00  0.00     0.030 A 
ENDROOT
BRANCH   1   7
HETATM    7  N   UNL     1       6.856  26.340  53.503  1.00  0.00    -0.325 N 
HETATM    8  C   UNL     1       6.433  26.127  54.803  1.00  0.00     0.246 C 
HETATM    9  O   UNL     1       5.350  26.461  55.281  1.00  0.00    -0.271 OA
HETATM   10  H   UNL     1       7.800  26.026  53.299  1.00  0.00     0.169 HD
BRANCH   8  11
HETATM   11  C   UNL     1       7.468  25.430  55.687  1.00  0.00     0.278 C 
BRANCH  11  12
HETATM   12  O   UNL     1       8.464  24.731  54.949  1.00  0.00    -0.342 OA
BRANCH  12  13
HETATM   13  C   UNL     1       8.342  23.365  54.934  1.00  0.00     0.069 A 
HETATM   14  C   UNL     1       8.356  22.556  53.792  1.00  0.00     0.043 A 
HETATM   15  C   UNL     1       8.237  21.161  53.898  1.00  0.00    -0.059 A 
HETATM   16  C   UNL     1       8.303  20.293  52.675  1.00  0.00     0.048 C 
HETATM   17  C   UNL     1       8.112  20.581  55.165  1.00  0.00     0.007 A 
HETATM   18  C   UNL     1       8.083  21.383  56.305  1.00  0.00     0.003 A 
HETATM   19  C   UNL     1       8.193  22.769  56.188  1.00  0.00     0.037 A 
ENDBRANCH  12  13
ENDBRANCH  11  12
ENDBRANCH   8  11
ENDBRANCH   1   7
BRANCH   4  20
HETATM   20  C   UNL     1       3.538  28.282  49.284  1.00  0.00     0.141 A 
HETATM   21  N   UNL     1       2.647  27.497  48.769  1.00  0.00    -0.230 NA
HETATM   22  C   UNL     1       1.801  28.019  47.771  1.00  0.00     0.074 A 
HETATM   23  C   UNL     1       1.862  29.350  47.349  1.00  0.00     0.061 A 
HETATM   24  C   UNL     1       0.860  27.179  47.171  1.00  0.00     0.032 A 
HETATM   25  C   UNL     1       2.864  30.215  47.987  1.00  0.00     0.259 A 
HETATM   26  C   UNL     1       1.007  29.848  46.361  1.00  0.00     0.019 A 
HETATM   27  O   UNL     1       2.972  31.406  47.717  1.00  0.00    -0.267 OA
HETATM   28  N   UNL     1       3.666  29.605  48.915  1.00  0.00    -0.307 N 
HETATM   29  H   UNL     1       4.319  30.219  49.379  1.00  0.00     0.170 HD
HETATM   30  C   UNL     1       0.072  28.997  45.775  1.00  0.00     0.001 A 
HETATM   31  C   UNL     1       0.000  27.664  46.178  1.00  0.00     0.002 A 
ENDBRANCH   4  20
TORSDOF 5
ENDMDL
MODEL 10
REMARK VINA RESULT:      -9.4      2.248     11.499
REMARK  5 active torsions:
REMARK  status: ('A' for Active; 'I' for Inactive)
REMARK    1  A    between atoms: C_4  and  O_5 
REMARK    2  A    between atoms: O_5  and  C_6 
REMARK    3  A    between atoms: C_6  and  C_7 
REMARK       I    between atoms: C_7  and  N_8 
REMARK    4  A    between atoms: N_8  and  C_9 
REMARK    5  A    between atoms: C_12  and  C_13 
ROOT
HETATM    1  C   UNL     1       7.202  30.286  57.570  1.00  0.00     0.034 A 
HETATM    2  C   UNL     1       6.052  31.076  57.648  1.00  0.00     0.030 A 
HETATM    3  C   UNL     1       5.767  31.817  58.800  1.00  0.00     0.017 A 
HETATM    4  C   UNL     1       6.635  31.778  59.894  1.00  0.00     0.010 A 
HETATM    5  C   UNL     1       7.760  30.949  59.848  1.00  0.00     0.017 A 
HETATM    6  C   UNL     1       8.044  30.214  58.689  1.00  0.00     0.030 A 
ENDROOT
BRANCH   1   7
HETATM    7  N   UNL     1       7.581  29.574  56.413  1.00  0.00    -0.325 N 
HETATM    8  C   UNL     1       7.344  28.239  56.137  1.00  0.00     0.246 C 
HETATM    9  O   UNL     1       6.842  27.415  56.899  1.00  0.00    -0.271 OA
HETATM   10  H   UNL     1       8.039  30.095  55.672  1.00  0.00     0.169 HD
BRANCH   8  11
HETATM   11  C   UNL     1       7.800  27.804  54.743  1.00  0.00     0.278 C 
BRANCH  11  12
HETATM   12  O   UNL     1       6.835  27.019  54.052  1.00  0.00    -0.342 OA
BRANCH  12  13
HETATM   13  C   UNL     1       7.203  25.723  53.791  1.00  0.00     0.069 A 
HETATM   14  C   UNL     1       7.258  24.684  54.728  1.00  0.00     0.043 A 
HETATM   15  C   UNL     1       7.636  23.389  54.343  1.00  0.00    -0.059 A 
HETATM   16  C   UNL     1       7.645  22.267  55.340  1.00  0.00     0.048 C 
HETATM   17  C   UNL     1       7.950  23.139  53.003  1.00  0.00     0.007 A 
HETATM   18  C   UNL     1       7.912  24.172  52.067  1.00  0.00     0.003 A 
HETATM   19  C   UNL     1       7.543  25.459  52.463  1.00  0.00     0.037 A 
ENDBRANCH  12  13
ENDBRANCH  11  12
ENDBRANCH   8  11
ENDBRANCH   1   7
BRANCH   4  20
HETATM   20  C   UNL     1       6.389  32.621  61.092  1.00  0.00     0.141 A 
HETATM   21  N   UNL     1       6.998  32.399  62.212  1.00  0.00    -0.230 NA
HETATM   22  C   UNL     1       6.713  33.246  63.301  1.00  0.00     0.074 A 
HETATM   23  C   UNL     1       5.836  34.329  63.205  1.00  0.00     0.061 A 
HETATM   24  C   UNL     1       7.326  32.999  64.532  1.00  0.00     0.032 A 
HETATM   25  C   UNL     1       5.195  34.567  61.904  1.00  0.00     0.259 A 
HETATM   26  C   UNL     1       5.573  35.161  64.298  1.00  0.00     0.019 A 
HETATM   27  O   UNL     1       4.441  35.512  61.705  1.00  0.00    -0.267 OA
HETATM   28  N   UNL     1       5.505  33.664  60.921  1.00  0.00    -0.307 N 
HETATM   29  H   UNL     1       5.095  33.864  60.020  1.00  0.00     0.170 HD
HETATM   30  C   UNL     1       6.195  34.903  65.518  1.00  0.00     0.001 A 
HETATM   31  C   UNL     1       7.069  33.822  65.634  1.00  0.00     0.002 A 
ENDBRANCH   4  20
TORSDOF 5
ENDMDL
