MODEL 1
REMARK VINA RESULT:      -9.8      0.000      0.000
REMARK  6 active torsions:
REMARK  status: ('A' for Active; 'I' for Inactive)
REMARK    1  A    between atoms: O_2  and  C_3 
REMARK    2  A    between atoms: C_4  and  C_5 
REMARK    3  A    between atoms: C_5  and  N_6 
REMARK       I    between atoms: N_6  and  C_7 
REMARK    4  A    between atoms: C_7  and  C_8 
REMARK    5  A    between atoms: C_8  and  O_9 
REMARK    6  A    between atoms: N_10  and  C_11 
ROOT
HETATM    1  C   UNL     1       5.342  26.394  53.085  1.00  0.00     0.256 C 
HETATM    2  N   UNL     1       5.183  27.488  52.111  1.00  0.00    -0.254 N 
HETATM    3  C   UNL     1       5.806  28.707  52.353  1.00  0.00     0.330 C 
HETATM    4  O   UNL     1       6.057  29.561  51.501  1.00  0.00    -0.246 OA
HETATM    5  N   UNL     1       6.198  28.977  53.629  1.00  0.00    -0.308 N 
HETATM    6  C   UNL     1       5.957  28.168  54.728  1.00  0.00     0.048 A 
HETATM    7  C   UNL     1       5.482  26.883  54.515  1.00  0.00     0.034 A 
HETATM    8  C   UNL     1       6.187  28.657  56.016  1.00  0.00     0.030 A 
HETATM    9  C   UNL     1       5.919  27.847  57.118  1.00  0.00     0.002 A 
HETATM   10  C   UNL     1       5.438  26.554  56.928  1.00  0.00     0.001 A 
HETATM   11  C   UNL     1       5.229  26.070  55.634  1.00  0.00     0.015 A 
HETATM   12  H   UNL     1       6.567  29.910  53.762  1.00  0.00     0.170 HD
ENDROOT
BRANCH   1  13
HETATM   13  C   UNL     1       6.582  25.474  52.735  1.00  0.00     0.279 C 
HETATM   14  N   UNL     1       6.540  24.161  53.149  1.00  0.00    -0.352 N 
HETATM   15  H   UNL     1       5.833  23.877  53.815  1.00  0.00     0.162 HD
HETATM   16  O   UNL     1       7.518  25.939  52.076  1.00  0.00    -0.268 OA
BRANCH  14  17
HETATM   17  C   UNL     1       7.626  23.232  52.901  1.00  0.00     0.164 C 
BRANCH  17  18
HETATM   18  C   UNL     1       7.908  22.280  54.044  1.00  0.00    -0.007 A 
HETATM   19  C   UNL     1       8.190  22.812  55.322  1.00  0.00     0.076 A 
HETATM   20  C   UNL     1       8.428  21.954  56.401  1.00  0.00     0.037 A 
HETATM   21  C   UNL     1       8.397  20.570  56.223  1.00  0.00     0.003 A 
HETATM   22  C   UNL     1       8.123  20.035  54.968  1.00  0.00     0.001 A 
HETATM   23  C   UNL     1       7.878  20.883  53.887  1.00  0.00     0.011 A 
BRANCH  19  24
HETATM   24  O   UNL     1       8.183  24.181  55.414  1.00  0.00    -0.355 OA
HETATM   25  C   UNL     1       8.589  24.749  56.654  1.00  0.00     0.210 C 
ENDBRANCH  19  24
ENDBRANCH  17  18
ENDBRANCH  14  17
ENDBRANCH   1  13
BRANCH   1  26
HETATM   26  O   UNL     1       4.149  25.595  53.074  1.00  0.00    -0.359 OA
HETATM   27  H   UNL     1       3.842  25.617  52.148  1.00  0.00     0.213 HD
ENDBRANCH   1  26
BRANCH   2  28
HETATM   28  C   UNL     1       4.543  27.248  50.837  1.00  0.00     0.043 A 
HETATM   29  C   UNL     1       4.843  26.134  50.036  1.00  0.00     0.031 A 
HETATM   30  C   UNL     1       4.183  25.912  48.819  1.00  0.00     0.026 A 
HETATM   31  C   UNL     1       3.200  26.795  48.390  1.00  0.00     0.034 A 
HETATM   32 CL   UNL     1       2.381  26.513  46.904  1.00  0.00    -0.084 Cl
HETATM   33  C   UNL     1       2.875  27.900  49.163  1.00  0.00     0.026 A 
HETATM   34  C   UNL     1       3.543  28.122  50.373  1.00  0.00     0.031 A 
ENDBRANCH   2  28
TORSDOF 6
ENDMDL
MODEL 2
REMARK VINA RESULT:      -9.5      1.710      2.184
REMARK  6 active torsions:
REMARK  status: ('A' for Active; 'I' for Inactive)
REMARK    1  A    between atoms: O_2  and  C_3 
REMARK    2  A    between atoms: C_4  and  C_5 
REMARK    3  A    between atoms: C_5  and  N_6 
REMARK       I    between atoms: N_6  and  C_7 
REMARK    4  A    between atoms: C_7  and  C_8 
REMARK    5  A    between atoms: C_8  and  O_9 
REMARK    6  A    between atoms: N_10  and  C_11 
ROOT
HETATM    1  C   UNL     1       4.582  28.212  52.963  1.00  0.00     0.256 C 
HETATM    2  N   UNL     1       4.270  28.920  51.708  1.00  0.00    -0.254 N 
HETATM    3  C   UNL     1       4.469  30.294  51.639  1.00  0.00     0.330 C 
HETATM    4  O   UNL     1       4.595  30.945  50.601  1.00  0.00    -0.246 OA
HETATM    5  N   UNL     1       4.560  30.982  52.811  1.00  0.00    -0.308 N 
HETATM    6  C   UNL     1       4.391  30.437  54.074  1.00  0.00     0.048 A 
HETATM    7  C   UNL     1       4.347  29.056  54.200  1.00  0.00     0.034 A 
HETATM    8  C   UNL     1       4.264  31.276  55.183  1.00  0.00     0.030 A 
HETATM    9  C   UNL     1       4.069  30.722  56.447  1.00  0.00     0.002 A 
HETATM   10  C   UNL     1       4.018  29.339  56.597  1.00  0.00     0.001 A 
HETATM   11  C   UNL     1       4.165  28.509  55.483  1.00  0.00     0.015 A 
HETATM   12  H   UNL     1       4.619  31.986  52.700  1.00  0.00     0.170 HD
ENDROOT
BRANCH   1  13
HETATM   13  C   UNL     1       6.073  27.681  52.981  1.00  0.00     0.279 C 
HETATM   14  N   UNL     1       6.271  26.326  52.830  1.00  0.00    -0.352 N 
HETATM   15  H   UNL     1       5.479  25.701  52.910  1.00  0.00     0.162 HD
HETATM   16  O   UNL     1       7.005  28.487  53.084  1.00  0.00    -0.268 OA
BRANCH  14  17
HETATM   17  C   UNL     1       7.592  25.726  52.850  1.00  0.00     0.164 C 
BRANCH  17  18
HETATM   18  C   UNL     1       7.644  24.350  53.480  1.00  0.00    -0.007 A 
HETATM   19  C   UNL     1       7.383  24.222  54.863  1.00  0.00     0.076 A 
HETATM   20  C   UNL     1       7.400  22.959  55.464  1.00  0.00     0.037 A 
HETATM   21  C   UNL     1       7.680  21.820  54.707  1.00  0.00     0.003 A 
HETATM   22  C   UNL     1       7.941  21.935  53.346  1.00  0.00     0.001 A 
HETATM   23  C   UNL     1       7.921  23.190  52.736  1.00  0.00     0.011 A 
BRANCH  19  24
HETATM   24  O   UNL     1       7.099  25.388  55.527  1.00  0.00    -0.355 OA
HETATM   25  C   UNL     1       6.000  25.367  56.432  1.00  0.00     0.210 C 
ENDBRANCH  19  24
ENDBRANCH  17  18
ENDBRANCH  14  17
ENDBRANCH   1  13
BRANCH   1  26
HETATM   26  O   UNL     1       3.687  27.095  53.092  1.00  0.00    -0.359 OA
HETATM   27  H   UNL     1       2.830  27.490  53.343  1.00  0.00     0.213 HD
ENDBRANCH   1  26
BRANCH   2  28
HETATM   28  C   UNL     1       3.937  28.180  50.512  1.00  0.00     0.043 A 
HETATM   29  C   UNL     1       4.818  27.261  49.918  1.00  0.00     0.031 A 
HETATM   30  C   UNL     1       4.453  26.536  48.775  1.00  0.00     0.026 A 
HETATM   31  C   UNL     1       3.194  26.709  48.214  1.00  0.00     0.034 A 
HETATM   32 CL   UNL     1       2.742  25.807  46.821  1.00  0.00    -0.084 Cl
HETATM   33  C   UNL     1       2.298  27.602  48.783  1.00  0.00     0.026 A 
HETATM   34  C   UNL     1       2.669  28.331  49.920  1.00  0.00     0.031 A 
ENDBRANCH   2  28
TORSDOF 6
ENDMDL
MODEL 3
REMARK VINA RESULT:      -9.1      3.981      6.506
REMARK  6 active torsions:
REMARK  status: ('A' for Active; 'I' for Inactive)
REMARK    1  A    between atoms: O_2  and  C_3 
REMARK    2  A    between atoms: C_4  and  C_5 
REMARK    3  A    between atoms: C_5  and  N_6 
REMARK       I    between atoms: N_6  and  C_7 
REMARK    4  A    between atoms: C_7  and  C_8 
REMARK    5  A    between atoms: C_8  and  O_9 
REMARK    6  A    between atoms: N_10  and  C_11 
ROOT
HETATM    1  C   UNL     1       6.381  28.672  55.546  1.00  0.00     0.256 C 
HETATM    2  N   UNL     1       5.777  29.576  56.540  1.00  0.00    -0.254 N 
HETATM    3  C   UNL     1       4.399  29.758  56.542  1.00  0.00     0.330 C 
HETATM    4  O   UNL     1       3.736  30.177  57.492  1.00  0.00    -0.246 OA
HETATM    5  N   UNL     1       3.713  29.423  55.413  1.00  0.00    -0.308 N 
HETATM    6  C   UNL     1       4.286  28.989  54.229  1.00  0.00     0.048 A 
HETATM    7  C   UNL     1       5.630  28.646  54.228  1.00  0.00     0.034 A 
HETATM    8  C   UNL     1       3.512  28.910  53.069  1.00  0.00     0.030 A 
HETATM    9  C   UNL     1       4.100  28.495  51.875  1.00  0.00     0.002 A 
HETATM   10  C   UNL     1       5.448  28.149  51.850  1.00  0.00     0.001 A 
HETATM   11  C   UNL     1       6.208  28.214  53.020  1.00  0.00     0.015 A 
HETATM   12  H   UNL     1       2.729  29.656  55.441  1.00  0.00     0.170 HD
ENDROOT
BRANCH   1  13
HETATM   13  C   UNL     1       6.501  27.192  56.096  1.00  0.00     0.279 C 
HETATM   14  N   UNL     1       7.625  26.473  55.753  1.00  0.00    -0.352 N 
HETATM   15  H   UNL     1       8.229  26.823  55.021  1.00  0.00     0.162 HD
HETATM   16  O   UNL     1       5.620  26.746  56.840  1.00  0.00    -0.268 OA
BRANCH  14  17
HETATM   17  C   UNL     1       7.832  25.103  56.184  1.00  0.00     0.164 C 
BRANCH  17  18
HETATM   18  C   UNL     1       7.892  24.095  55.056  1.00  0.00    -0.007 A 
HETATM   19  C   UNL     1       8.170  22.744  55.363  1.00  0.00     0.076 A 
HETATM   20  C   UNL     1       8.206  21.787  54.343  1.00  0.00     0.037 A 
HETATM   21  C   UNL     1       7.973  22.159  53.018  1.00  0.00     0.003 A 
HETATM   22  C   UNL     1       7.700  23.486  52.704  1.00  0.00     0.001 A 
HETATM   23  C   UNL     1       7.657  24.447  53.715  1.00  0.00     0.011 A 
BRANCH  19  24
HETATM   24  O   UNL     1       8.369  22.462  56.691  1.00  0.00    -0.355 OA
HETATM   25  C   UNL     1       8.386  21.089  57.065  1.00  0.00     0.210 C 
ENDBRANCH  19  24
ENDBRANCH  17  18
ENDBRANCH  14  17
ENDBRANCH   1  13
BRANCH   1  26
HETATM   26  O   UNL     1       7.693  29.159  55.223  1.00  0.00    -0.359 OA
HETATM   27  H   UNL     1       7.731  30.054  55.612  1.00  0.00     0.213 HD
ENDBRANCH   1  26
BRANCH   2  28
HETATM   28  C   UNL     1       6.576  30.125  57.612  1.00  0.00     0.043 A 
HETATM   29  C   UNL     1       7.609  29.405  58.234  1.00  0.00     0.031 A 
HETATM   30  C   UNL     1       8.387  29.976  59.251  1.00  0.00     0.026 A 
HETATM   31  C   UNL     1       8.152  31.286  59.654  1.00  0.00     0.034 A 
HETATM   32 CL   UNL     1       9.117  31.990  60.891  1.00  0.00    -0.084 Cl
HETATM   33  C   UNL     1       7.145  32.026  59.053  1.00  0.00     0.026 A 
HETATM   34  C   UNL     1       6.365  31.448  58.044  1.00  0.00     0.031 A 
ENDBRANCH   2  28
TORSDOF 6
ENDMDL
MODEL 4
REMARK VINA RESULT:      -9.1      4.689      8.077
REMARK  6 active torsions:
REMARK  status: ('A' for Active; 'I' for Inactive)
REMARK    1  A    between atoms: O_2  and  C_3 
REMARK    2  A    between atoms: C_4  and  C_5 
REMARK    3  A    between atoms: C_5  and  N_6 
REMARK       I    between atoms: N_6  and  C_7 
REMARK    4  A    between atoms: C_7  and  C_8 
REMARK    5  A    between atoms: C_8  and  O_9 
REMARK    6  A    between atoms: N_10  and  C_11 
ROOT
HETATM    1  C   UNL     1       5.883  28.701  56.534  1.00  0.00     0.256 C 
HETATM    2  N   UNL     1       6.239  27.706  55.507  1.00  0.00    -0.254 N 
HETATM    3  C   UNL     1       6.189  28.070  54.166  1.00  0.00     0.330 C 
HETATM    4  O   UNL     1       6.777  27.495  53.249  1.00  0.00    -0.246 OA
HETATM    5  N   UNL     1       5.455  29.168  53.833  1.00  0.00    -0.308 N 
HETATM    6  C   UNL     1       4.684  29.911  54.712  1.00  0.00     0.048 A 
HETATM    7  C   UNL     1       4.823  29.684  56.073  1.00  0.00     0.034 A 
HETATM    8  C   UNL     1       3.787  30.861  54.219  1.00  0.00     0.030 A 
HETATM    9  C   UNL     1       2.996  31.588  55.107  1.00  0.00     0.002 A 
HETATM   10  C   UNL     1       3.117  31.374  56.478  1.00  0.00     0.001 A 
HETATM   11  C   UNL     1       4.031  30.435  56.960  1.00  0.00     0.015 A 
HETATM   12  H   UNL     1       5.386  29.335  52.837  1.00  0.00     0.170 HD
ENDROOT
BRANCH   1  13
HETATM   13  C   UNL     1       7.150  29.509  57.031  1.00  0.00     0.279 C 
HETATM   14  N   UNL     1       7.262  29.755  58.382  1.00  0.00    -0.352 N 
HETATM   15  H   UNL     1       6.461  29.594  58.979  1.00  0.00     0.162 HD
HETATM   16  O   UNL     1       8.010  29.854  56.213  1.00  0.00    -0.268 OA
BRANCH  14  17
HETATM   17  C   UNL     1       8.370  30.502  58.947  1.00  0.00     0.164 C 
BRANCH  17  18
HETATM   18  C   UNL     1       8.058  31.185  60.262  1.00  0.00    -0.007 A 
HETATM   19  C   UNL     1       7.117  32.240  60.276  1.00  0.00     0.076 A 
HETATM   20  C   UNL     1       6.792  32.871  61.482  1.00  0.00     0.037 A 
HETATM   21  C   UNL     1       7.396  32.469  62.674  1.00  0.00     0.003 A 
HETATM   22  C   UNL     1       8.324  31.433  62.671  1.00  0.00     0.001 A 
HETATM   23  C   UNL     1       8.651  30.794  61.475  1.00  0.00     0.011 A 
BRANCH  19  24
HETATM   24  O   UNL     1       6.559  32.559  59.064  1.00  0.00    -0.355 OA
HETATM   25  C   UNL     1       5.250  33.117  59.082  1.00  0.00     0.210 C 
ENDBRANCH  19  24
ENDBRANCH  17  18
ENDBRANCH  14  17
ENDBRANCH   1  13
BRANCH   1  26
HETATM   26  O   UNL     1       5.299  28.014  57.653  1.00  0.00    -0.359 OA
HETATM   27  H   UNL     1       5.939  28.132  58.380  1.00  0.00     0.213 HD
ENDBRANCH   1  26
BRANCH   2  28
HETATM   28  C   UNL     1       6.804  26.431  55.885  1.00  0.00     0.043 A 
HETATM   29  C   UNL     1       7.958  26.318  56.679  1.00  0.00     0.031 A 
HETATM   30  C   UNL     1       8.465  25.066  57.055  1.00  0.00     0.026 A 
HETATM   31  C   UNL     1       7.816  23.905  56.654  1.00  0.00     0.034 A 
HETATM   32 CL   UNL     1       8.430  22.370  57.130  1.00  0.00    -0.084 Cl
HETATM   33  C   UNL     1       6.669  23.983  55.878  1.00  0.00     0.026 A 
HETATM   34  C   UNL     1       6.172  25.235  55.497  1.00  0.00     0.031 A 
ENDBRANCH   2  28
TORSDOF 6
ENDMDL
MODEL 5
REMARK VINA RESULT:      -9.1      3.452      7.012
REMARK  6 active torsions:
REMARK  status: ('A' for Active; 'I' for Inactive)
REMARK    1  A    between atoms: O_2  and  C_3 
REMARK    2  A    between atoms: C_4  and  C_5 
REMARK    3  A    between atoms: C_5  and  N_6 
REMARK       I    between atoms: N_6  and  C_7 
REMARK    4  A    between atoms: C_7  and  C_8 
REMARK    5  A    between atoms: C_8  and  O_9 
REMARK    6  A    between atoms: N_10  and  C_11 
ROOT
HETATM    1  C   UNL     1       6.110  26.240  54.294  1.00  0.00     0.256 C 
HETATM    2  N   UNL     1       6.922  25.240  53.579  1.00  0.00    -0.254 N 
HETATM    3  C   UNL     1       7.351  25.516  52.285  1.00  0.00     0.330 C 
HETATM    4  O   UNL     1       8.295  24.967  51.715  1.00  0.00    -0.246 OA
HETATM    5  N   UNL     1       6.698  26.491  51.594  1.00  0.00    -0.308 N 
HETATM    6  C   UNL     1       5.583  27.181  52.045  1.00  0.00     0.048 A 
HETATM    7  C   UNL     1       5.217  27.053  53.376  1.00  0.00     0.034 A 
HETATM    8  C   UNL     1       4.855  27.978  51.160  1.00  0.00     0.030 A 
HETATM    9  C   UNL     1       3.720  28.650  51.613  1.00  0.00     0.002 A 
HETATM   10  C   UNL     1       3.332  28.534  52.945  1.00  0.00     0.001 A 
HETATM   11  C   UNL     1       4.079  27.748  53.825  1.00  0.00     0.015 A 
HETATM   12  H   UNL     1       6.996  26.589  50.632  1.00  0.00     0.170 HD
ENDROOT
BRANCH   1  13
HETATM   13  C   UNL     1       7.011  27.230  55.139  1.00  0.00     0.279 C 
HETATM   14  N   UNL     1       6.796  27.286  56.499  1.00  0.00    -0.352 N 
HETATM   15  H   UNL     1       5.964  26.857  56.884  1.00  0.00     0.162 HD
HETATM   16  O   UNL     1       7.895  27.882  54.573  1.00  0.00    -0.268 OA
BRANCH  14  17
HETATM   17  C   UNL     1       7.548  28.170  57.370  1.00  0.00     0.164 C 
BRANCH  17  18
HETATM   18  C   UNL     1       6.814  29.434  57.763  1.00  0.00    -0.007 A 
HETATM   19  C   UNL     1       7.501  30.418  58.509  1.00  0.00     0.076 A 
HETATM   20  C   UNL     1       6.854  31.607  58.864  1.00  0.00     0.037 A 
HETATM   21  C   UNL     1       5.527  31.826  58.491  1.00  0.00     0.003 A 
HETATM   22  C   UNL     1       4.841  30.864  57.759  1.00  0.00     0.001 A 
HETATM   23  C   UNL     1       5.479  29.677  57.395  1.00  0.00     0.011 A 
BRANCH  19  24
HETATM   24  O   UNL     1       8.806  30.130  58.818  1.00  0.00    -0.355 OA
HETATM   25  C   UNL     1       9.793  31.067  58.400  1.00  0.00     0.210 C 
ENDBRANCH  19  24
ENDBRANCH  17  18
ENDBRANCH  14  17
ENDBRANCH   1  13
BRANCH   1  26
HETATM   26  O   UNL     1       5.213  25.551  55.180  1.00  0.00    -0.359 OA
HETATM   27  H   UNL     1       4.833  26.252  55.744  1.00  0.00     0.213 HD
ENDBRANCH   1  26
BRANCH   2  28
HETATM   28  C   UNL     1       7.420  24.071  54.267  1.00  0.00     0.043 A 
HETATM   29  C   UNL     1       7.226  22.766  53.785  1.00  0.00     0.031 A 
HETATM   30  C   UNL     1       7.747  21.654  54.461  1.00  0.00     0.026 A 
HETATM   31  C   UNL     1       8.485  21.830  55.625  1.00  0.00     0.034 A 
HETATM   32 CL   UNL     1       9.137  20.466  56.444  1.00  0.00    -0.084 Cl
HETATM   33  C   UNL     1       8.702  23.107  56.122  1.00  0.00     0.026 A 
HETATM   34  C   UNL     1       8.171  24.214  55.449  1.00  0.00     0.031 A 
ENDBRANCH   2  28
TORSDOF 6
ENDMDL
MODEL 6
REMARK VINA RESULT:      -9.0      1.209      1.863
REMARK  6 active torsions:
REMARK  status: ('A' for Active; 'I' for Inactive)
REMARK    1  A    between atoms: O_2  and  C_3 
REMARK    2  A    between atoms: C_4  and  C_5 
REMARK    3  A    between atoms: C_5  and  N_6 
REMARK       I    between atoms: N_6  and  C_7 
REMARK    4  A    between atoms: C_7  and  C_8 
REMARK    5  A    between atoms: C_8  and  O_9 
REMARK    6  A    between atoms: N_10  and  C_11 
ROOT
HETATM    1  C   UNL     1       4.732  26.892  53.026  1.00  0.00     0.256 C 
HETATM    2  N   UNL     1       4.873  27.819  51.889  1.00  0.00    -0.254 N 
HETATM    3  C   UNL     1       5.846  28.811  51.941  1.00  0.00     0.330 C 
HETATM    4  O   UNL     1       6.310  29.406  50.967  1.00  0.00    -0.246 OA
HETATM    5  N   UNL     1       6.353  29.140  53.162  1.00  0.00    -0.308 N 
HETATM    6  C   UNL     1       5.922  28.622  54.373  1.00  0.00     0.048 A 
HETATM    7  C   UNL     1       5.071  27.527  54.361  1.00  0.00     0.034 A 
HETATM    8  C   UNL     1       6.343  29.208  55.569  1.00  0.00     0.030 A 
HETATM    9  C   UNL     1       5.886  28.698  56.783  1.00  0.00     0.002 A 
HETATM   10  C   UNL     1       5.028  27.601  56.795  1.00  0.00     0.001 A 
HETATM   11  C   UNL     1       4.630  27.012  55.593  1.00  0.00     0.015 A 
HETATM   12  H   UNL     1       6.993  29.923  53.148  1.00  0.00     0.170 HD
ENDROOT
BRANCH   1  13
HETATM   13  C   UNL     1       5.619  25.594  52.836  1.00  0.00     0.279 C 
HETATM   14  N   UNL     1       6.948  25.672  53.190  1.00  0.00    -0.352 N 
HETATM   15  H   UNL     1       7.358  26.580  53.368  1.00  0.00     0.162 HD
HETATM   16  O   UNL     1       5.095  24.554  52.424  1.00  0.00    -0.268 OA
BRANCH  14  17
HETATM   17  C   UNL     1       7.859  24.552  53.042  1.00  0.00     0.164 C 
BRANCH  17  18
HETATM   18  C   UNL     1       8.029  23.714  54.291  1.00  0.00    -0.007 A 
HETATM   19  C   UNL     1       8.104  22.308  54.165  1.00  0.00     0.076 A 
HETATM   20  C   UNL     1       8.287  21.512  55.300  1.00  0.00     0.037 A 
HETATM   21  C   UNL     1       8.390  22.097  56.563  1.00  0.00     0.003 A 
HETATM   22  C   UNL     1       8.315  23.479  56.699  1.00  0.00     0.001 A 
HETATM   23  C   UNL     1       8.138  24.282  55.572  1.00  0.00     0.011 A 
BRANCH  19  24
HETATM   24  O   UNL     1       8.012  21.818  52.886  1.00  0.00    -0.355 OA
HETATM   25  C   UNL     1       8.222  20.421  52.712  1.00  0.00     0.210 C 
ENDBRANCH  19  24
ENDBRANCH  17  18
ENDBRANCH  14  17
ENDBRANCH   1  13
BRANCH   1  26
HETATM   26  O   UNL     1       3.353  26.504  53.132  1.00  0.00    -0.359 OA
HETATM   27  H   UNL     1       3.179  25.976  52.329  1.00  0.00     0.213 HD
ENDBRANCH   1  26
BRANCH   2  28
HETATM   28  C   UNL     1       4.140  27.594  50.665  1.00  0.00     0.043 A 
HETATM   29  C   UNL     1       4.455  26.558  49.770  1.00  0.00     0.031 A 
HETATM   30  C   UNL     1       3.705  26.347  48.605  1.00  0.00     0.026 A 
HETATM   31  C   UNL     1       2.616  27.162  48.322  1.00  0.00     0.034 A 
HETATM   32 CL   UNL     1       1.688  26.891  46.899  1.00  0.00    -0.084 Cl
HETATM   33  C   UNL     1       2.273  28.188  49.189  1.00  0.00     0.026 A 
HETATM   34  C   UNL     1       3.031  28.401  50.348  1.00  0.00     0.031 A 
ENDBRANCH   2  28
TORSDOF 6
ENDMDL
MODEL 7
REMARK VINA RESULT:      -8.7      2.508      3.688
REMARK  6 active torsions:
REMARK  status: ('A' for Active; 'I' for Inactive)
REMARK    1  A    between atoms: O_2  and  C_3 
REMARK    2  A    between atoms: C_4  and  C_5 
REMARK    3  A    between atoms: C_5  and  N_6 
REMARK       I    between atoms: N_6  and  C_7 
REMARK    4  A    between atoms: C_7  and  C_8 
REMARK    5  A    between atoms: C_8  and  O_9 
REMARK    6  A    between atoms: N_10  and  C_11 
ROOT
HETATM    1  C   UNL     1       3.801  29.162  52.169  1.00  0.00     0.256 C 
HETATM    2  N   UNL     1       3.464  29.485  50.771  1.00  0.00    -0.254 N 
HETATM    3  C   UNL     1       3.551  30.805  50.341  1.00  0.00     0.330 C 
HETATM    4  O   UNL     1       3.650  31.167  49.168  1.00  0.00    -0.246 OA
HETATM    5  N   UNL     1       3.555  31.782  51.290  1.00  0.00    -0.308 N 
HETATM    6  C   UNL     1       3.399  31.576  52.651  1.00  0.00     0.048 A 
HETATM    7  C   UNL     1       3.465  30.279  53.138  1.00  0.00     0.034 A 
HETATM    8  C   UNL     1       3.175  32.664  53.498  1.00  0.00     0.030 A 
HETATM    9  C   UNL     1       2.994  32.448  54.863  1.00  0.00     0.002 A 
HETATM   10  C   UNL     1       3.053  31.154  55.374  1.00  0.00     0.001 A 
HETATM   11  C   UNL     1       3.296  30.076  54.520  1.00  0.00     0.015 A 
HETATM   12  H   UNL     1       3.534  32.723  50.917  1.00  0.00     0.170 HD
ENDROOT
BRANCH   1  13
HETATM   13  C   UNL     1       5.330  28.785  52.331  1.00  0.00     0.279 C 
HETATM   14  N   UNL     1       5.652  27.800  53.238  1.00  0.00    -0.352 N 
HETATM   15  H   UNL     1       4.951  27.491  53.899  1.00  0.00     0.162 HD
HETATM   16  O   UNL     1       6.173  29.346  51.623  1.00  0.00    -0.268 OA
BRANCH  14  17
HETATM   17  C   UNL     1       7.020  27.386  53.484  1.00  0.00     0.164 C 
BRANCH  17  18
HETATM   18  C   UNL     1       7.223  25.886  53.524  1.00  0.00    -0.007 A 
HETATM   19  C   UNL     1       6.779  25.167  54.657  1.00  0.00     0.076 A 
HETATM   20  C   UNL     1       6.931  23.778  54.708  1.00  0.00     0.037 A 
HETATM   21  C   UNL     1       7.527  23.093  53.648  1.00  0.00     0.003 A 
HETATM   22  C   UNL     1       7.970  23.791  52.529  1.00  0.00     0.001 A 
HETATM   23  C   UNL     1       7.817  25.177  52.466  1.00  0.00     0.011 A 
BRANCH  19  24
HETATM   24  O   UNL     1       6.189  25.915  55.644  1.00  0.00    -0.355 OA
HETATM   25  C   UNL     1       5.959  25.271  56.893  1.00  0.00     0.210 C 
ENDBRANCH  19  24
ENDBRANCH  17  18
ENDBRANCH  14  17
ENDBRANCH   1  13
BRANCH   1  26
HETATM   26  O   UNL     1       2.997  28.047  52.586  1.00  0.00    -0.359 OA
HETATM   27  H   UNL     1       2.092  28.267  52.293  1.00  0.00     0.213 HD
ENDBRANCH   1  26
BRANCH   2  28
HETATM   28  C   UNL     1       3.224  28.431  49.812  1.00  0.00     0.043 A 
HETATM   29  C   UNL     1       1.973  28.227  49.207  1.00  0.00     0.031 A 
HETATM   30  C   UNL     1       1.779  27.214  48.258  1.00  0.00     0.026 A 
HETATM   31  C   UNL     1       2.839  26.396  47.886  1.00  0.00     0.034 A 
HETATM   32 CL   UNL     1       2.603  25.164  46.710  1.00  0.00    -0.084 Cl
HETATM   33  C   UNL     1       4.089  26.578  48.459  1.00  0.00     0.026 A 
HETATM   34  C   UNL     1       4.276  27.586  49.414  1.00  0.00     0.031 A 
ENDBRANCH   2  28
TORSDOF 6
ENDMDL
MODEL 8
REMARK VINA RESULT:      -8.6      3.967      7.545
REMARK  6 active torsions:
REMARK  status: ('A' for Active; 'I' for Inactive)
REMARK    1  A    between atoms: O_2  and  C_3 
REMARK    2  A    between atoms: C_4  and  C_5 
REMARK    3  A    between atoms: C_5  and  N_6 
REMARK       I    between atoms: N_6  and  C_7 
REMARK    4  A    between atoms: C_7  and  C_8 
REMARK    5  A    between atoms: C_8  and  O_9 
REMARK    6  A    between atoms: N_10  and  C_11 
ROOT
HETATM    1  C   UNL     1       6.196  27.249  56.280  1.00  0.00     0.256 C 
HETATM    2  N   UNL     1       6.806  26.390  55.249  1.00  0.00    -0.254 N 
HETATM    3  C   UNL     1       7.086  26.928  53.998  1.00  0.00     0.330 C 
HETATM    4  O   UNL     1       7.888  26.465  53.186  1.00  0.00    -0.246 OA
HETATM    5  N   UNL     1       6.445  28.077  53.643  1.00  0.00    -0.308 N 
HETATM    6  C   UNL     1       5.473  28.716  54.396  1.00  0.00     0.048 A 
HETATM    7  C   UNL     1       5.274  28.309  55.707  1.00  0.00     0.034 A 
HETATM    8  C   UNL     1       4.716  29.742  53.827  1.00  0.00     0.030 A 
HETATM    9  C   UNL     1       3.722  30.365  54.581  1.00  0.00     0.002 A 
HETATM   10  C   UNL     1       3.503  29.969  55.898  1.00  0.00     0.001 A 
HETATM   11  C   UNL     1       4.279  28.954  56.463  1.00  0.00     0.015 A 
HETATM   12  H   UNL     1       6.623  28.375  52.692  1.00  0.00     0.170 HD
ENDROOT
BRANCH   1  13
HETATM   13  C   UNL     1       7.293  27.956  57.176  1.00  0.00     0.279 C 
HETATM   14  N   UNL     1       7.621  29.260  56.875  1.00  0.00    -0.352 N 
HETATM   15  H   UNL     1       7.311  29.655  55.996  1.00  0.00     0.162 HD
HETATM   16  O   UNL     1       7.785  27.345  58.131  1.00  0.00    -0.268 OA
BRANCH  14  17
HETATM   17  C   UNL     1       8.624  30.001  57.615  1.00  0.00     0.164 C 
BRANCH  17  18
HETATM   18  C   UNL     1       8.117  30.638  58.891  1.00  0.00    -0.007 A 
HETATM   19  C   UNL     1       6.931  31.405  58.846  1.00  0.00     0.076 A 
HETATM   20  C   UNL     1       6.426  31.984  60.016  1.00  0.00     0.037 A 
HETATM   21  C   UNL     1       7.091  31.814  61.231  1.00  0.00     0.003 A 
HETATM   22  C   UNL     1       8.260  31.063  61.287  1.00  0.00     0.001 A 
HETATM   23  C   UNL     1       8.769  30.477  60.127  1.00  0.00     0.011 A 
BRANCH  19  24
HETATM   24  O   UNL     1       6.332  31.506  57.616  1.00  0.00    -0.355 OA
HETATM   25  C   UNL     1       5.327  32.503  57.465  1.00  0.00     0.210 C 
ENDBRANCH  19  24
ENDBRANCH  17  18
ENDBRANCH  14  17
ENDBRANCH   1  13
BRANCH   1  26
HETATM   26  O   UNL     1       5.361  26.435  57.118  1.00  0.00    -0.359 OA
HETATM   27  H   UNL     1       4.546  26.959  57.242  1.00  0.00     0.213 HD
ENDBRANCH   1  26
BRANCH   2  28
HETATM   28  C   UNL     1       7.273  25.064  55.582  1.00  0.00     0.043 A 
HETATM   29  C   UNL     1       6.692  23.900  55.053  1.00  0.00     0.031 A 
HETATM   30  C   UNL     1       7.188  22.628  55.372  1.00  0.00     0.026 A 
HETATM   31  C   UNL     1       8.283  22.500  56.217  1.00  0.00     0.034 A 
HETATM   32 CL   UNL     1       8.899  20.939  56.595  1.00  0.00    -0.084 Cl
HETATM   33  C   UNL     1       8.884  23.631  56.750  1.00  0.00     0.026 A 
HETATM   34  C   UNL     1       8.380  24.899  56.435  1.00  0.00     0.031 A 
ENDBRANCH   2  28
TORSDOF 6
ENDMDL
MODEL 9
REMARK VINA RESULT:      -8.6      2.906      6.622
REMARK  6 active torsions:
REMARK  status: ('A' for Active; 'I' for Inactive)
REMARK    1  A    between atoms: O_2  and  C_3 
REMARK    2  A    between atoms: C_4  and  C_5 
REMARK    3  A    between atoms: C_5  and  N_6 
REMARK       I    between atoms: N_6  and  C_7 
REMARK    4  A    between atoms: C_7  and  C_8 
REMARK    5  A    between atoms: C_8  and  O_9 
REMARK    6  A    between atoms: N_10  and  C_11 
ROOT
HETATM    1  C   UNL     1       6.109  26.636  55.274  1.00  0.00     0.256 C 
HETATM    2  N   UNL     1       6.204  27.938  55.958  1.00  0.00    -0.254 N 
HETATM    3  C   UNL     1       7.387  28.280  56.603  1.00  0.00     0.330 C 
HETATM    4  O   UNL     1       7.734  29.425  56.896  1.00  0.00    -0.246 OA
HETATM    5  N   UNL     1       8.251  27.275  56.918  1.00  0.00    -0.308 N 
HETATM    6  C   UNL     1       8.015  25.924  56.718  1.00  0.00     0.048 A 
HETATM    7  C   UNL     1       6.928  25.548  55.943  1.00  0.00     0.034 A 
HETATM    8  C   UNL     1       8.861  24.977  57.298  1.00  0.00     0.030 A 
HETATM    9  C   UNL     1       8.603  23.619  57.115  1.00  0.00     0.002 A 
HETATM   10  C   UNL     1       7.516  23.219  56.343  1.00  0.00     0.001 A 
HETATM   11  C   UNL     1       6.687  24.176  55.752  1.00  0.00     0.015 A 
HETATM   12  H   UNL     1       9.053  27.572  57.460  1.00  0.00     0.170 HD
ENDROOT
BRANCH   1  13
HETATM   13  C   UNL     1       6.542  26.740  53.754  1.00  0.00     0.279 C 
HETATM   14  N   UNL     1       5.608  26.401  52.800  1.00  0.00    -0.352 N 
HETATM   15  H   UNL     1       4.765  25.920  53.085  1.00  0.00     0.162 HD
HETATM   16  O   UNL     1       7.670  27.156  53.470  1.00  0.00    -0.268 OA
BRANCH  14  17
HETATM   17  C   UNL     1       5.899  26.440  51.379  1.00  0.00     0.164 C 
BRANCH  17  18
HETATM   18  C   UNL     1       5.259  27.596  50.641  1.00  0.00    -0.007 A 
HETATM   19  C   UNL     1       4.383  27.320  49.567  1.00  0.00     0.076 A 
HETATM   20  C   UNL     1       3.758  28.369  48.885  1.00  0.00     0.037 A 
HETATM   21  C   UNL     1       4.000  29.693  49.253  1.00  0.00     0.003 A 
HETATM   22  C   UNL     1       4.862  29.977  50.307  1.00  0.00     0.001 A 
HETATM   23  C   UNL     1       5.485  28.937  50.998  1.00  0.00     0.011 A 
BRANCH  19  24
HETATM   24  O   UNL     1       4.188  25.991  49.283  1.00  0.00    -0.355 OA
HETATM   25  C   UNL     1       3.299  25.682  48.215  1.00  0.00     0.210 C 
ENDBRANCH  19  24
ENDBRANCH  17  18
ENDBRANCH  14  17
ENDBRANCH   1  13
BRANCH   1  26
HETATM   26  O   UNL     1       4.749  26.181  55.342  1.00  0.00    -0.359 OA
HETATM   27  H   UNL     1       4.225  26.984  55.528  1.00  0.00     0.213 HD
ENDBRANCH   1  26
BRANCH   2  28
HETATM   28  C   UNL     1       5.155  28.921  55.810  1.00  0.00     0.043 A 
HETATM   29  C   UNL     1       4.351  29.340  56.883  1.00  0.00     0.031 A 
HETATM   30  C   UNL     1       3.361  30.318  56.714  1.00  0.00     0.026 A 
HETATM   31  C   UNL     1       3.169  30.906  55.470  1.00  0.00     0.034 A 
HETATM   32 CL   UNL     1       1.965  32.117  55.268  1.00  0.00    -0.084 Cl
HETATM   33  C   UNL     1       3.953  30.520  54.392  1.00  0.00     0.026 A 
HETATM   34  C   UNL     1       4.934  29.536  54.564  1.00  0.00     0.031 A 
ENDBRANCH   2  28
TORSDOF 6
ENDMDL
MODEL 10
REMARK VINA RESULT:      -8.5      3.727      6.513
REMARK  6 active torsions:
REMARK  status: ('A' for Active; 'I' for Inactive)
REMARK    1  A    between atoms: O_2  and  C_3 
REMARK    2  A    between atoms: C_4  and  C_5 
REMARK    3  A    between atoms: C_5  and  N_6 
REMARK       I    between atoms: N_6  and  C_7 
REMARK    4  A    between atoms: C_7  and  C_8 
REMARK    5  A    between atoms: C_8  and  O_9 
REMARK    6  A    between atoms: N_10  and  C_11 
ROOT
HETATM    1  C   UNL     1       5.356  28.206  55.293  1.00  0.00     0.256 C 
HETATM    2  N   UNL     1       5.593  27.721  53.922  1.00  0.00    -0.254 N 
HETATM    3  C   UNL     1       5.547  28.624  52.866  1.00  0.00     0.330 C 
HETATM    4  O   UNL     1       6.057  28.452  51.758  1.00  0.00    -0.246 OA
HETATM    5  N   UNL     1       4.911  29.811  53.074  1.00  0.00    -0.308 N 
HETATM    6  C   UNL     1       4.233  30.164  54.230  1.00  0.00     0.048 A 
HETATM    7  C   UNL     1       4.382  29.368  55.356  1.00  0.00     0.034 A 
HETATM    8  C   UNL     1       3.417  31.297  54.239  1.00  0.00     0.030 A 
HETATM    9  C   UNL     1       2.718  31.633  55.398  1.00  0.00     0.002 A 
HETATM   10  C   UNL     1       2.851  30.847  56.539  1.00  0.00     0.001 A 
HETATM   11  C   UNL     1       3.685  29.726  56.524  1.00  0.00     0.015 A 
HETATM   12  H   UNL     1       4.834  30.391  52.248  1.00  0.00     0.170 HD
ENDROOT
BRANCH   1  13
HETATM   13  C   UNL     1       6.704  28.629  56.007  1.00  0.00     0.279 C 
HETATM   14  N   UNL     1       6.889  28.229  57.312  1.00  0.00    -0.352 N 
HETATM   15  H   UNL     1       6.102  27.859  57.829  1.00  0.00     0.162 HD
HETATM   16  O   UNL     1       7.557  29.259  55.372  1.00  0.00    -0.268 OA
BRANCH  14  17
HETATM   17  C   UNL     1       8.076  28.574  58.070  1.00  0.00     0.164 C 
BRANCH  17  18
HETATM   18  C   UNL     1       8.044  29.956  58.688  1.00  0.00    -0.007 A 
HETATM   19  C   UNL     1       9.263  30.643  58.887  1.00  0.00     0.076 A 
HETATM   20  C   UNL     1       9.259  31.932  59.432  1.00  0.00     0.037 A 
HETATM   21  C   UNL     1       8.057  32.544  59.788  1.00  0.00     0.003 A 
HETATM   22  C   UNL     1       6.852  31.876  59.599  1.00  0.00     0.001 A 
HETATM   23  C   UNL     1       6.844  30.593  59.051  1.00  0.00     0.011 A 
BRANCH  19  24
HETATM   24  O   UNL     1      10.395  29.976  58.493  1.00  0.00    -0.355 OA
HETATM   25  C   UNL     1      10.967  30.353  57.246  1.00  0.00     0.210 C 
ENDBRANCH  19  24
ENDBRANCH  17  18
ENDBRANCH  14  17
ENDBRANCH   1  13
BRANCH   1  26
HETATM   26  O   UNL     1       4.737  27.154  56.050  1.00  0.00    -0.359 OA
HETATM   27  H   UNL     1       3.780  27.252  55.878  1.00  0.00     0.213 HD
ENDBRANCH   1  26
BRANCH   2  28
HETATM   28  C   UNL     1       6.046  26.368  53.692  1.00  0.00     0.043 A 
HETATM   29  C   UNL     1       5.230  25.384  53.108  1.00  0.00     0.031 A 
HETATM   30  C   UNL     1       5.708  24.088  52.869  1.00  0.00     0.026 A 
HETATM   31  C   UNL     1       7.017  23.758  53.199  1.00  0.00     0.034 A 
HETATM   32 CL   UNL     1       7.607  22.172  52.891  1.00  0.00    -0.084 Cl
HETATM   33  C   UNL     1       7.850  24.710  53.769  1.00  0.00     0.026 A 
HETATM   34  C   UNL     1       7.365  26.000  54.013  1.00  0.00     0.031 A 
ENDBRANCH   2  28
TORSDOF 6
ENDMDL
