MODEL 1
REMARK VINA RESULT:     -10.1      0.000      0.000
REMARK  3 active torsions:
REMARK  status: ('A' for Active; 'I' for Inactive)
REMARK    1  A    between atoms: C_12  and  C_13 
REMARK       I    between atoms: C_13  and  N_14 
REMARK    2  A    between atoms: N_14  and  C_15 
REMARK    3  A    between atoms: C_15  and  C_16 
ROOT
HETATM    1  C   UNL     1       8.385  20.500  52.994  1.00  0.00     0.001 A 
HETATM    2  C   UNL     1       7.800  21.768  52.956  1.00  0.00     0.016 A 
HETATM    3  C   UNL     1       7.665  22.504  54.135  1.00  0.00     0.026 A 
HETATM    4  C   UNL     1       8.120  21.969  55.357  1.00  0.00     0.081 A 
HETATM    5  O   UNL     1       8.039  22.609  56.575  1.00  0.00    -0.346 OA
HETATM    6  C   UNL     1       7.443  23.936  56.660  1.00  0.00     0.219 A 
HETATM    7  C   UNL     1       6.971  24.505  55.380  1.00  0.00     0.031 A 
HETATM    8  C   UNL     1       7.079  23.818  54.201  1.00  0.00     0.074 A 
HETATM    9  N   UNL     1       6.552  24.620  53.240  1.00  0.00    -0.276 N 
HETATM   10  H   UNL     1       6.463  24.437  52.247  1.00  0.00     0.189 HD
HETATM   11  N   UNL     1       6.107  25.802  53.720  1.00  0.00    -0.168 NA
HETATM   12  C   UNL     1       6.362  25.737  55.048  1.00  0.00     0.155 A 
HETATM   13  C   UNL     1       8.703  20.702  55.383  1.00  0.00     0.038 A 
HETATM   14  C   UNL     1       8.836  19.969  54.203  1.00  0.00     0.003 A 
ENDROOT
BRANCH  12  15
HETATM   15  C   UNL     1       6.031  26.838  55.966  1.00  0.00     0.272 C 
HETATM   16  N   UNL     1       7.102  27.267  56.711  1.00  0.00    -0.351 N 
HETATM   17  H   UNL     1       7.984  26.795  56.532  1.00  0.00     0.163 HD
HETATM   18  O   UNL     1       4.903  27.315  56.047  1.00  0.00    -0.266 OA
BRANCH  16  19
HETATM   19  C   UNL     1       7.020  28.326  57.680  1.00  0.00     0.161 C 
BRANCH  19  20
HETATM   20  C   UNL     1       8.264  29.177  57.670  1.00  0.00    -0.039 A 
HETATM   21  C   UNL     1       8.482  30.128  58.680  1.00  0.00     0.032 A 
HETATM   22  C   UNL     1       9.642  30.901  58.679  1.00  0.00     0.034 A 
HETATM   23 CL   UNL     1       9.893  32.068  59.919  1.00  0.00    -0.084 Cl
HETATM   24  C   UNL     1      10.602  30.736  57.682  1.00  0.00     0.024 A 
HETATM   25  C   UNL     1      10.398  29.790  56.677  1.00  0.00     0.002 A 
HETATM   26  C   UNL     1       9.236  29.014  56.671  1.00  0.00     0.009 A 
ENDBRANCH  19  20
ENDBRANCH  16  19
ENDBRANCH  12  15
TORSDOF 3
ENDMDL
MODEL 2
REMARK VINA RESULT:      -9.8      2.446      3.328
REMARK  3 active torsions:
REMARK  status: ('A' for Active; 'I' for Inactive)
REMARK    1  A    between atoms: C_12  and  C_13 
REMARK       I    between atoms: C_13  and  N_14 
REMARK    2  A    between atoms: N_14  and  C_15 
REMARK    3  A    between atoms: C_15  and  C_16 
ROOT
HETATM    1  C   UNL     1       8.806  21.953  54.494  1.00  0.00     0.001 A 
HETATM    2  C   UNL     1       8.702  22.887  55.529  1.00  0.00     0.016 A 
HETATM    3  C   UNL     1       7.991  24.071  55.325  1.00  0.00     0.026 A 
HETATM    4  C   UNL     1       7.379  24.321  54.080  1.00  0.00     0.081 A 
HETATM    5  O   UNL     1       6.654  25.452  53.773  1.00  0.00    -0.346 OA
HETATM    6  C   UNL     1       6.482  26.498  54.773  1.00  0.00     0.219 A 
HETATM    7  C   UNL     1       7.116  26.237  56.083  1.00  0.00     0.031 A 
HETATM    8  C   UNL     1       7.825  25.092  56.326  1.00  0.00     0.074 A 
HETATM    9  N   UNL     1       8.265  25.179  57.608  1.00  0.00    -0.276 N 
HETATM   10  H   UNL     1       8.824  24.512  58.127  1.00  0.00     0.189 HD
HETATM   11  N   UNL     1       7.880  26.317  58.226  1.00  0.00    -0.168 NA
HETATM   12  C   UNL     1       7.167  26.980  57.284  1.00  0.00     0.155 A 
HETATM   13  C   UNL     1       7.489  23.382  53.054  1.00  0.00     0.038 A 
HETATM   14  C   UNL     1       8.200  22.200  53.261  1.00  0.00     0.003 A 
ENDROOT
BRANCH  12  15
HETATM   15  C   UNL     1       6.551  28.290  57.544  1.00  0.00     0.272 C 
HETATM   16  N   UNL     1       7.462  29.266  57.866  1.00  0.00    -0.351 N 
HETATM   17  H   UNL     1       8.437  28.979  57.871  1.00  0.00     0.163 HD
HETATM   18  O   UNL     1       5.341  28.477  57.474  1.00  0.00    -0.266 OA
BRANCH  16  19
HETATM   19  C   UNL     1       7.096  30.624  58.168  1.00  0.00     0.161 C 
BRANCH  19  20
HETATM   20  C   UNL     1       7.662  31.063  59.494  1.00  0.00    -0.039 A 
HETATM   21  C   UNL     1       7.053  32.101  60.217  1.00  0.00     0.032 A 
HETATM   22  C   UNL     1       7.568  32.494  61.451  1.00  0.00     0.034 A 
HETATM   23 CL   UNL     1       6.816  33.773  62.324  1.00  0.00    -0.084 Cl
HETATM   24  C   UNL     1       8.686  31.858  61.987  1.00  0.00     0.024 A 
HETATM   25  C   UNL     1       9.295  30.821  61.280  1.00  0.00     0.002 A 
HETATM   26  C   UNL     1       8.786  30.425  60.041  1.00  0.00     0.009 A 
ENDBRANCH  19  20
ENDBRANCH  16  19
ENDBRANCH  12  15
TORSDOF 3
ENDMDL
MODEL 3
REMARK VINA RESULT:      -9.6      3.500      8.515
REMARK  3 active torsions:
REMARK  status: ('A' for Active; 'I' for Inactive)
REMARK    1  A    between atoms: C_12  and  C_13 
REMARK       I    between atoms: C_13  and  N_14 
REMARK    2  A    between atoms: N_14  and  C_15 
REMARK    3  A    between atoms: C_15  and  C_16 
ROOT
HETATM    1  C   UNL     1       8.150  31.892  60.776  1.00  0.00     0.001 A 
HETATM    2  C   UNL     1       7.469  31.061  59.882  1.00  0.00     0.016 A 
HETATM    3  C   UNL     1       8.126  30.576  58.749  1.00  0.00     0.026 A 
HETATM    4  C   UNL     1       9.472  30.923  58.511  1.00  0.00     0.081 A 
HETATM    5  O   UNL     1      10.214  30.500  57.430  1.00  0.00    -0.346 OA
HETATM    6  C   UNL     1       9.608  29.633  56.428  1.00  0.00     0.219 A 
HETATM    7  C   UNL     1       8.200  29.260  56.676  1.00  0.00     0.031 A 
HETATM    8  C   UNL     1       7.515  29.713  57.771  1.00  0.00     0.074 A 
HETATM    9  N   UNL     1       6.266  29.189  57.687  1.00  0.00    -0.276 N 
HETATM   10  H   UNL     1       5.487  29.313  58.324  1.00  0.00     0.189 HD
HETATM   11  N   UNL     1       6.089  28.407  56.599  1.00  0.00    -0.168 NA
HETATM   12  C   UNL     1       7.286  28.448  55.966  1.00  0.00     0.155 A 
HETATM   13  C   UNL     1      10.142  31.753  59.411  1.00  0.00     0.038 A 
HETATM   14  C   UNL     1       9.482  32.236  60.541  1.00  0.00     0.003 A 
ENDROOT
BRANCH  12  15
HETATM   15  C   UNL     1       7.537  27.719  54.713  1.00  0.00     0.272 C 
HETATM   16  N   UNL     1       7.261  26.376  54.801  1.00  0.00    -0.351 N 
HETATM   17  H   UNL     1       6.908  26.053  55.697  1.00  0.00     0.163 HD
HETATM   18  O   UNL     1       7.951  28.270  53.698  1.00  0.00    -0.266 OA
BRANCH  16  19
HETATM   19  C   UNL     1       7.436  25.458  53.708  1.00  0.00     0.161 C 
BRANCH  19  20
HETATM   20  C   UNL     1       7.655  24.051  54.202  1.00  0.00    -0.039 A 
HETATM   21  C   UNL     1       7.807  22.994  53.290  1.00  0.00     0.032 A 
HETATM   22  C   UNL     1       8.028  21.696  53.749  1.00  0.00     0.034 A 
HETATM   23 CL   UNL     1       8.204  20.408  52.621  1.00  0.00    -0.084 Cl
HETATM   24  C   UNL     1       8.109  21.433  55.115  1.00  0.00     0.024 A 
HETATM   25  C   UNL     1       7.966  22.477  56.029  1.00  0.00     0.002 A 
HETATM   26  C   UNL     1       7.741  23.779  55.576  1.00  0.00     0.009 A 
ENDBRANCH  19  20
ENDBRANCH  16  19
ENDBRANCH  12  15
TORSDOF 3
ENDMDL
MODEL 4
REMARK VINA RESULT:      -9.4      4.743     10.211
REMARK  3 active torsions:
REMARK  status: ('A' for Active; 'I' for Inactive)
REMARK    1  A    between atoms: C_12  and  C_13 
REMARK       I    between atoms: C_13  and  N_14 
REMARK    2  A    between atoms: N_14  and  C_15 
REMARK    3  A    between atoms: C_15  and  C_16 
ROOT
HETATM    1  C   UNL     1       7.221  33.776  64.972  1.00  0.00     0.001 A 
HETATM    2  C   UNL     1       7.830  32.849  64.122  1.00  0.00     0.016 A 
HETATM    3  C   UNL     1       7.390  32.727  62.802  1.00  0.00     0.026 A 
HETATM    4  C   UNL     1       6.337  33.537  62.331  1.00  0.00     0.081 A 
HETATM    5  O   UNL     1       5.828  33.500  61.051  1.00  0.00    -0.346 OA
HETATM    6  C   UNL     1       6.381  32.568  60.076  1.00  0.00     0.219 A 
HETATM    7  C   UNL     1       7.491  31.722  60.563  1.00  0.00     0.031 A 
HETATM    8  C   UNL     1       7.953  31.805  61.848  1.00  0.00     0.074 A 
HETATM    9  N   UNL     1       8.957  30.898  61.955  1.00  0.00    -0.276 N 
HETATM   10  H   UNL     1       9.528  30.684  62.765  1.00  0.00     0.189 HD
HETATM   11  N   UNL     1       9.189  30.224  60.807  1.00  0.00    -0.168 NA
HETATM   12  C   UNL     1       8.281  30.729  59.939  1.00  0.00     0.155 A 
HETATM   13  C   UNL     1       5.737  34.459  63.189  1.00  0.00     0.038 A 
HETATM   14  C   UNL     1       6.178  34.578  64.507  1.00  0.00     0.003 A 
ENDROOT
BRANCH  12  15
HETATM   15  C   UNL     1       8.186  30.267  58.545  1.00  0.00     0.272 C 
HETATM   16  N   UNL     1       6.966  29.716  58.237  1.00  0.00    -0.351 N 
HETATM   17  H   UNL     1       6.280  29.708  58.987  1.00  0.00     0.163 HD
HETATM   18  O   UNL     1       9.113  30.372  57.750  1.00  0.00    -0.266 OA
BRANCH  16  19
HETATM   19  C   UNL     1       6.640  29.189  56.939  1.00  0.00     0.161 C 
BRANCH  19  20
HETATM   20  C   UNL     1       6.543  27.686  56.966  1.00  0.00    -0.039 A 
HETATM   21  C   UNL     1       7.695  26.903  57.140  1.00  0.00     0.032 A 
HETATM   22  C   UNL     1       7.601  25.512  57.182  1.00  0.00     0.034 A 
HETATM   23 CL   UNL     1       9.023  24.564  57.388  1.00  0.00    -0.084 Cl
HETATM   24  C   UNL     1       6.364  24.883  57.060  1.00  0.00     0.024 A 
HETATM   25  C   UNL     1       5.211  25.651  56.893  1.00  0.00     0.002 A 
HETATM   26  C   UNL     1       5.300  27.045  56.847  1.00  0.00     0.009 A 
ENDBRANCH  19  20
ENDBRANCH  16  19
ENDBRANCH  12  15
TORSDOF 3
ENDMDL
MODEL 5
REMARK VINA RESULT:      -9.2      2.919      8.066
REMARK  3 active torsions:
REMARK  status: ('A' for Active; 'I' for Inactive)
REMARK    1  A    between atoms: C_12  and  C_13 
REMARK       I    between atoms: C_13  and  N_14 
REMARK    2  A    between atoms: N_14  and  C_15 
REMARK    3  A    between atoms: C_15  and  C_16 
ROOT
HETATM    1  C   UNL     1       8.082  32.207  60.512  1.00  0.00     0.001 A 
HETATM    2  C   UNL     1       7.197  31.461  59.729  1.00  0.00     0.016 A 
HETATM    3  C   UNL     1       7.677  30.753  58.625  1.00  0.00     0.026 A 
HETATM    4  C   UNL     1       9.049  30.792  58.304  1.00  0.00     0.081 A 
HETATM    5  O   UNL     1       9.627  30.131  57.243  1.00  0.00    -0.346 OA
HETATM    6  C   UNL     1       8.802  29.324  56.353  1.00  0.00     0.219 A 
HETATM    7  C   UNL     1       7.364  29.274  56.689  1.00  0.00     0.031 A 
HETATM    8  C   UNL     1       6.849  29.954  57.759  1.00  0.00     0.074 A 
HETATM    9  N   UNL     1       5.516  29.695  57.773  1.00  0.00    -0.276 N 
HETATM   10  H   UNL     1       4.816  30.032  58.424  1.00  0.00     0.189 HD
HETATM   11  N   UNL     1       5.124  28.874  56.774  1.00  0.00    -0.168 NA
HETATM   12  C   UNL     1       6.266  28.611  56.095  1.00  0.00     0.155 A 
HETATM   13  C   UNL     1       9.923  31.540  59.093  1.00  0.00     0.038 A 
HETATM   14  C   UNL     1       9.440  32.246  60.195  1.00  0.00     0.003 A 
ENDROOT
BRANCH  12  15
HETATM   15  C   UNL     1       6.292  27.738  54.911  1.00  0.00     0.272 C 
HETATM   16  N   UNL     1       5.492  26.628  55.036  1.00  0.00    -0.351 N 
HETATM   17  H   UNL     1       4.974  26.550  55.906  1.00  0.00     0.163 HD
HETATM   18  O   UNL     1       6.966  27.992  53.918  1.00  0.00    -0.266 OA
BRANCH  16  19
HETATM   19  C   UNL     1       5.361  25.627  54.011  1.00  0.00     0.161 C 
BRANCH  19  20
HETATM   20  C   UNL     1       6.445  24.586  54.119  1.00  0.00    -0.039 A 
HETATM   21  C   UNL     1       6.862  24.124  55.377  1.00  0.00     0.032 A 
HETATM   22  C   UNL     1       7.853  23.147  55.474  1.00  0.00     0.034 A 
HETATM   23 CL   UNL     1       8.360  22.595  57.024  1.00  0.00    -0.084 Cl
HETATM   24  C   UNL     1       8.434  22.613  54.327  1.00  0.00     0.024 A 
HETATM   25  C   UNL     1       8.023  23.060  53.071  1.00  0.00     0.002 A 
HETATM   26  C   UNL     1       7.033  24.041  52.967  1.00  0.00     0.009 A 
ENDBRANCH  19  20
ENDBRANCH  16  19
ENDBRANCH  12  15
TORSDOF 3
ENDMDL
MODEL 6
REMARK VINA RESULT:      -9.1      3.110      8.484
REMARK  3 active torsions:
REMARK  status: ('A' for Active; 'I' for Inactive)
REMARK    1  A    between atoms: C_12  and  C_13 
REMARK       I    between atoms: C_13  and  N_14 
REMARK    2  A    between atoms: N_14  and  C_15 
REMARK    3  A    between atoms: C_15  and  C_16 
ROOT
HETATM    1  C   UNL     1       8.969  32.343  60.798  1.00  0.00     0.001 A 
HETATM    2  C   UNL     1       9.289  31.418  59.801  1.00  0.00     0.016 A 
HETATM    3  C   UNL     1       8.288  30.937  58.955  1.00  0.00     0.026 A 
HETATM    4  C   UNL     1       6.960  31.384  59.108  1.00  0.00     0.081 A 
HETATM    5  O   UNL     1       5.899  30.978  58.329  1.00  0.00    -0.346 OA
HETATM    6  C   UNL     1       6.111  30.011  57.260  1.00  0.00     0.219 A 
HETATM    7  C   UNL     1       7.503  29.544  57.091  1.00  0.00     0.031 A 
HETATM    8  C   UNL     1       8.515  29.986  57.898  1.00  0.00     0.074 A 
HETATM    9  N   UNL     1       9.644  29.360  57.475  1.00  0.00    -0.276 N 
HETATM   10  H   UNL     1      10.585  29.445  57.842  1.00  0.00     0.189 HD
HETATM   11  N   UNL     1       9.433  28.534  56.427  1.00  0.00    -0.168 NA
HETATM   12  C   UNL     1       8.105  28.641  56.184  1.00  0.00     0.155 A 
HETATM   13  C   UNL     1       6.652  32.308  60.107  1.00  0.00     0.038 A 
HETATM   14  C   UNL     1       7.655  32.787  60.950  1.00  0.00     0.003 A 
ENDROOT
BRANCH  12  15
HETATM   15  C   UNL     1       7.442  27.896  55.103  1.00  0.00     0.272 C 
HETATM   16  N   UNL     1       6.746  26.798  55.547  1.00  0.00    -0.351 N 
HETATM   17  H   UNL     1       6.756  26.642  56.551  1.00  0.00     0.163 HD
HETATM   18  O   UNL     1       7.512  28.235  53.927  1.00  0.00    -0.266 OA
BRANCH  16  19
HETATM   19  C   UNL     1       6.023  25.912  54.674  1.00  0.00     0.161 C 
BRANCH  19  20
HETATM   20  C   UNL     1       6.806  24.654  54.398  1.00  0.00    -0.039 A 
HETATM   21  C   UNL     1       7.130  23.776  55.445  1.00  0.00     0.032 A 
HETATM   22  C   UNL     1       7.839  22.604  55.184  1.00  0.00     0.034 A 
HETATM   23 CL   UNL     1       8.236  21.539  56.477  1.00  0.00    -0.084 Cl
HETATM   24  C   UNL     1       8.228  22.286  53.884  1.00  0.00     0.024 A 
HETATM   25  C   UNL     1       7.905  23.149  52.837  1.00  0.00     0.002 A 
HETATM   26  C   UNL     1       7.198  24.326  53.092  1.00  0.00     0.009 A 
ENDBRANCH  19  20
ENDBRANCH  16  19
ENDBRANCH  12  15
TORSDOF 3
ENDMDL
MODEL 7
REMARK VINA RESULT:      -8.9      5.423      8.372
REMARK  3 active torsions:
REMARK  status: ('A' for Active; 'I' for Inactive)
REMARK    1  A    between atoms: C_12  and  C_13 
REMARK       I    between atoms: C_13  and  N_14 
REMARK    2  A    between atoms: N_14  and  C_15 
REMARK    3  A    between atoms: C_15  and  C_16 
ROOT
HETATM    1  C   UNL     1       3.814  29.725  47.148  1.00  0.00     0.001 A 
HETATM    2  C   UNL     1       3.903  28.547  47.894  1.00  0.00     0.016 A 
HETATM    3  C   UNL     1       4.546  28.560  49.133  1.00  0.00     0.026 A 
HETATM    4  C   UNL     1       5.102  29.758  49.628  1.00  0.00     0.081 A 
HETATM    5  O   UNL     1       5.754  29.882  50.835  1.00  0.00    -0.346 OA
HETATM    6  C   UNL     1       5.913  28.719  51.699  1.00  0.00     0.219 A 
HETATM    7  C   UNL     1       5.325  27.462  51.188  1.00  0.00     0.031 A 
HETATM    8  C   UNL     1       4.688  27.403  49.979  1.00  0.00     0.074 A 
HETATM    9  N   UNL     1       4.280  26.117  49.823  1.00  0.00    -0.276 N 
HETATM   10  H   UNL     1       3.778  25.706  49.045  1.00  0.00     0.189 HD
HETATM   11  N   UNL     1       4.607  25.325  50.868  1.00  0.00    -0.168 NA
HETATM   12  C   UNL     1       5.258  26.154  51.719  1.00  0.00     0.155 A 
HETATM   13  C   UNL     1       5.007  30.927  48.874  1.00  0.00     0.038 A 
HETATM   14  C   UNL     1       4.364  30.911  47.636  1.00  0.00     0.003 A 
ENDROOT
BRANCH  12  15
HETATM   15  C   UNL     1       5.794  25.692  53.009  1.00  0.00     0.272 C 
HETATM   16  N   UNL     1       7.139  25.415  52.972  1.00  0.00    -0.351 N 
HETATM   17  H   UNL     1       7.600  25.574  52.081  1.00  0.00     0.163 HD
HETATM   18  O   UNL     1       5.095  25.572  54.010  1.00  0.00    -0.266 OA
BRANCH  16  19
HETATM   19  C   UNL     1       7.882  24.942  54.109  1.00  0.00     0.161 C 
BRANCH  19  20
HETATM   20  C   UNL     1       7.959  23.437  54.128  1.00  0.00    -0.039 A 
HETATM   21  C   UNL     1       8.089  22.748  55.344  1.00  0.00     0.032 A 
HETATM   22  C   UNL     1       8.141  21.355  55.361  1.00  0.00     0.034 A 
HETATM   23 CL   UNL     1       8.308  20.523  56.858  1.00  0.00    -0.084 Cl
HETATM   24  C   UNL     1       8.058  20.630  54.174  1.00  0.00     0.024 A 
HETATM   25  C   UNL     1       7.923  21.304  52.961  1.00  0.00     0.002 A 
HETATM   26  C   UNL     1       7.872  22.700  52.937  1.00  0.00     0.009 A 
ENDBRANCH  19  20
ENDBRANCH  16  19
ENDBRANCH  12  15
TORSDOF 3
ENDMDL
MODEL 8
REMARK VINA RESULT:      -8.9      5.015      7.705
REMARK  3 active torsions:
REMARK  status: ('A' for Active; 'I' for Inactive)
REMARK    1  A    between atoms: C_12  and  C_13 
REMARK       I    between atoms: C_13  and  N_14 
REMARK    2  A    between atoms: N_14  and  C_15 
REMARK    3  A    between atoms: C_15  and  C_16 
ROOT
HETATM    1  C   UNL     1       4.573  29.778  48.069  1.00  0.00     0.001 A 
HETATM    2  C   UNL     1       4.825  29.806  49.443  1.00  0.00     0.016 A 
HETATM    3  C   UNL     1       5.003  28.609  50.139  1.00  0.00     0.026 A 
HETATM    4  C   UNL     1       4.929  27.378  49.456  1.00  0.00     0.081 A 
HETATM    5  O   UNL     1       5.091  26.142  50.043  1.00  0.00    -0.346 OA
HETATM    6  C   UNL     1       5.354  26.046  51.473  1.00  0.00     0.219 A 
HETATM    7  C   UNL     1       5.440  27.334  52.192  1.00  0.00     0.031 A 
HETATM    8  C   UNL     1       5.270  28.531  51.552  1.00  0.00     0.074 A 
HETATM    9  N   UNL     1       5.407  29.495  52.498  1.00  0.00    -0.276 N 
HETATM   10  H   UNL     1       5.342  30.501  52.386  1.00  0.00     0.189 HD
HETATM   11  N   UNL     1       5.666  29.000  53.728  1.00  0.00    -0.168 NA
HETATM   12  C   UNL     1       5.686  27.658  53.546  1.00  0.00     0.155 A 
HETATM   13  C   UNL     1       4.677  27.362  48.084  1.00  0.00     0.038 A 
HETATM   14  C   UNL     1       4.500  28.560  47.391  1.00  0.00     0.003 A 
ENDROOT
BRANCH  12  15
HETATM   15  C   UNL     1       5.940  26.720  54.650  1.00  0.00     0.272 C 
HETATM   16  N   UNL     1       7.147  26.071  54.545  1.00  0.00    -0.351 N 
HETATM   17  H   UNL     1       7.718  26.322  53.743  1.00  0.00     0.163 HD
HETATM   18  O   UNL     1       5.144  26.546  55.567  1.00  0.00    -0.266 OA
BRANCH  16  19
HETATM   19  C   UNL     1       7.611  25.102  55.502  1.00  0.00     0.161 C 
BRANCH  19  20
HETATM   20  C   UNL     1       7.760  23.740  54.875  1.00  0.00    -0.039 A 
HETATM   21  C   UNL     1       7.854  22.594  55.682  1.00  0.00     0.032 A 
HETATM   22  C   UNL     1       7.974  21.333  55.099  1.00  0.00     0.034 A 
HETATM   23 CL   UNL     1       8.096  19.937  56.099  1.00  0.00    -0.084 Cl
HETATM   24  C   UNL     1       7.995  21.193  53.713  1.00  0.00     0.024 A 
HETATM   25  C   UNL     1       7.896  22.324  52.903  1.00  0.00     0.002 A 
HETATM   26  C   UNL     1       7.779  23.590  53.480  1.00  0.00     0.009 A 
ENDBRANCH  19  20
ENDBRANCH  16  19
ENDBRANCH  12  15
TORSDOF 3
ENDMDL
MODEL 9
REMARK VINA RESULT:      -8.8      2.862      7.486
REMARK  3 active torsions:
REMARK  status: ('A' for Active; 'I' for Inactive)
REMARK    1  A    between atoms: C_12  and  C_13 
REMARK       I    between atoms: C_13  and  N_14 
REMARK    2  A    between atoms: N_14  and  C_15 
REMARK    3  A    between atoms: C_15  and  C_16 
ROOT
HETATM    1  C   UNL     1       6.433  31.195  58.046  1.00  0.00     0.001 A 
HETATM    2  C   UNL     1       5.896  30.502  56.959  1.00  0.00     0.016 A 
HETATM    3  C   UNL     1       6.415  29.254  56.608  1.00  0.00     0.026 A 
HETATM    4  C   UNL     1       7.476  28.697  57.351  1.00  0.00     0.081 A 
HETATM    5  O   UNL     1       8.060  27.476  57.094  1.00  0.00    -0.346 OA
HETATM    6  C   UNL     1       7.586  26.664  55.980  1.00  0.00     0.219 A 
HETATM    7  C   UNL     1       6.469  27.240  55.203  1.00  0.00     0.031 A 
HETATM    8  C   UNL     1       5.930  28.460  55.508  1.00  0.00     0.074 A 
HETATM    9  N   UNL     1       4.942  28.681  54.604  1.00  0.00    -0.276 N 
HETATM   10  H   UNL     1       4.329  29.485  54.525  1.00  0.00     0.189 HD
HETATM   11  N   UNL     1       4.793  27.668  53.722  1.00  0.00    -0.168 NA
HETATM   12  C   UNL     1       5.739  26.771  54.086  1.00  0.00     0.155 A 
HETATM   13  C   UNL     1       8.004  29.399  58.435  1.00  0.00     0.038 A 
HETATM   14  C   UNL     1       7.483  30.645  58.782  1.00  0.00     0.003 A 
ENDROOT
BRANCH  12  15
HETATM   15  C   UNL     1       5.927  25.496  53.377  1.00  0.00     0.272 C 
HETATM   16  N   UNL     1       7.245  25.195  53.137  1.00  0.00    -0.351 N 
HETATM   17  H   UNL     1       7.924  25.867  53.485  1.00  0.00     0.163 HD
HETATM   18  O   UNL     1       4.987  24.782  53.041  1.00  0.00    -0.266 OA
BRANCH  16  19
HETATM   19  C   UNL     1       7.675  24.005  52.453  1.00  0.00     0.161 C 
BRANCH  19  20
HETATM   20  C   UNL     1       7.869  22.860  53.413  1.00  0.00    -0.039 A 
HETATM   21  C   UNL     1       8.026  23.104  54.787  1.00  0.00     0.032 A 
HETATM   22  C   UNL     1       8.188  22.042  55.675  1.00  0.00     0.034 A 
HETATM   23 CL   UNL     1       8.388  22.355  57.356  1.00  0.00    -0.084 Cl
HETATM   24  C   UNL     1       8.187  20.727  55.214  1.00  0.00     0.024 A 
HETATM   25  C   UNL     1       8.025  20.473  53.852  1.00  0.00     0.002 A 
HETATM   26  C   UNL     1       7.866  21.533  52.956  1.00  0.00     0.009 A 
ENDBRANCH  19  20
ENDBRANCH  16  19
ENDBRANCH  12  15
TORSDOF 3
ENDMDL
MODEL 10
REMARK VINA RESULT:      -8.8      5.386     10.385
REMARK  3 active torsions:
REMARK  status: ('A' for Active; 'I' for Inactive)
REMARK    1  A    between atoms: C_12  and  C_13 
REMARK       I    between atoms: C_13  and  N_14 
REMARK    2  A    between atoms: N_14  and  C_15 
REMARK    3  A    between atoms: C_15  and  C_16 
ROOT
HETATM    1  C   UNL     1       4.550  33.911  64.711  1.00  0.00     0.001 A 
HETATM    2  C   UNL     1       4.761  33.541  63.380  1.00  0.00     0.016 A 
HETATM    3  C   UNL     1       6.031  33.135  62.966  1.00  0.00     0.026 A 
HETATM    4  C   UNL     1       7.096  33.100  63.890  1.00  0.00     0.081 A 
HETATM    5  O   UNL     1       8.384  32.714  63.590  1.00  0.00    -0.346 OA
HETATM    6  C   UNL     1       8.724  32.311  62.231  1.00  0.00     0.219 A 
HETATM    7  C   UNL     1       7.610  32.340  61.261  1.00  0.00     0.031 A 
HETATM    8  C   UNL     1       6.349  32.732  61.621  1.00  0.00     0.074 A 
HETATM    9  N   UNL     1       5.586  32.645  60.502  1.00  0.00    -0.276 N 
HETATM   10  H   UNL     1       4.601  32.859  60.393  1.00  0.00     0.189 HD
HETATM   11  N   UNL     1       6.272  32.208  59.423  1.00  0.00    -0.168 NA
HETATM   12  C   UNL     1       7.530  32.018  59.886  1.00  0.00     0.155 A 
HETATM   13  C   UNL     1       6.874  33.471  65.216  1.00  0.00     0.038 A 
HETATM   14  C   UNL     1       5.604  33.876  65.626  1.00  0.00     0.003 A 
ENDROOT
BRANCH  12  15
HETATM   15  C   UNL     1       8.620  31.535  59.025  1.00  0.00     0.272 C 
HETATM   16  N   UNL     1       8.427  30.254  58.569  1.00  0.00    -0.351 N 
HETATM   17  H   UNL     1       7.563  29.805  58.860  1.00  0.00     0.163 HD
HETATM   18  O   UNL     1       9.599  32.222  58.749  1.00  0.00    -0.266 OA
BRANCH  16  19
HETATM   19  C   UNL     1       9.360  29.567  57.717  1.00  0.00     0.161 C 
BRANCH  19  20
HETATM   20  C   UNL     1       8.655  28.609  56.791  1.00  0.00    -0.039 A 
HETATM   21  C   UNL     1       8.220  27.359  57.260  1.00  0.00     0.032 A 
HETATM   22  C   UNL     1       7.553  26.482  56.406  1.00  0.00     0.034 A 
HETATM   23 CL   UNL     1       7.031  24.949  56.991  1.00  0.00    -0.084 Cl
HETATM   24  C   UNL     1       7.302  26.836  55.082  1.00  0.00     0.024 A 
HETATM   25  C   UNL     1       7.724  28.078  54.608  1.00  0.00     0.002 A 
HETATM   26  C   UNL     1       8.397  28.960  55.457  1.00  0.00     0.009 A 
ENDBRANCH  19  20
ENDBRANCH  16  19
ENDBRANCH  12  15
TORSDOF 3
ENDMDL
