MODEL 1
REMARK VINA RESULT:      -8.3      0.000      0.000
REMARK  5 active torsions:
REMARK  status: ('A' for Active; 'I' for Inactive)
REMARK    1  A    between atoms: C_4  and  C_5 
REMARK       I    between atoms: C_5  and  N_6 
REMARK    2  A    between atoms: N_6  and  C_7 
REMARK    3  A    between atoms: C_7  and  C_8 
REMARK    4  A    between atoms: C_8  and  C_9 
REMARK    5  A    between atoms: C_18  and  O_19 
ROOT
HETATM    1  C   UNL     1       5.225  26.541  52.201  1.00  0.00     0.254 C 
HETATM    2  N   UNL     1       5.523  25.200  52.181  1.00  0.00    -0.356 N 
HETATM    3  O   UNL     1       5.031  27.154  53.247  1.00  0.00    -0.268 OA
HETATM    4  H   UNL     1       5.812  24.808  51.286  1.00  0.00     0.162 HD
ENDROOT
BRANCH   2   5
HETATM    5  C   UNL     1       5.763  24.450  53.398  1.00  0.00     0.136 C 
BRANCH   5   6
HETATM    6  C   UNL     1       7.273  24.265  53.730  1.00  0.00    -0.004 C 
HETATM    7  C   UNL     1       8.099  24.769  52.524  1.00  0.00     0.021 C 
HETATM    8  C   UNL     1       7.611  25.185  54.928  1.00  0.00     0.021 C 
BRANCH   6   9
HETATM    9  C   UNL     1       7.624  22.785  53.971  1.00  0.00    -0.046 A 
HETATM   10  C   UNL     1       7.986  21.953  52.899  1.00  0.00     0.027 A 
HETATM   11  C   UNL     1       8.294  20.620  53.137  1.00  0.00     0.116 A 
HETATM   12  N   UNL     1       8.274  20.051  54.358  1.00  0.00    -0.273 NA
HETATM   13  C   UNL     1       7.941  20.857  55.384  1.00  0.00     0.116 A 
HETATM   14  C   UNL     1       7.613  22.200  55.245  1.00  0.00     0.027 A 
ENDBRANCH   6   9
ENDBRANCH   5   6
ENDBRANCH   2   5
BRANCH   1  15
HETATM   15  C   UNL     1       5.155  27.248  50.880  1.00  0.00     0.065 A 
HETATM   16  C   UNL     1       4.607  26.529  49.803  1.00  0.00     0.026 A 
HETATM   17  C   UNL     1       4.501  27.098  48.526  1.00  0.00    -0.061 A 
HETATM   18  C   UNL     1       3.893  26.331  47.390  1.00  0.00     0.048 C 
HETATM   19  C   UNL     1       4.942  28.411  48.330  1.00  0.00     0.009 A 
HETATM   20  C   UNL     1       5.484  29.141  49.389  1.00  0.00     0.038 A 
HETATM   21  C   UNL     1       5.587  28.565  50.658  1.00  0.00     0.081 A 
BRANCH  21  22
HETATM   22  O   UNL     1       6.111  29.319  51.678  1.00  0.00    -0.360 OA
HETATM   23  H   UNL     1       6.926  29.749  51.366  1.00  0.00     0.217 HD
ENDBRANCH  21  22
ENDBRANCH   1  15
TORSDOF 5
ENDMDL
MODEL 2
REMARK VINA RESULT:      -8.2      4.407      7.609
REMARK  5 active torsions:
REMARK  status: ('A' for Active; 'I' for Inactive)
REMARK    1  A    between atoms: C_4  and  C_5 
REMARK       I    between atoms: C_5  and  N_6 
REMARK    2  A    between atoms: N_6  and  C_7 
REMARK    3  A    between atoms: C_7  and  C_8 
REMARK    4  A    between atoms: C_8  and  C_9 
REMARK    5  A    between atoms: C_18  and  O_19 
ROOT
HETATM    1  C   UNL     1       7.107  25.044  56.332  1.00  0.00     0.254 C 
HETATM    2  N   UNL     1       7.963  26.099  56.537  1.00  0.00    -0.356 N 
HETATM    3  O   UNL     1       6.135  24.839  57.054  1.00  0.00    -0.268 OA
HETATM    4  H   UNL     1       8.652  26.278  55.808  1.00  0.00     0.162 HD
ENDROOT
BRANCH   2   5
HETATM    5  C   UNL     1       7.700  27.117  57.534  1.00  0.00     0.136 C 
BRANCH   5   6
HETATM    6  C   UNL     1       7.476  28.536  56.933  1.00  0.00    -0.004 C 
HETATM    7  C   UNL     1       7.451  28.411  55.392  1.00  0.00     0.021 C 
HETATM    8  C   UNL     1       6.074  29.022  57.373  1.00  0.00     0.021 C 
BRANCH   6   9
HETATM    9  C   UNL     1       8.613  29.501  57.320  1.00  0.00    -0.046 A 
HETATM   10  C   UNL     1       8.405  30.498  58.288  1.00  0.00     0.027 A 
HETATM   11  C   UNL     1       9.441  31.360  58.620  1.00  0.00     0.116 A 
HETATM   12  N   UNL     1      10.669  31.307  58.068  1.00  0.00    -0.273 NA
HETATM   13  C   UNL     1      10.867  30.339  57.151  1.00  0.00     0.116 A 
HETATM   14  C   UNL     1       9.893  29.433  56.752  1.00  0.00     0.027 A 
ENDBRANCH   6   9
ENDBRANCH   5   6
ENDBRANCH   2   5
BRANCH   1  15
HETATM   15  C   UNL     1       7.396  24.142  55.170  1.00  0.00     0.065 A 
HETATM   16  C   UNL     1       7.583  22.777  55.455  1.00  0.00     0.026 A 
HETATM   17  C   UNL     1       7.863  21.852  54.439  1.00  0.00    -0.061 A 
HETATM   18  C   UNL     1       8.037  20.396  54.752  1.00  0.00     0.048 C 
HETATM   19  C   UNL     1       7.945  22.301  53.117  1.00  0.00     0.009 A 
HETATM   20  C   UNL     1       7.757  23.651  52.815  1.00  0.00     0.038 A 
HETATM   21  C   UNL     1       7.480  24.566  53.834  1.00  0.00     0.081 A 
BRANCH  21  22
HETATM   22  O   UNL     1       7.286  25.882  53.497  1.00  0.00    -0.360 OA
HETATM   23  H   UNL     1       8.145  26.340  53.506  1.00  0.00     0.217 HD
ENDBRANCH  21  22
ENDBRANCH   1  15
TORSDOF 5
ENDMDL
MODEL 3
REMARK VINA RESULT:      -8.2      4.879      8.129
REMARK  5 active torsions:
REMARK  status: ('A' for Active; 'I' for Inactive)
REMARK    1  A    between atoms: C_4  and  C_5 
REMARK       I    between atoms: C_5  and  N_6 
REMARK    2  A    between atoms: N_6  and  C_7 
REMARK    3  A    between atoms: C_7  and  C_8 
REMARK    4  A    between atoms: C_8  and  C_9 
REMARK    5  A    between atoms: C_18  and  O_19 
ROOT
HETATM    1  C   UNL     1       8.303  24.922  57.212  1.00  0.00     0.254 C 
HETATM    2  N   UNL     1       7.642  26.080  56.876  1.00  0.00    -0.356 N 
HETATM    3  O   UNL     1       8.970  24.821  58.238  1.00  0.00    -0.268 OA
HETATM    4  H   UNL     1       6.997  26.028  56.090  1.00  0.00     0.162 HD
ENDROOT
BRANCH   2   5
HETATM    5  C   UNL     1       7.578  27.213  57.777  1.00  0.00     0.136 C 
BRANCH   5   6
HETATM    6  C   UNL     1       7.443  28.583  57.048  1.00  0.00    -0.004 C 
HETATM    7  C   UNL     1       7.459  28.323  55.524  1.00  0.00     0.021 C 
HETATM    8  C   UNL     1       6.054  29.169  57.394  1.00  0.00     0.021 C 
BRANCH   6   9
HETATM    9  C   UNL     1       8.613  29.525  57.390  1.00  0.00    -0.046 A 
HETATM   10  C   UNL     1       9.861  29.370  56.764  1.00  0.00     0.027 A 
HETATM   11  C   UNL     1      10.904  30.227  57.090  1.00  0.00     0.116 A 
HETATM   12  N   UNL     1      10.801  31.229  57.985  1.00  0.00    -0.273 NA
HETATM   13  C   UNL     1       9.598  31.382  58.571  1.00  0.00     0.116 A 
HETATM   14  C   UNL     1       8.498  30.573  58.313  1.00  0.00     0.027 A 
ENDBRANCH   6   9
ENDBRANCH   5   6
ENDBRANCH   2   5
BRANCH   1  15
HETATM   15  C   UNL     1       8.169  23.760  56.274  1.00  0.00     0.065 A 
HETATM   16  C   UNL     1       8.037  24.059  54.906  1.00  0.00     0.026 A 
HETATM   17  C   UNL     1       7.901  23.043  53.948  1.00  0.00    -0.061 A 
HETATM   18  C   UNL     1       7.786  23.373  52.490  1.00  0.00     0.048 C 
HETATM   19  C   UNL     1       7.908  21.710  54.368  1.00  0.00     0.009 A 
HETATM   20  C   UNL     1       8.042  21.394  55.721  1.00  0.00     0.038 A 
HETATM   21  C   UNL     1       8.176  22.413  56.669  1.00  0.00     0.081 A 
BRANCH  21  22
HETATM   22  O   UNL     1       8.321  22.064  57.988  1.00  0.00    -0.360 OA
HETATM   23  H   UNL     1       8.468  22.870  58.514  1.00  0.00     0.217 HD
ENDBRANCH  21  22
ENDBRANCH   1  15
TORSDOF 5
ENDMDL
MODEL 4
REMARK VINA RESULT:      -8.2      3.774      7.452
REMARK  5 active torsions:
REMARK  status: ('A' for Active; 'I' for Inactive)
REMARK    1  A    between atoms: C_4  and  C_5 
REMARK       I    between atoms: C_5  and  N_6 
REMARK    2  A    between atoms: N_6  and  C_7 
REMARK    3  A    between atoms: C_7  and  C_8 
REMARK    4  A    between atoms: C_8  and  C_9 
REMARK    5  A    between atoms: C_18  and  O_19 
ROOT
HETATM    1  C   UNL     1       7.126  24.026  55.972  1.00  0.00     0.254 C 
HETATM    2  N   UNL     1       6.428  24.604  54.939  1.00  0.00    -0.356 N 
HETATM    3  O   UNL     1       7.263  24.576  57.061  1.00  0.00    -0.268 OA
HETATM    4  H   UNL     1       6.241  24.018  54.128  1.00  0.00     0.162 HD
ENDROOT
BRANCH   2   5
HETATM    5  C   UNL     1       5.691  25.840  55.111  1.00  0.00     0.136 C 
BRANCH   5   6
HETATM    6  C   UNL     1       6.406  27.082  54.503  1.00  0.00    -0.004 C 
HETATM    7  C   UNL     1       7.429  26.587  53.454  1.00  0.00     0.021 C 
HETATM    8  C   UNL     1       5.346  27.917  53.745  1.00  0.00     0.021 C 
BRANCH   6   9
HETATM    9  C   UNL     1       7.166  27.882  55.578  1.00  0.00    -0.046 A 
HETATM   10  C   UNL     1       8.297  28.642  55.237  1.00  0.00     0.027 A 
HETATM   11  C   UNL     1       8.971  29.351  56.222  1.00  0.00     0.116 A 
HETATM   12  N   UNL     1       8.605  29.369  57.518  1.00  0.00    -0.273 NA
HETATM   13  C   UNL     1       7.510  28.651  57.837  1.00  0.00     0.116 A 
HETATM   14  C   UNL     1       6.774  27.907  56.924  1.00  0.00     0.027 A 
ENDBRANCH   6   9
ENDBRANCH   5   6
ENDBRANCH   2   5
BRANCH   1  15
HETATM   15  C   UNL     1       7.717  22.670  55.725  1.00  0.00     0.065 A 
HETATM   16  C   UNL     1       7.704  22.202  54.399  1.00  0.00     0.026 A 
HETATM   17  C   UNL     1       8.228  20.945  54.065  1.00  0.00    -0.061 A 
HETATM   18  C   UNL     1       8.230  20.467  52.643  1.00  0.00     0.048 C 
HETATM   19  C   UNL     1       8.782  20.151  55.073  1.00  0.00     0.009 A 
HETATM   20  C   UNL     1       8.809  20.601  56.394  1.00  0.00     0.038 A 
HETATM   21  C   UNL     1       8.283  21.855  56.719  1.00  0.00     0.081 A 
BRANCH  21  22
HETATM   22  O   UNL     1       8.340  22.270  58.026  1.00  0.00    -0.360 OA
HETATM   23  H   UNL     1       9.224  22.072  58.381  1.00  0.00     0.217 HD
ENDBRANCH  21  22
ENDBRANCH   1  15
TORSDOF 5
ENDMDL
MODEL 5
REMARK VINA RESULT:      -8.2      4.186      7.574
REMARK  5 active torsions:
REMARK  status: ('A' for Active; 'I' for Inactive)
REMARK    1  A    between atoms: C_4  and  C_5 
REMARK       I    between atoms: C_5  and  N_6 
REMARK    2  A    between atoms: N_6  and  C_7 
REMARK    3  A    between atoms: C_7  and  C_8 
REMARK    4  A    between atoms: C_8  and  C_9 
REMARK    5  A    between atoms: C_18  and  O_19 
ROOT
HETATM    1  C   UNL     1       6.906  24.893  54.570  1.00  0.00     0.254 C 
HETATM    2  N   UNL     1       7.532  25.970  55.150  1.00  0.00    -0.356 N 
HETATM    3  O   UNL     1       5.946  25.020  53.814  1.00  0.00    -0.268 OA
HETATM    4  H   UNL     1       8.405  25.783  55.641  1.00  0.00     0.162 HD
ENDROOT
BRANCH   2   5
HETATM    5  C   UNL     1       7.187  27.334  54.802  1.00  0.00     0.136 C 
BRANCH   5   6
HETATM    6  C   UNL     1       6.879  28.233  56.036  1.00  0.00    -0.004 C 
HETATM    7  C   UNL     1       5.826  29.285  55.616  1.00  0.00     0.021 C 
HETATM    8  C   UNL     1       6.226  27.343  57.120  1.00  0.00     0.021 C 
BRANCH   6   9
HETATM    9  C   UNL     1       8.137  28.977  56.524  1.00  0.00    -0.046 A 
HETATM   10  C   UNL     1       8.218  29.452  57.843  1.00  0.00     0.027 A 
HETATM   11  C   UNL     1       9.358  30.124  58.262  1.00  0.00     0.116 A 
HETATM   12  N   UNL     1      10.426  30.356  57.474  1.00  0.00    -0.273 NA
HETATM   13  C   UNL     1      10.348  29.885  56.214  1.00  0.00     0.116 A 
HETATM   14  C   UNL     1       9.250  29.205  55.703  1.00  0.00     0.027 A 
ENDBRANCH   6   9
ENDBRANCH   5   6
ENDBRANCH   2   5
BRANCH   1  15
HETATM   15  C   UNL     1       7.451  23.532  54.885  1.00  0.00     0.065 A 
HETATM   16  C   UNL     1       7.620  22.648  53.804  1.00  0.00     0.026 A 
HETATM   17  C   UNL     1       8.118  21.351  53.994  1.00  0.00    -0.061 A 
HETATM   18  C   UNL     1       8.316  20.427  52.830  1.00  0.00     0.048 C 
HETATM   19  C   UNL     1       8.462  20.939  55.285  1.00  0.00     0.009 A 
HETATM   20  C   UNL     1       8.306  21.805  56.369  1.00  0.00     0.038 A 
HETATM   21  C   UNL     1       7.807  23.095  56.171  1.00  0.00     0.081 A 
BRANCH  21  22
HETATM   22  O   UNL     1       7.682  23.922  57.258  1.00  0.00    -0.360 OA
HETATM   23  H   UNL     1       7.062  23.520  57.891  1.00  0.00     0.217 HD
ENDBRANCH  21  22
ENDBRANCH   1  15
TORSDOF 5
ENDMDL
MODEL 6
REMARK VINA RESULT:      -8.1      2.222      7.323
REMARK  5 active torsions:
REMARK  status: ('A' for Active; 'I' for Inactive)
REMARK    1  A    between atoms: C_4  and  C_5 
REMARK       I    between atoms: C_5  and  N_6 
REMARK    2  A    between atoms: N_6  and  C_7 
REMARK    3  A    between atoms: C_7  and  C_8 
REMARK    4  A    between atoms: C_8  and  C_9 
REMARK    5  A    between atoms: C_18  and  O_19 
ROOT
HETATM    1  C   UNL     1       7.652  24.820  54.881  1.00  0.00     0.254 C 
HETATM    2  N   UNL     1       7.359  25.209  53.596  1.00  0.00    -0.356 N 
HETATM    3  O   UNL     1       7.670  25.613  55.819  1.00  0.00    -0.268 OA
HETATM    4  H   UNL     1       7.222  24.467  52.911  1.00  0.00     0.162 HD
ENDROOT
BRANCH   2   5
HETATM    5  C   UNL     1       6.920  26.555  53.285  1.00  0.00     0.136 C 
BRANCH   5   6
HETATM    6  C   UNL     1       5.420  26.643  52.876  1.00  0.00    -0.004 C 
HETATM    7  C   UNL     1       4.803  25.230  52.991  1.00  0.00     0.021 C 
HETATM    8  C   UNL     1       4.698  27.539  53.911  1.00  0.00     0.021 C 
BRANCH   6   9
HETATM    9  C   UNL     1       5.255  27.126  51.422  1.00  0.00    -0.046 A 
HETATM   10  C   UNL     1       5.461  28.475  51.090  1.00  0.00     0.027 A 
HETATM   11  C   UNL     1       5.303  28.890  49.775  1.00  0.00     0.116 A 
HETATM   12  N   UNL     1       4.963  28.069  48.763  1.00  0.00    -0.273 NA
HETATM   13  C   UNL     1       4.781  26.773  49.085  1.00  0.00     0.116 A 
HETATM   14  C   UNL     1       4.912  26.264  50.371  1.00  0.00     0.027 A 
ENDBRANCH   6   9
ENDBRANCH   5   6
ENDBRANCH   2   5
BRANCH   1  15
HETATM   15  C   UNL     1       7.941  23.366  55.107  1.00  0.00     0.065 A 
HETATM   16  C   UNL     1       8.000  22.544  53.967  1.00  0.00     0.026 A 
HETATM   17  C   UNL     1       8.260  21.170  54.072  1.00  0.00    -0.061 A 
HETATM   18  C   UNL     1       8.343  20.309  52.848  1.00  0.00     0.048 C 
HETATM   19  C   UNL     1       8.474  20.616  55.337  1.00  0.00     0.009 A 
HETATM   20  C   UNL     1       8.426  21.417  56.480  1.00  0.00     0.038 A 
HETATM   21  C   UNL     1       8.164  22.786  56.366  1.00  0.00     0.081 A 
BRANCH  21  22
HETATM   22  O   UNL     1       8.139  23.544  57.509  1.00  0.00    -0.360 OA
HETATM   23  H   UNL     1       9.023  23.926  57.654  1.00  0.00     0.217 HD
ENDBRANCH  21  22
ENDBRANCH   1  15
TORSDOF 5
ENDMDL
MODEL 7
REMARK VINA RESULT:      -8.1      3.546      5.907
REMARK  5 active torsions:
REMARK  status: ('A' for Active; 'I' for Inactive)
REMARK    1  A    between atoms: C_4  and  C_5 
REMARK       I    between atoms: C_5  and  N_6 
REMARK    2  A    between atoms: N_6  and  C_7 
REMARK    3  A    between atoms: C_7  and  C_8 
REMARK    4  A    between atoms: C_8  and  C_9 
REMARK    5  A    between atoms: C_18  and  O_19 
ROOT
HETATM    1  C   UNL     1       6.304  27.617  56.089  1.00  0.00     0.254 C 
HETATM    2  N   UNL     1       6.884  26.435  55.697  1.00  0.00    -0.356 N 
HETATM    3  O   UNL     1       5.123  27.873  55.872  1.00  0.00    -0.268 OA
HETATM    4  H   UNL     1       7.823  26.246  56.046  1.00  0.00     0.162 HD
ENDROOT
BRANCH   2   5
HETATM    5  C   UNL     1       6.107  25.354  55.123  1.00  0.00     0.136 C 
BRANCH   5   6
HETATM    6  C   UNL     1       6.711  24.782  53.807  1.00  0.00    -0.004 C 
HETATM    7  C   UNL     1       5.586  24.712  52.748  1.00  0.00     0.021 C 
HETATM    8  C   UNL     1       7.762  25.793  53.288  1.00  0.00     0.021 C 
BRANCH   6   9
HETATM    9  C   UNL     1       7.271  23.361  54.011  1.00  0.00    -0.046 A 
HETATM   10  C   UNL     1       7.355  22.805  55.298  1.00  0.00     0.027 A 
HETATM   11  C   UNL     1       7.867  21.525  55.461  1.00  0.00     0.116 A 
HETATM   12  N   UNL     1       8.297  20.753  54.445  1.00  0.00    -0.273 NA
HETATM   13  C   UNL     1       8.200  21.285  53.211  1.00  0.00     0.116 A 
HETATM   14  C   UNL     1       7.706  22.557  52.949  1.00  0.00     0.027 A 
ENDBRANCH   6   9
ENDBRANCH   5   6
ENDBRANCH   2   5
BRANCH   1  15
HETATM   15  C   UNL     1       7.175  28.599  56.815  1.00  0.00     0.065 A 
HETATM   16  C   UNL     1       8.551  28.564  56.527  1.00  0.00     0.026 A 
HETATM   17  C   UNL     1       9.449  29.438  57.156  1.00  0.00    -0.061 A 
HETATM   18  C   UNL     1      10.911  29.407  56.823  1.00  0.00     0.048 C 
HETATM   19  C   UNL     1       8.959  30.366  58.079  1.00  0.00     0.009 A 
HETATM   20  C   UNL     1       7.595  30.419  58.374  1.00  0.00     0.038 A 
HETATM   21  C   UNL     1       6.707  29.543  57.743  1.00  0.00     0.081 A 
BRANCH  21  22
HETATM   22  O   UNL     1       5.372  29.635  58.046  1.00  0.00    -0.360 OA
HETATM   23  H   UNL     1       5.193  29.107  58.845  1.00  0.00     0.217 HD
ENDBRANCH  21  22
ENDBRANCH   1  15
TORSDOF 5
ENDMDL
MODEL 8
REMARK VINA RESULT:      -8.1      1.105      2.211
REMARK  5 active torsions:
REMARK  status: ('A' for Active; 'I' for Inactive)
REMARK    1  A    between atoms: C_4  and  C_5 
REMARK       I    between atoms: C_5  and  N_6 
REMARK    2  A    between atoms: N_6  and  C_7 
REMARK    3  A    between atoms: C_7  and  C_8 
REMARK    4  A    between atoms: C_8  and  C_9 
REMARK    5  A    between atoms: C_18  and  O_19 
ROOT
HETATM    1  C   UNL     1       4.967  26.672  51.975  1.00  0.00     0.254 C 
HETATM    2  N   UNL     1       5.418  25.376  51.894  1.00  0.00    -0.356 N 
HETATM    3  O   UNL     1       4.624  27.182  53.038  1.00  0.00    -0.268 OA
HETATM    4  H   UNL     1       5.818  25.084  51.004  1.00  0.00     0.162 HD
ENDROOT
BRANCH   2   5
HETATM    5  C   UNL     1       5.647  24.570  53.077  1.00  0.00     0.136 C 
BRANCH   5   6
HETATM    6  C   UNL     1       7.150  24.438  53.460  1.00  0.00    -0.004 C 
HETATM    7  C   UNL     1       8.000  24.818  52.226  1.00  0.00     0.021 C 
HETATM    8  C   UNL     1       7.453  25.485  54.560  1.00  0.00     0.021 C 
BRANCH   6   9
HETATM    9  C   UNL     1       7.508  22.996  53.867  1.00  0.00    -0.046 A 
HETATM   10  C   UNL     1       7.491  22.610  55.217  1.00  0.00     0.027 A 
HETATM   11  C   UNL     1       7.821  21.306  55.563  1.00  0.00     0.116 A 
HETATM   12  N   UNL     1       8.160  20.356  54.672  1.00  0.00    -0.273 NA
HETATM   13  C   UNL     1       8.160  20.727  53.377  1.00  0.00     0.116 A 
HETATM   14  C   UNL     1       7.849  22.007  52.934  1.00  0.00     0.027 A 
ENDBRANCH   6   9
ENDBRANCH   5   6
ENDBRANCH   2   5
BRANCH   1  15
HETATM   15  C   UNL     1       4.919  27.461  50.701  1.00  0.00     0.065 A 
HETATM   16  C   UNL     1       5.441  28.766  50.741  1.00  0.00     0.026 A 
HETATM   17  C   UNL     1       5.439  29.587  49.604  1.00  0.00    -0.061 A 
HETATM   18  C   UNL     1       6.020  30.968  49.653  1.00  0.00     0.048 C 
HETATM   19  C   UNL     1       4.914  29.089  48.409  1.00  0.00     0.009 A 
HETATM   20  C   UNL     1       4.395  27.793  48.349  1.00  0.00     0.038 A 
HETATM   21  C   UNL     1       4.401  26.982  49.487  1.00  0.00     0.081 A 
BRANCH  21  22
HETATM   22  O   UNL     1       3.897  25.710  49.386  1.00  0.00    -0.360 OA
HETATM   23  H   UNL     1       4.570  25.079  49.697  1.00  0.00     0.217 HD
ENDBRANCH  21  22
ENDBRANCH   1  15
TORSDOF 5
ENDMDL
MODEL 9
REMARK VINA RESULT:      -7.9      3.940      5.947
REMARK  5 active torsions:
REMARK  status: ('A' for Active; 'I' for Inactive)
REMARK    1  A    between atoms: C_4  and  C_5 
REMARK       I    between atoms: C_5  and  N_6 
REMARK    2  A    between atoms: N_6  and  C_7 
REMARK    3  A    between atoms: C_7  and  C_8 
REMARK    4  A    between atoms: C_8  and  C_9 
REMARK    5  A    between atoms: C_18  and  O_19 
ROOT
HETATM    1  C   UNL     1       7.209  26.585  57.357  1.00  0.00     0.254 C 
HETATM    2  N   UNL     1       6.912  25.889  56.210  1.00  0.00    -0.356 N 
HETATM    3  O   UNL     1       7.917  26.118  58.244  1.00  0.00    -0.268 OA
HETATM    4  H   UNL     1       6.443  26.405  55.467  1.00  0.00     0.162 HD
ENDROOT
BRANCH   2   5
HETATM    5  C   UNL     1       7.526  24.610  55.911  1.00  0.00     0.136 C 
BRANCH   5   6
HETATM    6  C   UNL     1       7.297  24.135  54.446  1.00  0.00    -0.004 C 
HETATM    7  C   UNL     1       5.795  24.295  54.114  1.00  0.00     0.021 C 
HETATM    8  C   UNL     1       8.073  25.093  53.510  1.00  0.00     0.021 C 
BRANCH   6   9
HETATM    9  C   UNL     1       7.678  22.654  54.264  1.00  0.00    -0.046 A 
HETATM   10  C   UNL     1       7.826  22.107  52.979  1.00  0.00     0.027 A 
HETATM   11  C   UNL     1       8.165  20.768  52.836  1.00  0.00     0.116 A 
HETATM   12  N   UNL     1       8.373  19.932  53.872  1.00  0.00    -0.273 NA
HETATM   13  C   UNL     1       8.244  20.465  55.102  1.00  0.00     0.116 A 
HETATM   14  C   UNL     1       7.904  21.790  55.345  1.00  0.00     0.027 A 
ENDBRANCH   6   9
ENDBRANCH   5   6
ENDBRANCH   2   5
BRANCH   1  15
HETATM   15  C   UNL     1       6.638  27.966  57.486  1.00  0.00     0.065 A 
HETATM   16  C   UNL     1       7.481  28.955  58.024  1.00  0.00     0.026 A 
HETATM   17  C   UNL     1       7.041  30.276  58.190  1.00  0.00    -0.061 A 
HETATM   18  C   UNL     1       7.957  31.327  58.744  1.00  0.00     0.048 C 
HETATM   19  C   UNL     1       5.741  30.612  57.801  1.00  0.00     0.009 A 
HETATM   20  C   UNL     1       4.892  29.645  57.260  1.00  0.00     0.038 A 
HETATM   21  C   UNL     1       5.339  28.330  57.099  1.00  0.00     0.081 A 
BRANCH  21  22
HETATM   22  O   UNL     1       4.481  27.411  56.550  1.00  0.00    -0.360 OA
HETATM   23  H   UNL     1       4.901  26.533  56.575  1.00  0.00     0.217 HD
ENDBRANCH  21  22
ENDBRANCH   1  15
TORSDOF 5
ENDMDL
MODEL 10
REMARK VINA RESULT:      -7.7      4.128      7.312
REMARK  5 active torsions:
REMARK  status: ('A' for Active; 'I' for Inactive)
REMARK    1  A    between atoms: C_4  and  C_5 
REMARK       I    between atoms: C_5  and  N_6 
REMARK    2  A    between atoms: N_6  and  C_7 
REMARK    3  A    between atoms: C_7  and  C_8 
REMARK    4  A    between atoms: C_8  and  C_9 
REMARK    5  A    between atoms: C_18  and  O_19 
ROOT
HETATM    1  C   UNL     1       7.038  25.176  56.261  1.00  0.00     0.254 C 
HETATM    2  N   UNL     1       7.885  26.201  56.603  1.00  0.00    -0.356 N 
HETATM    3  O   UNL     1       6.033  24.909  56.915  1.00  0.00    -0.268 OA
HETATM    4  H   UNL     1       8.608  26.444  55.928  1.00  0.00     0.162 HD
ENDROOT
BRANCH   2   5
HETATM    5  C   UNL     1       7.577  27.122  57.679  1.00  0.00     0.136 C 
BRANCH   5   6
HETATM    6  C   UNL     1       7.530  28.613  57.230  1.00  0.00    -0.004 C 
HETATM    7  C   UNL     1       8.156  29.476  58.350  1.00  0.00     0.021 C 
HETATM    8  C   UNL     1       8.433  28.761  55.982  1.00  0.00     0.021 C 
BRANCH   6   9
HETATM    9  C   UNL     1       6.083  29.091  57.005  1.00  0.00    -0.046 A 
HETATM   10  C   UNL     1       5.582  30.205  57.698  1.00  0.00     0.027 A 
HETATM   11  C   UNL     1       4.274  30.617  57.483  1.00  0.00     0.116 A 
HETATM   12  N   UNL     1       3.426  30.011  56.630  1.00  0.00    -0.273 NA
HETATM   13  C   UNL     1       3.916  28.952  55.957  1.00  0.00     0.116 A 
HETATM   14  C   UNL     1       5.208  28.464  56.107  1.00  0.00     0.027 A 
ENDBRANCH   6   9
ENDBRANCH   5   6
ENDBRANCH   2   5
BRANCH   1  15
HETATM   15  C   UNL     1       7.379  24.385  55.033  1.00  0.00     0.065 A 
HETATM   16  C   UNL     1       7.456  22.988  55.177  1.00  0.00     0.026 A 
HETATM   17  C   UNL     1       7.773  22.160  54.090  1.00  0.00    -0.061 A 
HETATM   18  C   UNL     1       7.829  20.671  54.250  1.00  0.00     0.048 C 
HETATM   19  C   UNL     1       8.006  22.741  52.840  1.00  0.00     0.009 A 
HETATM   20  C   UNL     1       7.929  24.126  52.678  1.00  0.00     0.038 A 
HETATM   21  C   UNL     1       7.614  24.944  53.767  1.00  0.00     0.081 A 
BRANCH  21  22
HETATM   22  O   UNL     1       7.532  26.298  53.565  1.00  0.00    -0.360 OA
HETATM   23  H   UNL     1       8.386  26.704  53.798  1.00  0.00     0.217 HD
ENDBRANCH  21  22
ENDBRANCH   1  15
TORSDOF 5
ENDMDL
