MODEL 1
REMARK VINA RESULT:     -12.6      0.000      0.000
REMARK  6 active torsions:
REMARK  status: ('A' for Active; 'I' for Inactive)
REMARK    1  A    between atoms: C_8  and  N_9 
REMARK       I    between atoms: N_9  and  C_10 
REMARK    2  A    between atoms: C_10  and  C_12 
REMARK    3  A    between atoms: C_16  and  C_17 
REMARK    4  A    between atoms: C_17  and  N_18 
REMARK       I    between atoms: N_18  and  C_19 
REMARK    5  A    between atoms: C_19  and  C_21 
REMARK    6  A    between atoms: C_25  and  C_31 
REMARK       I    between atoms: C_31  and  N_33 
ROOT
HETATM    1  C   UNL     1       6.173  28.944  56.414  1.00  0.00     0.032 A 
HETATM    2  C   UNL     1       5.306  30.026  56.222  1.00  0.00     0.017 A 
HETATM    3  C   UNL     1       5.439  31.170  57.012  1.00  0.00     0.002 A 
HETATM    4  C   UNL     1       6.428  31.235  57.996  1.00  0.00     0.009 A 
HETATM    5  C   UNL     1       7.302  30.159  58.201  1.00  0.00    -0.040 A 
HETATM    6  C   UNL     1       7.158  29.010  57.410  1.00  0.00     0.026 A 
ENDROOT
BRANCH   5   7
HETATM    7  C   UNL     1       8.348  30.214  59.283  1.00  0.00     0.161 C 
BRANCH   7   8
HETATM    8  N   UNL     1       7.812  30.797  60.489  1.00  0.00    -0.351 N 
HETATM    9  C   UNL     1       8.123  32.076  60.889  1.00  0.00     0.268 C 
HETATM   10  O   UNL     1       8.883  32.786  60.235  1.00  0.00    -0.266 OA
HETATM   11  H   UNL     1       7.092  30.286  60.974  1.00  0.00     0.163 HD
BRANCH   9  12
HETATM   12  C   UNL     1       7.499  32.504  62.135  1.00  0.00     0.103 A 
HETATM   13  C   UNL     1       8.067  32.730  63.382  1.00  0.00     0.049 A 
HETATM   14  C   UNL     1       7.066  33.200  64.272  1.00  0.00    -0.006 A 
HETATM   15  C   UNL     1       7.083  33.606  65.621  1.00  0.00     0.030 A 
HETATM   16  C   UNL     1       5.870  33.246  63.559  1.00  0.00     0.045 A 
HETATM   17  C   UNL     1       5.902  34.058  66.231  1.00  0.00     0.032 A 
HETATM   18  C   UNL     1       4.717  34.110  65.494  1.00  0.00     0.019 A 
HETATM   19  C   UNL     1       4.680  33.699  64.153  1.00  0.00     0.031 A 
HETATM   20  N   UNL     1       6.147  32.799  62.279  1.00  0.00    -0.346 N 
HETATM   21  C   UNL     1       5.164  32.667  61.220  1.00  0.00     0.156 C 
BRANCH  17  22
HETATM   22  C   UNL     1       5.984  34.498  67.653  1.00  0.00     0.249 C 
HETATM   23  O   UNL     1       7.057  34.579  68.241  1.00  0.00    -0.268 OA
HETATM   24  N   UNL     1       4.820  34.793  68.307  1.00  0.00    -0.366 N 
HETATM   25  H   UNL     1       3.905  34.558  67.957  1.00  0.00     0.159 HD
HETATM   26  H   UNL     1       4.907  35.010  69.292  1.00  0.00     0.159 HD
ENDBRANCH  17  22
ENDBRANCH   9  12
ENDBRANCH   7   8
ENDBRANCH   5   7
BRANCH   1  27
HETATM   27  C   UNL     1       6.064  27.685  55.623  1.00  0.00     0.256 C 
HETATM   28  N   UNL     1       7.243  26.977  55.474  1.00  0.00    -0.323 N 
HETATM   29  H   UNL     1       8.051  27.316  55.975  1.00  0.00     0.169 HD
HETATM   30  O   UNL     1       4.955  27.366  55.208  1.00  0.00    -0.267 OA
BRANCH  28  31
HETATM   31  C   UNL     1       7.427  25.766  54.769  1.00  0.00     0.035 A 
HETATM   32  C   UNL     1       7.424  25.667  53.379  1.00  0.00     0.030 A 
HETATM   33  C   UNL     1       7.607  24.430  52.753  1.00  0.00     0.010 A 
HETATM   34  C   UNL     1       7.808  23.272  53.511  1.00  0.00    -0.048 A 
HETATM   35  C   UNL     1       7.954  21.936  52.830  1.00  0.00     0.069 C 
HETATM   36  C   UNL     1       7.804  23.353  54.912  1.00  0.00    -0.022 A 
HETATM   37  C   UNL     1       8.534  20.862  53.759  1.00  0.00     0.277 C 
HETATM   38  N   UNL     1       7.826  20.855  55.047  1.00  0.00     0.088 N 
HETATM   39  C   UNL     1       8.252  19.723  55.868  1.00  0.00     0.310 C 
HETATM   40  C   UNL     1       8.064  22.123  55.759  1.00  0.00     0.311 C 
HETATM   41  C   UNL     1       7.626  24.604  55.528  1.00  0.00     0.039 A 
ENDBRANCH  28  31
ENDBRANCH   1  27
TORSDOF 6
ENDMDL
MODEL 2
REMARK VINA RESULT:     -11.8      2.018      2.853
REMARK  6 active torsions:
REMARK  status: ('A' for Active; 'I' for Inactive)
REMARK    1  A    between atoms: C_8  and  N_9 
REMARK       I    between atoms: N_9  and  C_10 
REMARK    2  A    between atoms: C_10  and  C_12 
REMARK    3  A    between atoms: C_16  and  C_17 
REMARK    4  A    between atoms: C_17  and  N_18 
REMARK       I    between atoms: N_18  and  C_19 
REMARK    5  A    between atoms: C_19  and  C_21 
REMARK    6  A    between atoms: C_25  and  C_31 
REMARK       I    between atoms: C_31  and  N_33 
ROOT
HETATM    1  C   UNL     1       8.577  30.255  58.110  1.00  0.00     0.032 A 
HETATM    2  C   UNL     1       9.695  30.761  58.783  1.00  0.00     0.017 A 
HETATM    3  C   UNL     1       9.536  31.775  59.729  1.00  0.00     0.002 A 
HETATM    4  C   UNL     1       8.267  32.292  60.000  1.00  0.00     0.009 A 
HETATM    5  C   UNL     1       7.138  31.797  59.334  1.00  0.00    -0.040 A 
HETATM    6  C   UNL     1       7.305  30.784  58.379  1.00  0.00     0.026 A 
ENDROOT
BRANCH   5   7
HETATM    7  C   UNL     1       5.774  32.375  59.601  1.00  0.00     0.161 C 
BRANCH   7   8
HETATM    8  N   UNL     1       5.680  32.875  60.951  1.00  0.00    -0.351 N 
HETATM    9  C   UNL     1       4.565  32.677  61.733  1.00  0.00     0.268 C 
HETATM   10  O   UNL     1       3.586  32.067  61.311  1.00  0.00    -0.266 OA
HETATM   11  H   UNL     1       6.512  33.266  61.362  1.00  0.00     0.163 HD
BRANCH   9  12
HETATM   12  C   UNL     1       4.637  33.254  63.070  1.00  0.00     0.103 A 
HETATM   13  C   UNL     1       5.400  32.870  64.164  1.00  0.00     0.049 A 
HETATM   14  C   UNL     1       5.177  33.779  65.230  1.00  0.00    -0.006 A 
HETATM   15  C   UNL     1       5.699  33.888  66.535  1.00  0.00     0.030 A 
HETATM   16  C   UNL     1       4.254  34.721  64.782  1.00  0.00     0.045 A 
HETATM   17  C   UNL     1       5.291  34.944  67.366  1.00  0.00     0.032 A 
HETATM   18  C   UNL     1       4.375  35.885  66.891  1.00  0.00     0.019 A 
HETATM   19  C   UNL     1       3.838  35.786  65.599  1.00  0.00     0.031 A 
HETATM   20  N   UNL     1       3.921  34.372  63.485  1.00  0.00    -0.346 N 
HETATM   21  C   UNL     1       2.965  35.085  62.659  1.00  0.00     0.156 C 
BRANCH  17  22
HETATM   22  C   UNL     1       5.893  35.024  68.727  1.00  0.00     0.249 C 
HETATM   23  O   UNL     1       5.385  34.462  69.690  1.00  0.00    -0.268 OA
HETATM   24  N   UNL     1       7.028  35.769  68.889  1.00  0.00    -0.366 N 
HETATM   25  H   UNL     1       7.380  36.412  68.198  1.00  0.00     0.159 HD
HETATM   26  H   UNL     1       7.363  35.868  69.840  1.00  0.00     0.159 HD
ENDBRANCH  17  22
ENDBRANCH   9  12
ENDBRANCH   7   8
ENDBRANCH   5   7
BRANCH   1  27
HETATM   27  C   UNL     1       8.685  29.192  57.070  1.00  0.00     0.256 C 
HETATM   28  N   UNL     1       7.804  28.135  57.212  1.00  0.00    -0.323 N 
HETATM   29  H   UNL     1       7.112  28.206  57.943  1.00  0.00     0.169 HD
HETATM   30  O   UNL     1       9.502  29.355  56.171  1.00  0.00    -0.267 OA
BRANCH  28  31
HETATM   31  C   UNL     1       7.697  26.997  56.381  1.00  0.00     0.035 A 
HETATM   32  C   UNL     1       7.240  27.036  55.064  1.00  0.00     0.030 A 
HETATM   33  C   UNL     1       7.156  25.865  54.306  1.00  0.00     0.010 A 
HETATM   34  C   UNL     1       7.540  24.635  54.850  1.00  0.00    -0.048 A 
HETATM   35  C   UNL     1       7.399  23.371  54.043  1.00  0.00     0.069 C 
HETATM   36  C   UNL     1       7.992  24.577  56.178  1.00  0.00    -0.022 A 
HETATM   37  C   UNL     1       8.199  22.203  54.632  1.00  0.00     0.277 C 
HETATM   38  N   UNL     1       7.946  22.077  56.075  1.00  0.00     0.088 N 
HETATM   39  C   UNL     1       8.564  20.865  56.607  1.00  0.00     0.310 C 
HETATM   40  C   UNL     1       8.457  23.266  56.780  1.00  0.00     0.311 C 
HETATM   41  C   UNL     1       8.079  25.763  56.927  1.00  0.00     0.039 A 
ENDBRANCH  28  31
ENDBRANCH   1  27
TORSDOF 6
ENDMDL
MODEL 3
REMARK VINA RESULT:     -11.7      2.754     11.887
REMARK  6 active torsions:
REMARK  status: ('A' for Active; 'I' for Inactive)
REMARK    1  A    between atoms: C_8  and  N_9 
REMARK       I    between atoms: N_9  and  C_10 
REMARK    2  A    between atoms: C_10  and  C_12 
REMARK    3  A    between atoms: C_16  and  C_17 
REMARK    4  A    between atoms: C_17  and  N_18 
REMARK       I    between atoms: N_18  and  C_19 
REMARK    5  A    between atoms: C_19  and  C_21 
REMARK    6  A    between atoms: C_25  and  C_31 
REMARK       I    between atoms: C_31  and  N_33 
ROOT
HETATM    1  C   UNL     1       4.803  30.705  55.853  1.00  0.00     0.032 A 
HETATM    2  C   UNL     1       4.610  31.955  55.255  1.00  0.00     0.017 A 
HETATM    3  C   UNL     1       4.024  32.037  53.990  1.00  0.00     0.002 A 
HETATM    4  C   UNL     1       3.636  30.875  53.317  1.00  0.00     0.009 A 
HETATM    5  C   UNL     1       3.824  29.616  53.903  1.00  0.00    -0.040 A 
HETATM    6  C   UNL     1       4.421  29.541  55.170  1.00  0.00     0.026 A 
ENDROOT
BRANCH   5   7
HETATM    7  C   UNL     1       3.437  28.361  53.167  1.00  0.00     0.161 C 
BRANCH   7   8
HETATM    8  N   UNL     1       4.253  27.246  53.582  1.00  0.00    -0.351 N 
HETATM    9  C   UNL     1       5.424  26.912  52.941  1.00  0.00     0.268 C 
HETATM   10  O   UNL     1       5.828  27.549  51.971  1.00  0.00    -0.266 OA
HETATM   11  H   UNL     1       4.012  26.789  54.446  1.00  0.00     0.163 HD
BRANCH   9  12
HETATM   12  C   UNL     1       6.121  25.754  53.487  1.00  0.00     0.103 A 
HETATM   13  C   UNL     1       6.204  24.456  53.002  1.00  0.00     0.049 A 
HETATM   14  C   UNL     1       7.052  23.695  53.848  1.00  0.00    -0.006 A 
HETATM   15  C   UNL     1       7.506  22.362  53.818  1.00  0.00     0.030 A 
HETATM   16  C   UNL     1       7.479  24.540  54.870  1.00  0.00     0.045 A 
HETATM   17  C   UNL     1       8.385  21.899  54.810  1.00  0.00     0.032 A 
HETATM   18  C   UNL     1       8.812  22.767  55.818  1.00  0.00     0.019 A 
HETATM   19  C   UNL     1       8.362  24.095  55.868  1.00  0.00     0.031 A 
HETATM   20  N   UNL     1       6.886  25.771  54.649  1.00  0.00    -0.346 N 
HETATM   21  C   UNL     1       7.050  26.932  55.504  1.00  0.00     0.156 C 
BRANCH  17  22
HETATM   22  C   UNL     1       8.853  20.487  54.715  1.00  0.00     0.249 C 
HETATM   23  O   UNL     1       8.683  19.820  53.701  1.00  0.00    -0.268 OA
HETATM   24  N   UNL     1       9.463  19.932  55.806  1.00  0.00    -0.366 N 
HETATM   25  H   UNL     1       9.454  20.346  56.725  1.00  0.00     0.159 HD
HETATM   26  H   UNL     1       9.694  18.949  55.734  1.00  0.00     0.159 HD
ENDBRANCH  17  22
ENDBRANCH   9  12
ENDBRANCH   7   8
ENDBRANCH   5   7
BRANCH   1  27
HETATM   27  C   UNL     1       5.448  30.551  57.188  1.00  0.00     0.256 C 
HETATM   28  N   UNL     1       5.844  31.731  57.792  1.00  0.00    -0.323 N 
HETATM   29  H   UNL     1       5.591  32.593  57.331  1.00  0.00     0.169 HD
HETATM   30  O   UNL     1       5.541  29.420  57.650  1.00  0.00    -0.267 OA
BRANCH  28  31
HETATM   31  C   UNL     1       6.483  31.876  59.044  1.00  0.00     0.035 A 
HETATM   32  C   UNL     1       7.831  31.595  59.266  1.00  0.00     0.030 A 
HETATM   33  C   UNL     1       8.391  31.757  60.536  1.00  0.00     0.010 A 
HETATM   34  C   UNL     1       7.614  32.215  61.604  1.00  0.00    -0.048 A 
HETATM   35  C   UNL     1       8.213  32.339  62.981  1.00  0.00     0.069 C 
HETATM   36  C   UNL     1       6.253  32.493  61.400  1.00  0.00    -0.022 A 
HETATM   37  C   UNL     1       7.356  33.193  63.923  1.00  0.00     0.277 C 
HETATM   38  N   UNL     1       5.949  32.770  63.868  1.00  0.00     0.088 N 
HETATM   39  C   UNL     1       5.160  33.457  64.888  1.00  0.00     0.310 C 
HETATM   40  C   UNL     1       5.396  33.032  62.528  1.00  0.00     0.311 C 
HETATM   41  C   UNL     1       5.703  32.332  60.116  1.00  0.00     0.039 A 
ENDBRANCH  28  31
ENDBRANCH   1  27
TORSDOF 6
ENDMDL
MODEL 4
REMARK VINA RESULT:     -11.6      1.848     12.929
REMARK  6 active torsions:
REMARK  status: ('A' for Active; 'I' for Inactive)
REMARK    1  A    between atoms: C_8  and  N_9 
REMARK       I    between atoms: N_9  and  C_10 
REMARK    2  A    between atoms: C_10  and  C_12 
REMARK    3  A    between atoms: C_16  and  C_17 
REMARK    4  A    between atoms: C_17  and  N_18 
REMARK       I    between atoms: N_18  and  C_19 
REMARK    5  A    between atoms: C_19  and  C_21 
REMARK    6  A    between atoms: C_25  and  C_31 
REMARK       I    between atoms: C_31  and  N_33 
ROOT
HETATM    1  C   UNL     1       7.914  31.407  59.549  1.00  0.00     0.032 A 
HETATM    2  C   UNL     1       9.265  31.077  59.388  1.00  0.00     0.017 A 
HETATM    3  C   UNL     1       9.655  30.237  58.342  1.00  0.00     0.002 A 
HETATM    4  C   UNL     1       8.702  29.720  57.462  1.00  0.00     0.009 A 
HETATM    5  C   UNL     1       7.345  30.040  57.612  1.00  0.00    -0.040 A 
HETATM    6  C   UNL     1       6.959  30.877  58.668  1.00  0.00     0.026 A 
ENDROOT
BRANCH   5   7
HETATM    7  C   UNL     1       6.312  29.457  56.684  1.00  0.00     0.161 C 
BRANCH   7   8
HETATM    8  N   UNL     1       6.737  28.175  56.177  1.00  0.00    -0.351 N 
HETATM    9  C   UNL     1       5.856  27.142  55.956  1.00  0.00     0.268 C 
HETATM   10  O   UNL     1       4.656  27.263  56.188  1.00  0.00    -0.266 OA
HETATM   11  H   UNL     1       7.690  28.092  55.860  1.00  0.00     0.163 HD
BRANCH   9  12
HETATM   12  C   UNL     1       6.456  25.915  55.447  1.00  0.00     0.103 A 
HETATM   13  C   UNL     1       6.863  24.776  56.129  1.00  0.00     0.049 A 
HETATM   14  C   UNL     1       7.328  23.815  55.194  1.00  0.00    -0.006 A 
HETATM   15  C   UNL     1       7.820  22.501  55.320  1.00  0.00     0.030 A 
HETATM   16  C   UNL     1       7.215  24.384  53.927  1.00  0.00     0.045 A 
HETATM   17  C   UNL     1       8.185  21.777  54.174  1.00  0.00     0.032 A 
HETATM   18  C   UNL     1       8.050  22.361  52.912  1.00  0.00     0.019 A 
HETATM   19  C   UNL     1       7.572  23.672  52.770  1.00  0.00     0.031 A 
HETATM   20  N   UNL     1       6.710  25.661  54.104  1.00  0.00    -0.346 N 
HETATM   21  C   UNL     1       6.464  26.606  53.030  1.00  0.00     0.156 C 
BRANCH  17  22
HETATM   22  C   UNL     1       8.676  20.382  54.365  1.00  0.00     0.249 C 
HETATM   23  O   UNL     1       8.872  19.634  53.414  1.00  0.00    -0.268 OA
HETATM   24  N   UNL     1       8.884  19.938  55.641  1.00  0.00    -0.366 N 
HETATM   25  H   UNL     1       8.556  20.420  56.463  1.00  0.00     0.159 HD
HETATM   26  H   UNL     1       9.138  18.963  55.736  1.00  0.00     0.159 HD
ENDBRANCH  17  22
ENDBRANCH   9  12
ENDBRANCH   7   8
ENDBRANCH   5   7
BRANCH   1  27
HETATM   27  C   UNL     1       7.433  32.275  60.661  1.00  0.00     0.256 C 
HETATM   28  N   UNL     1       6.147  32.014  61.100  1.00  0.00    -0.323 N 
HETATM   29  H   UNL     1       5.676  31.215  60.700  1.00  0.00     0.169 HD
HETATM   30  O   UNL     1       8.211  33.107  61.113  1.00  0.00    -0.267 OA
BRANCH  28  31
HETATM   31  C   UNL     1       5.443  32.686  62.125  1.00  0.00     0.035 A 
HETATM   32  C   UNL     1       4.154  33.197  61.977  1.00  0.00     0.030 A 
HETATM   33  C   UNL     1       3.524  33.855  63.037  1.00  0.00     0.010 A 
HETATM   34  C   UNL     1       4.171  34.003  64.268  1.00  0.00    -0.048 A 
HETATM   35  C   UNL     1       3.505  34.758  65.389  1.00  0.00     0.069 C 
HETATM   36  C   UNL     1       5.473  33.503  64.431  1.00  0.00    -0.022 A 
HETATM   37  C   UNL     1       4.169  34.502  66.748  1.00  0.00     0.277 C 
HETATM   38  N   UNL     1       5.628  34.652  66.648  1.00  0.00     0.088 N 
HETATM   39  C   UNL     1       6.249  34.585  67.969  1.00  0.00     0.310 C 
HETATM   40  C   UNL     1       6.181  33.609  65.766  1.00  0.00     0.311 C 
HETATM   41  C   UNL     1       6.092  32.837  63.359  1.00  0.00     0.039 A 
ENDBRANCH  28  31
ENDBRANCH   1  27
TORSDOF 6
ENDMDL
MODEL 5
REMARK VINA RESULT:     -11.6      3.443     12.907
REMARK  6 active torsions:
REMARK  status: ('A' for Active; 'I' for Inactive)
REMARK    1  A    between atoms: C_8  and  N_9 
REMARK       I    between atoms: N_9  and  C_10 
REMARK    2  A    between atoms: C_10  and  C_12 
REMARK    3  A    between atoms: C_16  and  C_17 
REMARK    4  A    between atoms: C_17  and  N_18 
REMARK       I    between atoms: N_18  and  C_19 
REMARK    5  A    between atoms: C_19  and  C_21 
REMARK    6  A    between atoms: C_25  and  C_31 
REMARK       I    between atoms: C_31  and  N_33 
ROOT
HETATM    1  C   UNL     1       9.298  30.567  58.471  1.00  0.00     0.032 A 
HETATM    2  C   UNL     1      10.496  30.524  57.748  1.00  0.00     0.017 A 
HETATM    3  C   UNL     1      10.709  29.507  56.815  1.00  0.00     0.002 A 
HETATM    4  C   UNL     1       9.734  28.528  56.607  1.00  0.00     0.009 A 
HETATM    5  C   UNL     1       8.530  28.558  57.324  1.00  0.00    -0.040 A 
HETATM    6  C   UNL     1       8.326  29.577  58.265  1.00  0.00     0.026 A 
ENDROOT
BRANCH   5   7
HETATM    7  C   UNL     1       7.491  27.485  57.125  1.00  0.00     0.161 C 
BRANCH   7   8
HETATM    8  N   UNL     1       7.019  27.471  55.762  1.00  0.00    -0.351 N 
HETATM    9  C   UNL     1       5.708  27.205  55.440  1.00  0.00     0.268 C 
HETATM   10  O   UNL     1       4.873  26.958  56.307  1.00  0.00    -0.266 OA
HETATM   11  H   UNL     1       7.650  27.793  55.046  1.00  0.00     0.163 HD
BRANCH   9  12
HETATM   12  C   UNL     1       5.403  27.226  54.015  1.00  0.00     0.103 A 
HETATM   13  C   UNL     1       5.587  26.243  53.053  1.00  0.00     0.049 A 
HETATM   14  C   UNL     1       5.076  26.704  51.812  1.00  0.00    -0.006 A 
HETATM   15  C   UNL     1       4.973  26.124  50.532  1.00  0.00     0.030 A 
HETATM   16  C   UNL     1       4.587  27.992  52.020  1.00  0.00     0.045 A 
HETATM   17  C   UNL     1       4.376  26.843  49.483  1.00  0.00     0.032 A 
HETATM   18  C   UNL     1       3.880  28.128  49.718  1.00  0.00     0.019 A 
HETATM   19  C   UNL     1       3.984  28.724  50.984  1.00  0.00     0.031 A 
HETATM   20  N   UNL     1       4.817  28.298  53.350  1.00  0.00    -0.346 N 
HETATM   21  C   UNL     1       4.479  29.563  53.976  1.00  0.00     0.156 C 
BRANCH  17  22
HETATM   22  C   UNL     1       4.272  26.172  48.157  1.00  0.00     0.249 C 
HETATM   23  O   UNL     1       5.046  26.430  47.242  1.00  0.00    -0.268 OA
HETATM   24  N   UNL     1       3.265  25.266  47.967  1.00  0.00    -0.366 N 
HETATM   25  H   UNL     1       2.484  25.156  48.594  1.00  0.00     0.159 HD
HETATM   26  H   UNL     1       3.175  24.891  47.031  1.00  0.00     0.159 HD
ENDBRANCH  17  22
ENDBRANCH   9  12
ENDBRANCH   7   8
ENDBRANCH   5   7
BRANCH   1  27
HETATM   27  C   UNL     1       9.025  31.612  59.499  1.00  0.00     0.256 C 
HETATM   28  N   UNL     1       8.168  31.229  60.515  1.00  0.00    -0.323 N 
HETATM   29  H   UNL     1       7.869  30.265  60.529  1.00  0.00     0.169 HD
HETATM   30  O   UNL     1       9.598  32.689  59.385  1.00  0.00    -0.267 OA
BRANCH  28  31
HETATM   31  C   UNL     1       7.732  32.017  61.606  1.00  0.00     0.035 A 
HETATM   32  C   UNL     1       8.293  31.957  62.880  1.00  0.00     0.030 A 
HETATM   33  C   UNL     1       7.804  32.764  63.911  1.00  0.00     0.010 A 
HETATM   34  C   UNL     1       6.751  33.655  63.679  1.00  0.00    -0.048 A 
HETATM   35  C   UNL     1       6.197  34.485  64.808  1.00  0.00     0.069 C 
HETATM   36  C   UNL     1       6.169  33.720  62.404  1.00  0.00    -0.022 A 
HETATM   37  C   UNL     1       5.332  35.650  64.312  1.00  0.00     0.277 C 
HETATM   38  N   UNL     1       4.356  35.183  63.317  1.00  0.00     0.088 N 
HETATM   39  C   UNL     1       3.415  36.248  62.972  1.00  0.00     0.310 C 
HETATM   40  C   UNL     1       5.056  34.708  62.111  1.00  0.00     0.311 C 
HETATM   41  C   UNL     1       6.675  32.908  61.374  1.00  0.00     0.039 A 
ENDBRANCH  28  31
ENDBRANCH   1  27
TORSDOF 6
ENDMDL
MODEL 6
REMARK VINA RESULT:     -11.0      2.373      3.683
REMARK  6 active torsions:
REMARK  status: ('A' for Active; 'I' for Inactive)
REMARK    1  A    between atoms: C_8  and  N_9 
REMARK       I    between atoms: N_9  and  C_10 
REMARK    2  A    between atoms: C_10  and  C_12 
REMARK    3  A    between atoms: C_16  and  C_17 
REMARK    4  A    between atoms: C_17  and  N_18 
REMARK       I    between atoms: N_18  and  C_19 
REMARK    5  A    between atoms: C_19  and  C_21 
REMARK    6  A    between atoms: C_25  and  C_31 
REMARK       I    between atoms: C_31  and  N_33 
ROOT
HETATM    1  C   UNL     1       8.674  30.511  58.555  1.00  0.00     0.032 A 
HETATM    2  C   UNL     1       9.839  31.094  59.067  1.00  0.00     0.017 A 
HETATM    3  C   UNL     1       9.747  32.075  60.056  1.00  0.00     0.002 A 
HETATM    4  C   UNL     1       8.498  32.481  60.532  1.00  0.00     0.009 A 
HETATM    5  C   UNL     1       7.323  31.907  60.028  1.00  0.00    -0.040 A 
HETATM    6  C   UNL     1       7.421  30.928  59.029  1.00  0.00     0.026 A 
ENDROOT
BRANCH   5   7
HETATM    7  C   UNL     1       5.974  32.366  60.516  1.00  0.00     0.161 C 
BRANCH   7   8
HETATM    8  N   UNL     1       5.996  32.617  61.937  1.00  0.00    -0.351 N 
HETATM    9  C   UNL     1       5.800  33.871  62.466  1.00  0.00     0.268 C 
HETATM   10  O   UNL     1       5.603  34.847  61.745  1.00  0.00    -0.266 OA
HETATM   11  H   UNL     1       6.029  31.819  62.550  1.00  0.00     0.163 HD
BRANCH   9  12
HETATM   12  C   UNL     1       5.860  33.947  63.920  1.00  0.00     0.103 A 
HETATM   13  C   UNL     1       6.961  33.925  64.766  1.00  0.00     0.049 A 
HETATM   14  C   UNL     1       6.522  34.091  66.105  1.00  0.00    -0.006 A 
HETATM   15  C   UNL     1       7.194  34.174  67.341  1.00  0.00     0.030 A 
HETATM   16  C   UNL     1       5.134  34.202  66.073  1.00  0.00     0.045 A 
HETATM   17  C   UNL     1       6.463  34.374  68.524  1.00  0.00     0.032 A 
HETATM   18  C   UNL     1       5.073  34.496  68.467  1.00  0.00     0.019 A 
HETATM   19  C   UNL     1       4.387  34.406  67.246  1.00  0.00     0.031 A 
HETATM   20  N   UNL     1       4.752  34.087  64.748  1.00  0.00    -0.346 N 
HETATM   21  C   UNL     1       3.379  34.123  64.279  1.00  0.00     0.156 C 
BRANCH  17  22
HETATM   22  C   UNL     1       7.227  34.479  69.799  1.00  0.00     0.249 C 
HETATM   23  O   UNL     1       7.842  35.497  70.098  1.00  0.00    -0.268 OA
HETATM   24  N   UNL     1       7.251  33.394  70.631  1.00  0.00    -0.366 N 
HETATM   25  H   UNL     1       6.945  32.473  70.360  1.00  0.00     0.159 HD
HETATM   26  H   UNL     1       7.845  33.473  71.447  1.00  0.00     0.159 HD
ENDBRANCH  17  22
ENDBRANCH   9  12
ENDBRANCH   7   8
ENDBRANCH   5   7
BRANCH   1  27
HETATM   27  C   UNL     1       8.705  29.480  57.479  1.00  0.00     0.256 C 
HETATM   28  N   UNL     1       7.929  28.358  57.713  1.00  0.00    -0.323 N 
HETATM   29  H   UNL     1       7.346  28.364  58.537  1.00  0.00     0.169 HD
HETATM   30  O   UNL     1       9.371  29.719  56.478  1.00  0.00    -0.267 OA
BRANCH  28  31
HETATM   31  C   UNL     1       7.783  27.232  56.872  1.00  0.00     0.035 A 
HETATM   32  C   UNL     1       8.201  25.947  57.214  1.00  0.00     0.030 A 
HETATM   33  C   UNL     1       8.027  24.882  56.325  1.00  0.00     0.010 A 
HETATM   34  C   UNL     1       7.421  25.085  55.081  1.00  0.00    -0.048 A 
HETATM   35  C   UNL     1       7.283  23.942  54.109  1.00  0.00     0.069 C 
HETATM   36  C   UNL     1       7.004  26.375  54.717  1.00  0.00    -0.022 A 
HETATM   37  C   UNL     1       6.282  24.241  52.986  1.00  0.00     0.277 C 
HETATM   38  N   UNL     1       6.546  25.561  52.396  1.00  0.00     0.088 N 
HETATM   39  C   UNL     1       5.713  25.778  51.214  1.00  0.00     0.310 C 
HETATM   40  C   UNL     1       6.304  26.617  53.395  1.00  0.00     0.311 C 
HETATM   41  C   UNL     1       7.178  27.435  55.624  1.00  0.00     0.039 A 
ENDBRANCH  28  31
ENDBRANCH   1  27
TORSDOF 6
ENDMDL
MODEL 7
REMARK VINA RESULT:     -11.0      2.226     12.448
REMARK  6 active torsions:
REMARK  status: ('A' for Active; 'I' for Inactive)
REMARK    1  A    between atoms: C_8  and  N_9 
REMARK       I    between atoms: N_9  and  C_10 
REMARK    2  A    between atoms: C_10  and  C_12 
REMARK    3  A    between atoms: C_16  and  C_17 
REMARK    4  A    between atoms: C_17  and  N_18 
REMARK       I    between atoms: N_18  and  C_19 
REMARK    5  A    between atoms: C_19  and  C_21 
REMARK    6  A    between atoms: C_25  and  C_31 
REMARK       I    between atoms: C_31  and  N_33 
ROOT
HETATM    1  C   UNL     1       5.066  31.135  57.815  1.00  0.00     0.032 A 
HETATM    2  C   UNL     1       3.673  31.047  57.919  1.00  0.00     0.017 A 
HETATM    3  C   UNL     1       2.927  30.545  56.851  1.00  0.00     0.002 A 
HETATM    4  C   UNL     1       3.565  30.137  55.678  1.00  0.00     0.009 A 
HETATM    5  C   UNL     1       4.959  30.220  55.558  1.00  0.00    -0.040 A 
HETATM    6  C   UNL     1       5.701  30.733  56.631  1.00  0.00     0.026 A 
ENDROOT
BRANCH   5   7
HETATM    7  C   UNL     1       5.646  29.810  54.282  1.00  0.00     0.161 C 
BRANCH   7   8
HETATM    8  N   UNL     1       6.153  28.463  54.377  1.00  0.00    -0.351 N 
HETATM    9  C   UNL     1       5.420  27.371  53.976  1.00  0.00     0.268 C 
HETATM   10  O   UNL     1       4.285  27.492  53.521  1.00  0.00    -0.266 OA
HETATM   11  H   UNL     1       7.122  28.347  54.626  1.00  0.00     0.163 HD
BRANCH   9  12
HETATM   12  C   UNL     1       6.082  26.083  54.147  1.00  0.00     0.103 A 
HETATM   13  C   UNL     1       6.366  25.378  55.309  1.00  0.00     0.049 A 
HETATM   14  C   UNL     1       6.967  24.139  54.966  1.00  0.00    -0.006 A 
HETATM   15  C   UNL     1       7.421  23.040  55.723  1.00  0.00     0.030 A 
HETATM   16  C   UNL     1       7.062  24.097  53.576  1.00  0.00     0.045 A 
HETATM   17  C   UNL     1       7.958  21.917  55.074  1.00  0.00     0.032 A 
HETATM   18  C   UNL     1       8.031  21.891  53.679  1.00  0.00     0.019 A 
HETATM   19  C   UNL     1       7.593  22.980  52.911  1.00  0.00     0.031 A 
HETATM   20  N   UNL     1       6.546  25.291  53.103  1.00  0.00    -0.346 N 
HETATM   21  C   UNL     1       6.482  25.664  51.702  1.00  0.00     0.156 C 
BRANCH  17  22
HETATM   22  C   UNL     1       8.400  20.774  55.923  1.00  0.00     0.249 C 
HETATM   23  O   UNL     1       8.301  20.804  57.144  1.00  0.00    -0.268 OA
HETATM   24  N   UNL     1       8.948  19.684  55.306  1.00  0.00    -0.366 N 
HETATM   25  H   UNL     1       9.242  19.673  54.343  1.00  0.00     0.159 HD
HETATM   26  H   UNL     1       9.310  18.963  55.918  1.00  0.00     0.159 HD
ENDBRANCH  17  22
ENDBRANCH   9  12
ENDBRANCH   7   8
ENDBRANCH   5   7
BRANCH   1  27
HETATM   27  C   UNL     1       5.914  31.689  58.909  1.00  0.00     0.256 C 
HETATM   28  N   UNL     1       5.335  31.683  60.165  1.00  0.00    -0.323 N 
HETATM   29  H   UNL     1       4.435  31.234  60.257  1.00  0.00     0.169 HD
HETATM   30  O   UNL     1       7.045  32.062  58.621  1.00  0.00    -0.267 OA
BRANCH  28  31
HETATM   31  C   UNL     1       5.906  32.153  61.370  1.00  0.00     0.035 A 
HETATM   32  C   UNL     1       7.277  32.184  61.620  1.00  0.00     0.030 A 
HETATM   33  C   UNL     1       7.767  32.658  62.840  1.00  0.00     0.010 A 
HETATM   34  C   UNL     1       6.891  33.121  63.828  1.00  0.00    -0.048 A 
HETATM   35  C   UNL     1       7.424  33.583  65.159  1.00  0.00     0.069 C 
HETATM   36  C   UNL     1       5.507  33.087  63.596  1.00  0.00    -0.022 A 
HETATM   37  C   UNL     1       6.395  34.392  65.957  1.00  0.00     0.277 C 
HETATM   38  N   UNL     1       5.100  33.696  65.988  1.00  0.00     0.088 N 
HETATM   39  C   UNL     1       4.169  34.370  66.890  1.00  0.00     0.310 C 
HETATM   40  C   UNL     1       4.536  33.622  64.629  1.00  0.00     0.311 C 
HETATM   41  C   UNL     1       5.028  32.614  62.361  1.00  0.00     0.039 A 
ENDBRANCH  28  31
ENDBRANCH   1  27
TORSDOF 6
ENDMDL
MODEL 8
REMARK VINA RESULT:     -10.9      5.759     10.616
REMARK  6 active torsions:
REMARK  status: ('A' for Active; 'I' for Inactive)
REMARK    1  A    between atoms: C_8  and  N_9 
REMARK       I    between atoms: N_9  and  C_10 
REMARK    2  A    between atoms: C_10  and  C_12 
REMARK    3  A    between atoms: C_16  and  C_17 
REMARK    4  A    between atoms: C_17  and  N_18 
REMARK       I    between atoms: N_18  and  C_19 
REMARK    5  A    between atoms: C_19  and  C_21 
REMARK    6  A    between atoms: C_25  and  C_31 
REMARK       I    between atoms: C_31  and  N_33 
ROOT
HETATM    1  C   UNL     1       4.246  30.613  54.209  1.00  0.00     0.032 A 
HETATM    2  C   UNL     1       3.883  31.889  54.657  1.00  0.00     0.017 A 
HETATM    3  C   UNL     1       4.022  32.216  56.008  1.00  0.00     0.002 A 
HETATM    4  C   UNL     1       4.515  31.274  56.913  1.00  0.00     0.009 A 
HETATM    5  C   UNL     1       4.882  29.992  56.479  1.00  0.00    -0.040 A 
HETATM    6  C   UNL     1       4.732  29.667  55.124  1.00  0.00     0.026 A 
ENDROOT
BRANCH   5   7
HETATM    7  C   UNL     1       5.383  28.964  57.459  1.00  0.00     0.161 C 
BRANCH   7   8
HETATM    8  N   UNL     1       5.852  27.784  56.775  1.00  0.00    -0.351 N 
HETATM    9  C   UNL     1       7.087  27.232  57.023  1.00  0.00     0.268 C 
HETATM   10  O   UNL     1       7.858  27.728  57.841  1.00  0.00    -0.266 OA
HETATM   11  H   UNL     1       5.193  27.288  56.196  1.00  0.00     0.163 HD
BRANCH   9  12
HETATM   12  C   UNL     1       7.404  26.044  56.239  1.00  0.00     0.103 A 
HETATM   13  C   UNL     1       7.654  24.745  56.658  1.00  0.00     0.049 A 
HETATM   14  C   UNL     1       7.850  23.919  55.521  1.00  0.00    -0.006 A 
HETATM   15  C   UNL     1       8.102  22.542  55.355  1.00  0.00     0.030 A 
HETATM   16  C   UNL     1       7.731  24.731  54.395  1.00  0.00     0.045 A 
HETATM   17  C   UNL     1       8.224  22.002  54.065  1.00  0.00     0.032 A 
HETATM   18  C   UNL     1       8.087  22.833  52.950  1.00  0.00     0.019 A 
HETATM   19  C   UNL     1       7.847  24.207  53.097  1.00  0.00     0.031 A 
HETATM   20  N   UNL     1       7.487  26.015  54.851  1.00  0.00    -0.346 N 
HETATM   21  C   UNL     1       7.324  27.177  53.997  1.00  0.00     0.156 C 
BRANCH  17  22
HETATM   22  C   UNL     1       8.465  20.536  53.949  1.00  0.00     0.249 C 
HETATM   23  O   UNL     1       8.409  19.958  52.869  1.00  0.00    -0.268 OA
HETATM   24  N   UNL     1       8.731  19.831  55.090  1.00  0.00    -0.366 N 
HETATM   25  H   UNL     1       8.594  20.197  56.019  1.00  0.00     0.159 HD
HETATM   26  H   UNL     1       8.809  18.828  54.985  1.00  0.00     0.159 HD
ENDBRANCH  17  22
ENDBRANCH   9  12
ENDBRANCH   7   8
ENDBRANCH   5   7
BRANCH   1  27
HETATM   27  C   UNL     1       4.095  30.196  52.786  1.00  0.00     0.256 C 
HETATM   28  N   UNL     1       4.182  28.834  52.558  1.00  0.00    -0.323 N 
HETATM   29  H   UNL     1       4.252  28.234  53.367  1.00  0.00     0.169 HD
HETATM   30  O   UNL     1       3.874  31.069  51.955  1.00  0.00    -0.267 OA
BRANCH  28  31
HETATM   31  C   UNL     1       4.085  28.170  51.314  1.00  0.00     0.035 A 
HETATM   32  C   UNL     1       5.030  27.259  50.844  1.00  0.00     0.030 A 
HETATM   33  C   UNL     1       4.867  26.645  49.598  1.00  0.00     0.010 A 
HETATM   34  C   UNL     1       3.749  26.926  48.807  1.00  0.00    -0.048 A 
HETATM   35  C   UNL     1       3.607  26.299  47.444  1.00  0.00     0.069 C 
HETATM   36  C   UNL     1       2.794  27.849  49.261  1.00  0.00    -0.022 A 
HETATM   37  C   UNL     1       2.182  26.410  46.890  1.00  0.00     0.277 C 
HETATM   38  N   UNL     1       1.680  27.785  47.021  1.00  0.00     0.088 N 
HETATM   39  C   UNL     1       0.397  27.939  46.339  1.00  0.00     0.310 C 
HETATM   40  C   UNL     1       1.549  28.139  48.446  1.00  0.00     0.311 C 
HETATM   41  C   UNL     1       2.965  28.452  50.519  1.00  0.00     0.039 A 
ENDBRANCH  28  31
ENDBRANCH   1  27
TORSDOF 6
ENDMDL
MODEL 9
REMARK VINA RESULT:     -10.6      6.602     11.982
REMARK  6 active torsions:
REMARK  status: ('A' for Active; 'I' for Inactive)
REMARK    1  A    between atoms: C_8  and  N_9 
REMARK       I    between atoms: N_9  and  C_10 
REMARK    2  A    between atoms: C_10  and  C_12 
REMARK    3  A    between atoms: C_16  and  C_17 
REMARK    4  A    between atoms: C_17  and  N_18 
REMARK       I    between atoms: N_18  and  C_19 
REMARK    5  A    between atoms: C_19  and  C_21 
REMARK    6  A    between atoms: C_25  and  C_31 
REMARK       I    between atoms: C_31  and  N_33 
ROOT
HETATM    1  C   UNL     1       4.890  29.136  55.132  1.00  0.00     0.032 A 
HETATM    2  C   UNL     1       4.435  29.326  56.442  1.00  0.00     0.017 A 
HETATM    3  C   UNL     1       3.490  30.318  56.712  1.00  0.00     0.002 A 
HETATM    4  C   UNL     1       3.004  31.126  55.681  1.00  0.00     0.009 A 
HETATM    5  C   UNL     1       3.451  30.948  54.365  1.00  0.00    -0.040 A 
HETATM    6  C   UNL     1       4.406  29.956  54.102  1.00  0.00     0.026 A 
ENDROOT
BRANCH   5   7
HETATM    7  C   UNL     1       2.953  31.839  53.258  1.00  0.00     0.161 C 
BRANCH   7   8
HETATM    8  N   UNL     1       2.458  31.059  52.149  1.00  0.00    -0.351 N 
HETATM    9  C   UNL     1       3.078  31.049  50.921  1.00  0.00     0.268 C 
HETATM   10  O   UNL     1       4.087  31.717  50.707  1.00  0.00    -0.266 OA
HETATM   11  H   UNL     1       1.712  30.409  52.334  1.00  0.00     0.163 HD
BRANCH   9  12
HETATM   12  C   UNL     1       2.442  30.210  49.913  1.00  0.00     0.103 A 
HETATM   13  C   UNL     1       1.396  30.500  49.047  1.00  0.00     0.049 A 
HETATM   14  C   UNL     1       1.168  29.383  48.202  1.00  0.00    -0.006 A 
HETATM   15  C   UNL     1       0.273  29.138  47.142  1.00  0.00     0.030 A 
HETATM   16  C   UNL     1       2.080  28.396  48.569  1.00  0.00     0.045 A 
HETATM   17  C   UNL     1       0.311  27.909  46.464  1.00  0.00     0.032 A 
HETATM   18  C   UNL     1       1.242  26.938  46.839  1.00  0.00     0.019 A 
HETATM   19  C   UNL     1       2.134  27.162  47.899  1.00  0.00     0.031 A 
HETATM   20  N   UNL     1       2.822  28.905  49.620  1.00  0.00    -0.346 N 
HETATM   21  C   UNL     1       3.870  28.182  50.317  1.00  0.00     0.156 C 
BRANCH  17  22
HETATM   22  C   UNL     1      -0.642  27.713  45.335  1.00  0.00     0.249 C 
HETATM   23  O   UNL     1      -0.624  26.699  44.646  1.00  0.00    -0.268 OA
HETATM   24  N   UNL     1      -1.536  28.711  45.061  1.00  0.00    -0.366 N 
HETATM   25  H   UNL     1      -1.475  29.640  45.447  1.00  0.00     0.159 HD
HETATM   26  H   UNL     1      -2.112  28.580  44.239  1.00  0.00     0.159 HD
ENDBRANCH  17  22
ENDBRANCH   9  12
ENDBRANCH   7   8
ENDBRANCH   5   7
BRANCH   1  27
HETATM   27  C   UNL     1       5.918  28.113  54.786  1.00  0.00     0.256 C 
HETATM   28  N   UNL     1       5.420  26.872  54.433  1.00  0.00    -0.323 N 
HETATM   29  H   UNL     1       4.417  26.782  54.354  1.00  0.00     0.169 HD
HETATM   30  O   UNL     1       7.094  28.456  54.805  1.00  0.00    -0.267 OA
BRANCH  28  31
HETATM   31  C   UNL     1       6.164  25.725  54.071  1.00  0.00     0.035 A 
HETATM   32  C   UNL     1       6.577  25.446  52.769  1.00  0.00     0.030 A 
HETATM   33  C   UNL     1       7.306  24.287  52.487  1.00  0.00     0.010 A 
HETATM   34  C   UNL     1       7.644  23.393  53.508  1.00  0.00    -0.048 A 
HETATM   35  C   UNL     1       8.386  22.122  53.188  1.00  0.00     0.069 C 
HETATM   36  C   UNL     1       7.227  23.654  54.823  1.00  0.00    -0.022 A 
HETATM   37  C   UNL     1       8.994  21.465  54.434  1.00  0.00     0.277 C 
HETATM   38  N   UNL     1       7.997  21.375  55.511  1.00  0.00     0.088 N 
HETATM   39  C   UNL     1       8.514  20.595  56.633  1.00  0.00     0.310 C 
HETATM   40  C   UNL     1       7.616  22.727  55.957  1.00  0.00     0.311 C 
HETATM   41  C   UNL     1       6.501  24.827  55.094  1.00  0.00     0.039 A 
ENDBRANCH  28  31
ENDBRANCH   1  27
TORSDOF 6
ENDMDL
MODEL 10
REMARK VINA RESULT:     -10.5      2.513     12.904
REMARK  6 active torsions:
REMARK  status: ('A' for Active; 'I' for Inactive)
REMARK    1  A    between atoms: C_8  and  N_9 
REMARK       I    between atoms: N_9  and  C_10 
REMARK    2  A    between atoms: C_10  and  C_12 
REMARK    3  A    between atoms: C_16  and  C_17 
REMARK    4  A    between atoms: C_17  and  N_18 
REMARK       I    between atoms: N_18  and  C_19 
REMARK    5  A    between atoms: C_19  and  C_21 
REMARK    6  A    between atoms: C_25  and  C_31 
REMARK       I    between atoms: C_31  and  N_33 
ROOT
HETATM    1  C   UNL     1       4.755  31.388  58.561  1.00  0.00     0.032 A 
HETATM    2  C   UNL     1       6.115  31.590  58.301  1.00  0.00     0.017 A 
HETATM    3  C   UNL     1       6.740  30.874  57.278  1.00  0.00     0.002 A 
HETATM    4  C   UNL     1       6.015  29.951  56.520  1.00  0.00     0.009 A 
HETATM    5  C   UNL     1       4.653  29.737  56.770  1.00  0.00    -0.040 A 
HETATM    6  C   UNL     1       4.033  30.454  57.804  1.00  0.00     0.026 A 
ENDROOT
BRANCH   5   7
HETATM    7  C   UNL     1       3.877  28.720  55.975  1.00  0.00     0.161 C 
BRANCH   7   8
HETATM    8  N   UNL     1       4.646  27.513  55.790  1.00  0.00    -0.351 N 
HETATM    9  C   UNL     1       5.221  27.185  54.584  1.00  0.00     0.268 C 
HETATM   10  O   UNL     1       5.099  27.907  53.598  1.00  0.00    -0.266 OA
HETATM   11  H   UNL     1       4.867  26.971  56.610  1.00  0.00     0.163 HD
BRANCH   9  12
HETATM   12  C   UNL     1       5.959  25.927  54.572  1.00  0.00     0.103 A 
HETATM   13  C   UNL     1       6.365  25.125  55.630  1.00  0.00     0.049 A 
HETATM   14  C   UNL     1       7.000  23.964  55.117  1.00  0.00    -0.006 A 
HETATM   15  C   UNL     1       7.565  22.823  55.720  1.00  0.00     0.030 A 
HETATM   16  C   UNL     1       6.991  24.070  53.727  1.00  0.00     0.045 A 
HETATM   17  C   UNL     1       8.107  21.804  54.920  1.00  0.00     0.032 A 
HETATM   18  C   UNL     1       8.075  21.924  53.529  1.00  0.00     0.019 A 
HETATM   19  C   UNL     1       7.525  23.058  52.912  1.00  0.00     0.031 A 
HETATM   20  N   UNL     1       6.381  25.273  53.420  1.00  0.00    -0.346 N 
HETATM   21  C   UNL     1       6.192  25.782  52.074  1.00  0.00     0.156 C 
BRANCH  17  22
HETATM   22  C   UNL     1       8.669  20.609  55.611  1.00  0.00     0.249 C 
HETATM   23  O   UNL     1       8.844  20.590  56.824  1.00  0.00    -0.268 OA
HETATM   24  N   UNL     1       9.014  19.525  54.852  1.00  0.00    -0.366 N 
HETATM   25  H   UNL     1       9.088  19.545  53.847  1.00  0.00     0.159 HD
HETATM   26  H   UNL     1       9.467  18.765  55.343  1.00  0.00     0.159 HD
ENDBRANCH  17  22
ENDBRANCH   9  12
ENDBRANCH   7   8
ENDBRANCH   5   7
BRANCH   1  27
HETATM   27  C   UNL     1       4.038  32.101  59.657  1.00  0.00     0.256 C 
HETATM   28  N   UNL     1       4.780  32.317  60.804  1.00  0.00    -0.323 N 
HETATM   29  H   UNL     1       5.755  32.058  60.780  1.00  0.00     0.169 HD
HETATM   30  O   UNL     1       2.887  32.464  59.444  1.00  0.00    -0.267 OA
BRANCH  28  31
HETATM   31  C   UNL     1       4.350  32.956  61.990  1.00  0.00     0.035 A 
HETATM   32  C   UNL     1       3.096  33.545  62.145  1.00  0.00     0.030 A 
HETATM   33  C   UNL     1       2.745  34.164  63.348  1.00  0.00     0.010 A 
HETATM   34  C   UNL     1       3.640  34.193  64.421  1.00  0.00    -0.048 A 
HETATM   35  C   UNL     1       3.273  34.906  65.697  1.00  0.00     0.069 C 
HETATM   36  C   UNL     1       4.911  33.613  64.279  1.00  0.00    -0.022 A 
HETATM   37  C   UNL     1       4.184  34.523  66.870  1.00  0.00     0.277 C 
HETATM   38  N   UNL     1       5.597  34.600  66.473  1.00  0.00     0.088 N 
HETATM   39  C   UNL     1       6.472  34.409  67.628  1.00  0.00     0.310 C 
HETATM   40  C   UNL     1       5.885  33.590  65.439  1.00  0.00     0.311 C 
HETATM   41  C   UNL     1       5.248  32.987  63.066  1.00  0.00     0.039 A 
ENDBRANCH  28  31
ENDBRANCH   1  27
TORSDOF 6
ENDMDL
