MODEL 1
REMARK VINA RESULT:      -8.4      0.000      0.000
REMARK  8 active torsions:
REMARK  status: ('A' for Active; 'I' for Inactive)
REMARK    1  A    between atoms: C_2  and  N_3 
REMARK    2  A    between atoms: N_3  and  C_5 
REMARK    3  A    between atoms: N_3  and  C_29 
REMARK    4  A    between atoms: C_5  and  C_6 
REMARK    5  A    between atoms: C_6  and  N_7 
REMARK       I    between atoms: N_7  and  C_8 
REMARK    6  A    between atoms: C_8  and  C_9 
REMARK    7  A    between atoms: C_9  and  O_10 
REMARK    8  A    between atoms: N_11  and  C_12 
ROOT
HETATM    1  C   UNL     1       6.206  26.579  54.256  1.00  0.00     0.256 C 
HETATM    2  N   UNL     1       6.978  25.490  53.646  1.00  0.00    -0.254 N 
HETATM    3  C   UNL     1       7.380  25.606  52.325  1.00  0.00     0.330 C 
HETATM    4  O   UNL     1       8.330  25.001  51.828  1.00  0.00    -0.246 OA
HETATM    5  N   UNL     1       6.674  26.461  51.527  1.00  0.00    -0.308 N 
HETATM    6  C   UNL     1       5.531  27.146  51.921  1.00  0.00     0.048 A 
HETATM    7  C   UNL     1       5.227  27.202  53.279  1.00  0.00     0.034 A 
HETATM    8  C   UNL     1       4.739  27.790  50.972  1.00  0.00     0.030 A 
HETATM    9  C   UNL     1       3.610  28.494  51.386  1.00  0.00     0.002 A 
HETATM   10  C   UNL     1       3.284  28.557  52.740  1.00  0.00     0.001 A 
HETATM   11  C   UNL     1       4.090  27.920  53.685  1.00  0.00     0.015 A 
HETATM   12  H   UNL     1       6.911  26.403  50.543  1.00  0.00     0.170 HD
ENDROOT
BRANCH   1  13
HETATM   13  C   UNL     1       7.225  27.678  54.796  1.00  0.00     0.279 C 
HETATM   14  N   UNL     1       7.147  28.056  56.132  1.00  0.00    -0.355 N 
HETATM   15  H   UNL     1       6.679  27.396  56.749  1.00  0.00     0.162 HD
HETATM   16  O   UNL     1       8.017  28.255  54.045  1.00  0.00    -0.268 OA
BRANCH  14  17
HETATM   17  C   UNL     1       8.242  28.817  56.731  1.00  0.00     0.150 C 
BRANCH  17  18
HETATM   18  C   UNL     1       7.813  29.731  57.892  1.00  0.00     0.254 C 
BRANCH  18  19
HETATM   19  N   UNL     1       9.008  30.130  58.754  1.00  0.00    -0.070 N 
HETATM   20  H   UNL     1       9.494  29.240  58.944  1.00  0.00     0.279 HD
BRANCH  19  21
HETATM   21  C   UNL     1       8.594  30.681  60.107  1.00  0.00     0.230 C 
HETATM   22  C   UNL     1       9.267  32.016  60.374  1.00  0.00     0.034 C 
ENDBRANCH  19  21
BRANCH  19  23
HETATM   23  C   UNL     1      10.040  30.999  58.067  1.00  0.00     0.230 C 
HETATM   24  C   UNL     1      11.190  30.195  57.487  1.00  0.00     0.034 C 
ENDBRANCH  19  23
ENDBRANCH  18  19
ENDBRANCH  17  18
ENDBRANCH  14  17
ENDBRANCH   1  13
BRANCH   1  25
HETATM   25  O   UNL     1       5.416  26.076  55.331  1.00  0.00    -0.359 OA
HETATM   26  H   UNL     1       4.513  25.966  54.990  1.00  0.00     0.213 HD
ENDBRANCH   1  25
BRANCH   2  27
HETATM   27  C   UNL     1       7.346  24.315  54.377  1.00  0.00     0.043 A 
HETATM   28  C   UNL     1       7.153  23.018  53.886  1.00  0.00     0.031 A 
HETATM   29  C   UNL     1       7.587  21.904  54.616  1.00  0.00     0.026 A 
HETATM   30  C   UNL     1       8.228  22.077  55.840  1.00  0.00     0.034 A 
HETATM   31 CL   UNL     1       8.781  20.707  56.718  1.00  0.00    -0.084 Cl
HETATM   32  C   UNL     1       8.420  23.355  56.352  1.00  0.00     0.026 A 
HETATM   33  C   UNL     1       7.969  24.465  55.630  1.00  0.00     0.031 A 
ENDBRANCH   2  27
TORSDOF 8
ENDMDL
MODEL 2
REMARK VINA RESULT:      -8.4      2.339      3.277
REMARK  8 active torsions:
REMARK  status: ('A' for Active; 'I' for Inactive)
REMARK    1  A    between atoms: C_2  and  N_3 
REMARK    2  A    between atoms: N_3  and  C_5 
REMARK    3  A    between atoms: N_3  and  C_29 
REMARK    4  A    between atoms: C_5  and  C_6 
REMARK    5  A    between atoms: C_6  and  N_7 
REMARK       I    between atoms: N_7  and  C_8 
REMARK    6  A    between atoms: C_8  and  C_9 
REMARK    7  A    between atoms: C_9  and  O_10 
REMARK    8  A    between atoms: N_11  and  C_12 
ROOT
HETATM    1  C   UNL     1       5.967  28.388  56.485  1.00  0.00     0.256 C 
HETATM    2  N   UNL     1       6.563  27.478  55.500  1.00  0.00    -0.254 N 
HETATM    3  C   UNL     1       6.777  27.928  54.207  1.00  0.00     0.330 C 
HETATM    4  O   UNL     1       7.600  27.449  53.427  1.00  0.00    -0.246 OA
HETATM    5  N   UNL     1       6.024  28.985  53.780  1.00  0.00    -0.308 N 
HETATM    6  C   UNL     1       5.001  29.574  54.513  1.00  0.00     0.048 A 
HETATM    7  C   UNL     1       4.902  29.276  55.870  1.00  0.00     0.034 A 
HETATM    8  C   UNL     1       4.127  30.469  53.900  1.00  0.00     0.030 A 
HETATM    9  C   UNL     1       3.123  31.071  54.655  1.00  0.00     0.002 A 
HETATM   10  C   UNL     1       3.002  30.782  56.014  1.00  0.00     0.001 A 
HETATM   11  C   UNL     1       3.890  29.894  56.622  1.00  0.00     0.015 A 
HETATM   12  H   UNL     1       6.111  29.183  52.789  1.00  0.00     0.170 HD
ENDROOT
BRANCH   1  13
HETATM   13  C   UNL     1       7.128  29.273  57.121  1.00  0.00     0.279 C 
HETATM   14  N   UNL     1       7.042  29.614  58.467  1.00  0.00    -0.355 N 
HETATM   15  H   UNL     1       6.434  29.025  59.031  1.00  0.00     0.162 HD
HETATM   16  O   UNL     1       8.048  29.729  56.436  1.00  0.00    -0.268 OA
BRANCH  14  17
HETATM   17  C   UNL     1       8.217  30.151  59.151  1.00  0.00     0.150 C 
BRANCH  17  18
HETATM   18  C   UNL     1       7.961  31.472  59.897  1.00  0.00     0.254 C 
BRANCH  18  19
HETATM   19  N   UNL     1       7.225  31.233  61.213  1.00  0.00    -0.070 N 
HETATM   20  H   UNL     1       6.819  30.290  61.110  1.00  0.00     0.279 HD
BRANCH  19  21
HETATM   21  C   UNL     1       6.053  32.178  61.406  1.00  0.00     0.230 C 
HETATM   22  C   UNL     1       5.646  32.810  60.087  1.00  0.00     0.034 C 
ENDBRANCH  19  21
BRANCH  19  23
HETATM   23  C   UNL     1       8.107  31.146  62.440  1.00  0.00     0.230 C 
HETATM   24  C   UNL     1       8.005  32.375  63.325  1.00  0.00     0.034 C 
ENDBRANCH  19  23
ENDBRANCH  18  19
ENDBRANCH  17  18
ENDBRANCH  14  17
ENDBRANCH   1  13
BRANCH   1  25
HETATM   25  O   UNL     1       5.309  27.641  57.505  1.00  0.00    -0.359 OA
HETATM   26  H   UNL     1       4.431  28.040  57.625  1.00  0.00     0.213 HD
ENDBRANCH   1  25
BRANCH   2  27
HETATM   27  C   UNL     1       6.951  26.140  55.836  1.00  0.00     0.043 A 
HETATM   28  C   UNL     1       6.319  25.007  55.309  1.00  0.00     0.031 A 
HETATM   29  C   UNL     1       6.777  23.721  55.622  1.00  0.00     0.026 A 
HETATM   30  C   UNL     1       7.877  23.555  56.459  1.00  0.00     0.034 A 
HETATM   31 CL   UNL     1       8.449  21.976  56.820  1.00  0.00    -0.084 Cl
HETATM   32  C   UNL     1       8.512  24.666  57.003  1.00  0.00     0.026 A 
HETATM   33  C   UNL     1       8.042  25.949  56.703  1.00  0.00     0.031 A 
ENDBRANCH   2  27
TORSDOF 8
ENDMDL
MODEL 3
REMARK VINA RESULT:      -8.2      1.764      2.476
REMARK  8 active torsions:
REMARK  status: ('A' for Active; 'I' for Inactive)
REMARK    1  A    between atoms: C_2  and  N_3 
REMARK    2  A    between atoms: N_3  and  C_5 
REMARK    3  A    between atoms: N_3  and  C_29 
REMARK    4  A    between atoms: C_5  and  C_6 
REMARK    5  A    between atoms: C_6  and  N_7 
REMARK       I    between atoms: N_7  and  C_8 
REMARK    6  A    between atoms: C_8  and  C_9 
REMARK    7  A    between atoms: C_9  and  O_10 
REMARK    8  A    between atoms: N_11  and  C_12 
ROOT
HETATM    1  C   UNL     1       6.730  26.438  55.783  1.00  0.00     0.256 C 
HETATM    2  N   UNL     1       7.345  25.823  54.601  1.00  0.00    -0.254 N 
HETATM    3  C   UNL     1       7.571  26.600  53.476  1.00  0.00     0.330 C 
HETATM    4  O   UNL     1       8.407  26.348  52.609  1.00  0.00    -0.246 OA
HETATM    5  N   UNL     1       6.817  27.730  53.334  1.00  0.00    -0.308 N 
HETATM    6  C   UNL     1       5.781  28.101  54.183  1.00  0.00     0.048 A 
HETATM    7  C   UNL     1       5.668  27.454  55.411  1.00  0.00     0.034 A 
HETATM    8  C   UNL     1       4.909  29.124  53.817  1.00  0.00     0.030 A 
HETATM    9  C   UNL     1       3.891  29.501  54.691  1.00  0.00     0.002 A 
HETATM   10  C   UNL     1       3.756  28.862  55.922  1.00  0.00     0.001 A 
HETATM   11  C   UNL     1       4.642  27.847  56.286  1.00  0.00     0.015 A 
HETATM   12  H   UNL     1       6.914  28.184  52.432  1.00  0.00     0.170 HD
ENDROOT
BRANCH   1  13
HETATM   13  C   UNL     1       7.878  27.127  56.647  1.00  0.00     0.279 C 
HETATM   14  N   UNL     1       8.167  28.468  56.418  1.00  0.00    -0.355 N 
HETATM   15  H   UNL     1       7.433  29.003  55.959  1.00  0.00     0.162 HD
HETATM   16  O   UNL     1       8.566  26.484  57.445  1.00  0.00    -0.268 OA
BRANCH  14  17
HETATM   17  C   UNL     1       8.981  29.205  57.381  1.00  0.00     0.150 C 
BRANCH  17  18
HETATM   18  C   UNL     1       8.219  29.648  58.642  1.00  0.00     0.254 C 
BRANCH  18  19
HETATM   19  N   UNL     1       7.486  30.968  58.413  1.00  0.00    -0.070 N 
HETATM   20  H   UNL     1       7.929  31.361  57.567  1.00  0.00     0.279 HD
BRANCH  19  21
HETATM   21  C   UNL     1       7.733  31.973  59.523  1.00  0.00     0.230 C 
HETATM   22  C   UNL     1       9.197  31.984  59.925  1.00  0.00     0.034 C 
ENDBRANCH  19  21
BRANCH  19  23
HETATM   23  C   UNL     1       6.019  30.840  58.061  1.00  0.00     0.230 C 
HETATM   24  C   UNL     1       5.499  32.030  57.275  1.00  0.00     0.034 C 
ENDBRANCH  19  23
ENDBRANCH  18  19
ENDBRANCH  17  18
ENDBRANCH  14  17
ENDBRANCH   1  13
BRANCH   1  25
HETATM   25  O   UNL     1       6.065  25.445  56.560  1.00  0.00    -0.359 OA
HETATM   26  H   UNL     1       5.631  24.841  55.935  1.00  0.00     0.213 HD
ENDBRANCH   1  25
BRANCH   2  27
HETATM   27  C   UNL     1       7.737  24.446  54.576  1.00  0.00     0.043 A 
HETATM   28  C   UNL     1       8.619  23.886  55.509  1.00  0.00     0.031 A 
HETATM   29  C   UNL     1       8.922  22.518  55.476  1.00  0.00     0.026 A 
HETATM   30  C   UNL     1       8.338  21.695  54.516  1.00  0.00     0.034 A 
HETATM   31 CL   UNL     1       8.695  20.015  54.498  1.00  0.00    -0.084 Cl
HETATM   32  C   UNL     1       7.469  22.233  53.574  1.00  0.00     0.026 A 
HETATM   33  C   UNL     1       7.183  23.601  53.597  1.00  0.00     0.031 A 
ENDBRANCH   2  27
TORSDOF 8
ENDMDL
MODEL 4
REMARK VINA RESULT:      -8.2      3.781      6.771
REMARK  8 active torsions:
REMARK  status: ('A' for Active; 'I' for Inactive)
REMARK    1  A    between atoms: C_2  and  N_3 
REMARK    2  A    between atoms: N_3  and  C_5 
REMARK    3  A    between atoms: N_3  and  C_29 
REMARK    4  A    between atoms: C_5  and  C_6 
REMARK    5  A    between atoms: C_6  and  N_7 
REMARK       I    between atoms: N_7  and  C_8 
REMARK    6  A    between atoms: C_8  and  C_9 
REMARK    7  A    between atoms: C_9  and  O_10 
REMARK    8  A    between atoms: N_11  and  C_12 
ROOT
HETATM    1  C   UNL     1       5.200  26.408  52.968  1.00  0.00     0.256 C 
HETATM    2  N   UNL     1       5.177  27.454  51.938  1.00  0.00    -0.254 N 
HETATM    3  C   UNL     1       5.935  28.599  52.122  1.00  0.00     0.330 C 
HETATM    4  O   UNL     1       6.322  29.335  51.215  1.00  0.00    -0.246 OA
HETATM    5  N   UNL     1       6.283  28.921  53.404  1.00  0.00    -0.308 N 
HETATM    6  C   UNL     1       5.852  28.238  54.535  1.00  0.00     0.048 A 
HETATM    7  C   UNL     1       5.263  26.986  54.368  1.00  0.00     0.034 A 
HETATM    8  C   UNL     1       6.046  28.787  55.800  1.00  0.00     0.030 A 
HETATM    9  C   UNL     1       5.632  28.078  56.926  1.00  0.00     0.002 A 
HETATM   10  C   UNL     1       5.035  26.826  56.781  1.00  0.00     0.001 A 
HETATM   11  C   UNL     1       4.856  26.278  55.510  1.00  0.00     0.015 A 
HETATM   12  H   UNL     1       6.708  29.837  53.502  1.00  0.00     0.170 HD
ENDROOT
BRANCH   1  13
HETATM   13  C   UNL     1       6.457  25.466  52.700  1.00  0.00     0.279 C 
HETATM   14  N   UNL     1       6.500  24.223  53.323  1.00  0.00    -0.355 N 
HETATM   15  H   UNL     1       5.604  23.861  53.643  1.00  0.00     0.162 HD
HETATM   16  O   UNL     1       7.421  25.843  52.027  1.00  0.00    -0.268 OA
BRANCH  14  17
HETATM   17  C   UNL     1       7.463  23.222  52.870  1.00  0.00     0.150 C 
BRANCH  17  18
HETATM   18  C   UNL     1       8.537  22.864  53.913  1.00  0.00     0.254 C 
BRANCH  18  19
HETATM   19  N   UNL     1       7.909  22.547  55.268  1.00  0.00    -0.070 N 
HETATM   20  H   UNL     1       6.962  22.953  55.212  1.00  0.00     0.279 HD
BRANCH  19  21
HETATM   21  C   UNL     1       8.606  23.257  56.415  1.00  0.00     0.230 C 
HETATM   22  C   UNL     1       8.073  24.669  56.577  1.00  0.00     0.034 C 
ENDBRANCH  19  21
BRANCH  19  23
HETATM   23  C   UNL     1       7.686  21.076  55.548  1.00  0.00     0.230 C 
HETATM   24  C   UNL     1       8.821  20.450  56.340  1.00  0.00     0.034 C 
ENDBRANCH  19  23
ENDBRANCH  18  19
ENDBRANCH  17  18
ENDBRANCH  14  17
ENDBRANCH   1  13
BRANCH   1  25
HETATM   25  O   UNL     1       3.998  25.644  52.916  1.00  0.00    -0.359 OA
HETATM   26  H   UNL     1       3.686  25.546  53.831  1.00  0.00     0.213 HD
ENDBRANCH   1  25
BRANCH   2  27
HETATM   27  C   UNL     1       4.408  27.323  50.737  1.00  0.00     0.043 A 
HETATM   28  C   UNL     1       4.624  26.305  49.800  1.00  0.00     0.031 A 
HETATM   29  C   UNL     1       3.802  26.186  48.671  1.00  0.00     0.026 A 
HETATM   30  C   UNL     1       2.753  27.079  48.473  1.00  0.00     0.034 A 
HETATM   31 CL   UNL     1       1.734  26.912  47.099  1.00  0.00    -0.084 Cl
HETATM   32  C   UNL     1       2.529  28.104  49.384  1.00  0.00     0.026 A 
HETATM   33  C   UNL     1       3.361  28.232  50.501  1.00  0.00     0.031 A 
ENDBRANCH   2  27
TORSDOF 8
ENDMDL
MODEL 5
REMARK VINA RESULT:      -8.2      2.930      6.339
REMARK  8 active torsions:
REMARK  status: ('A' for Active; 'I' for Inactive)
REMARK    1  A    between atoms: C_2  and  N_3 
REMARK    2  A    between atoms: N_3  and  C_5 
REMARK    3  A    between atoms: N_3  and  C_29 
REMARK    4  A    between atoms: C_5  and  C_6 
REMARK    5  A    between atoms: C_6  and  N_7 
REMARK       I    between atoms: N_7  and  C_8 
REMARK    6  A    between atoms: C_8  and  C_9 
REMARK    7  A    between atoms: C_9  and  O_10 
REMARK    8  A    between atoms: N_11  and  C_12 
ROOT
HETATM    1  C   UNL     1       5.355  27.868  55.461  1.00  0.00     0.256 C 
HETATM    2  N   UNL     1       6.273  27.963  54.319  1.00  0.00    -0.254 N 
HETATM    3  C   UNL     1       7.538  28.494  54.513  1.00  0.00     0.330 C 
HETATM    4  O   UNL     1       8.509  28.270  53.790  1.00  0.00    -0.246 OA
HETATM    5  N   UNL     1       7.715  29.314  55.591  1.00  0.00    -0.308 N 
HETATM    6  C   UNL     1       6.700  29.726  56.446  1.00  0.00     0.048 A 
HETATM    7  C   UNL     1       5.478  29.058  56.392  1.00  0.00     0.034 A 
HETATM    8  C   UNL     1       6.925  30.757  57.355  1.00  0.00     0.030 A 
HETATM    9  C   UNL     1       5.905  31.141  58.223  1.00  0.00     0.002 A 
HETATM   10  C   UNL     1       4.673  30.490  58.182  1.00  0.00     0.001 A 
HETATM   11  C   UNL     1       4.459  29.449  57.276  1.00  0.00     0.015 A 
HETATM   12  H   UNL     1       8.611  29.791  55.608  1.00  0.00     0.170 HD
ENDROOT
BRANCH   1  13
HETATM   13  C   UNL     1       5.664  26.516  56.244  1.00  0.00     0.279 C 
HETATM   14  N   UNL     1       6.907  25.916  56.068  1.00  0.00    -0.355 N 
HETATM   15  H   UNL     1       7.643  26.525  55.719  1.00  0.00     0.162 HD
HETATM   16  O   UNL     1       4.807  25.951  56.929  1.00  0.00    -0.268 OA
BRANCH  14  17
HETATM   17  C   UNL     1       7.336  24.864  56.987  1.00  0.00     0.150 C 
BRANCH  17  18
HETATM   18  C   UNL     1       8.585  24.094  56.525  1.00  0.00     0.254 C 
BRANCH  18  19
HETATM   19  N   UNL     1       8.207  22.781  55.845  1.00  0.00    -0.070 N 
HETATM   20  H   UNL     1       7.191  22.862  55.681  1.00  0.00     0.279 HD
BRANCH  19  21
HETATM   21  C   UNL     1       8.394  21.578  56.752  1.00  0.00     0.230 C 
HETATM   22  C   UNL     1       7.883  20.314  56.084  1.00  0.00     0.034 C 
ENDBRANCH  19  21
BRANCH  19  23
HETATM   23  C   UNL     1       8.807  22.568  54.471  1.00  0.00     0.230 C 
HETATM   24  C   UNL     1       7.916  23.086  53.356  1.00  0.00     0.034 C 
ENDBRANCH  19  23
ENDBRANCH  18  19
ENDBRANCH  17  18
ENDBRANCH  14  17
ENDBRANCH   1  13
BRANCH   1  25
HETATM   25  O   UNL     1       4.005  27.870  55.003  1.00  0.00    -0.359 OA
HETATM   26  H   UNL     1       3.899  28.654  54.440  1.00  0.00     0.213 HD
ENDBRANCH   1  25
BRANCH   2  27
HETATM   27  C   UNL     1       5.911  27.507  53.011  1.00  0.00     0.043 A 
HETATM   28  C   UNL     1       5.839  26.151  52.668  1.00  0.00     0.031 A 
HETATM   29  C   UNL     1       5.420  25.758  51.390  1.00  0.00     0.026 A 
HETATM   30  C   UNL     1       5.060  26.716  50.446  1.00  0.00     0.034 A 
HETATM   31 CL   UNL     1       4.523  26.226  48.890  1.00  0.00    -0.084 Cl
HETATM   32  C   UNL     1       5.135  28.068  50.762  1.00  0.00     0.026 A 
HETATM   33  C   UNL     1       5.571  28.459  52.032  1.00  0.00     0.031 A 
ENDBRANCH   2  27
TORSDOF 8
ENDMDL
MODEL 6
REMARK VINA RESULT:      -8.0      1.980      6.611
REMARK  8 active torsions:
REMARK  status: ('A' for Active; 'I' for Inactive)
REMARK    1  A    between atoms: C_2  and  N_3 
REMARK    2  A    between atoms: N_3  and  C_5 
REMARK    3  A    between atoms: N_3  and  C_29 
REMARK    4  A    between atoms: C_5  and  C_6 
REMARK    5  A    between atoms: C_6  and  N_7 
REMARK       I    between atoms: N_7  and  C_8 
REMARK    6  A    between atoms: C_8  and  C_9 
REMARK    7  A    between atoms: C_9  and  O_10 
REMARK    8  A    between atoms: N_11  and  C_12 
ROOT
HETATM    1  C   UNL     1       7.355  27.044  54.879  1.00  0.00     0.256 C 
HETATM    2  N   UNL     1       6.972  25.755  55.466  1.00  0.00    -0.254 N 
HETATM    3  C   UNL     1       6.325  25.736  56.692  1.00  0.00     0.330 C 
HETATM    4  O   UNL     1       5.613  24.816  57.092  1.00  0.00    -0.246 OA
HETATM    5  N   UNL     1       6.486  26.825  57.502  1.00  0.00    -0.308 N 
HETATM    6  C   UNL     1       7.323  27.899  57.224  1.00  0.00     0.048 A 
HETATM    7  C   UNL     1       7.821  28.034  55.930  1.00  0.00     0.034 A 
HETATM    8  C   UNL     1       7.616  28.831  58.217  1.00  0.00     0.030 A 
HETATM    9  C   UNL     1       8.436  29.917  57.916  1.00  0.00     0.002 A 
HETATM   10  C   UNL     1       8.950  30.067  56.628  1.00  0.00     0.001 A 
HETATM   11  C   UNL     1       8.641  29.135  55.637  1.00  0.00     0.015 A 
HETATM   12  H   UNL     1       6.117  26.704  58.439  1.00  0.00     0.170 HD
ENDROOT
BRANCH   1  13
HETATM   13  C   UNL     1       6.103  27.627  54.085  1.00  0.00     0.279 C 
HETATM   14  N   UNL     1       6.286  28.043  52.770  1.00  0.00    -0.355 N 
HETATM   15  H   UNL     1       7.102  27.660  52.298  1.00  0.00     0.162 HD
HETATM   16  O   UNL     1       5.008  27.795  54.629  1.00  0.00    -0.268 OA
BRANCH  14  17
HETATM   17  C   UNL     1       5.122  28.289  51.923  1.00  0.00     0.150 C 
BRANCH  17  18
HETATM   18  C   UNL     1       4.788  27.137  50.959  1.00  0.00     0.254 C 
BRANCH  18  19
HETATM   19  N   UNL     1       3.666  27.523  49.999  1.00  0.00    -0.070 N 
HETATM   20  H   UNL     1       2.860  26.956  50.308  1.00  0.00     0.279 HD
BRANCH  19  21
HETATM   21  C   UNL     1       3.952  27.107  48.568  1.00  0.00     0.230 C 
HETATM   22  C   UNL     1       3.353  25.743  48.273  1.00  0.00     0.034 C 
ENDBRANCH  19  21
BRANCH  19  23
HETATM   23  C   UNL     1       3.193  28.958  50.102  1.00  0.00     0.230 C 
HETATM   24  C   UNL     1       1.719  29.067  50.449  1.00  0.00     0.034 C 
ENDBRANCH  19  23
ENDBRANCH  18  19
ENDBRANCH  17  18
ENDBRANCH  14  17
ENDBRANCH   1  13
BRANCH   1  25
HETATM   25  O   UNL     1       8.457  26.870  53.993  1.00  0.00    -0.359 OA
HETATM   26  H   UNL     1       8.256  26.095  53.442  1.00  0.00     0.213 HD
ENDBRANCH   1  25
BRANCH   2  27
HETATM   27  C   UNL     1       7.228  24.511  54.805  1.00  0.00     0.043 A 
HETATM   28  C   UNL     1       6.629  24.154  53.590  1.00  0.00     0.031 A 
HETATM   29  C   UNL     1       6.961  22.951  52.953  1.00  0.00     0.026 A 
HETATM   30  C   UNL     1       7.903  22.097  53.521  1.00  0.00     0.034 A 
HETATM   31 CL   UNL     1       8.325  20.635  52.723  1.00  0.00    -0.084 Cl
HETATM   32  C   UNL     1       8.502  22.426  54.732  1.00  0.00     0.026 A 
HETATM   33  C   UNL     1       8.155  23.619  55.374  1.00  0.00     0.031 A 
ENDBRANCH   2  27
TORSDOF 8
ENDMDL
MODEL 7
REMARK VINA RESULT:      -7.8      4.182      7.008
REMARK  8 active torsions:
REMARK  status: ('A' for Active; 'I' for Inactive)
REMARK    1  A    between atoms: C_2  and  N_3 
REMARK    2  A    between atoms: N_3  and  C_5 
REMARK    3  A    between atoms: N_3  and  C_29 
REMARK    4  A    between atoms: C_5  and  C_6 
REMARK    5  A    between atoms: C_6  and  N_7 
REMARK       I    between atoms: N_7  and  C_8 
REMARK    6  A    between atoms: C_8  and  C_9 
REMARK    7  A    between atoms: C_9  and  O_10 
REMARK    8  A    between atoms: N_11  and  C_12 
ROOT
HETATM    1  C   UNL     1       4.661  28.099  52.859  1.00  0.00     0.256 C 
HETATM    2  N   UNL     1       4.543  28.747  51.547  1.00  0.00    -0.254 N 
HETATM    3  C   UNL     1       4.883  30.085  51.422  1.00  0.00     0.330 C 
HETATM    4  O   UNL     1       5.214  30.627  50.368  1.00  0.00    -0.246 OA
HETATM    5  N   UNL     1       4.855  30.846  52.557  1.00  0.00    -0.308 N 
HETATM    6  C   UNL     1       4.422  30.398  53.799  1.00  0.00     0.048 A 
HETATM    7  C   UNL     1       4.269  29.027  53.992  1.00  0.00     0.034 A 
HETATM    8  C   UNL     1       4.189  31.308  54.828  1.00  0.00     0.030 A 
HETATM    9  C   UNL     1       3.780  30.840  56.076  1.00  0.00     0.002 A 
HETATM   10  C   UNL     1       3.614  29.472  56.288  1.00  0.00     0.001 A 
HETATM   11  C   UNL     1       3.863  28.568  55.255  1.00  0.00     0.015 A 
HETATM   12  H   UNL     1       4.968  31.841  52.392  1.00  0.00     0.170 HD
ENDROOT
BRANCH   1  13
HETATM   13  C   UNL     1       6.164  27.603  53.042  1.00  0.00     0.279 C 
HETATM   14  N   UNL     1       6.402  26.239  53.171  1.00  0.00    -0.355 N 
HETATM   15  H   UNL     1       5.665  25.630  52.824  1.00  0.00     0.162 HD
HETATM   16  O   UNL     1       7.102  28.398  53.156  1.00  0.00    -0.268 OA
BRANCH  14  17
HETATM   17  C   UNL     1       7.765  25.729  53.033  1.00  0.00     0.150 C 
BRANCH  17  18
HETATM   18  C   UNL     1       7.851  24.322  52.415  1.00  0.00     0.254 C 
BRANCH  18  19
HETATM   19  N   UNL     1       8.163  23.269  53.476  1.00  0.00    -0.070 N 
HETATM   20  H   UNL     1       9.193  23.196  53.467  1.00  0.00     0.279 HD
BRANCH  19  21
HETATM   21  C   UNL     1       7.640  21.894  53.104  1.00  0.00     0.230 C 
HETATM   22  C   UNL     1       8.739  20.852  53.213  1.00  0.00     0.034 C 
ENDBRANCH  19  21
BRANCH  19  23
HETATM   23  C   UNL     1       7.812  23.658  54.896  1.00  0.00     0.230 C 
HETATM   24  C   UNL     1       8.981  23.505  55.853  1.00  0.00     0.034 C 
ENDBRANCH  19  23
ENDBRANCH  18  19
ENDBRANCH  17  18
ENDBRANCH  14  17
ENDBRANCH   1  13
BRANCH   1  25
HETATM   25  O   UNL     1       3.769  26.990  52.937  1.00  0.00    -0.359 OA
HETATM   26  H   UNL     1       2.872  27.339  52.804  1.00  0.00     0.213 HD
ENDBRANCH   1  25
BRANCH   2  27
HETATM   27  C   UNL     1       4.105  28.037  50.383  1.00  0.00     0.043 A 
HETATM   28  C   UNL     1       4.838  26.993  49.805  1.00  0.00     0.031 A 
HETATM   29  C   UNL     1       4.334  26.289  48.703  1.00  0.00     0.026 A 
HETATM   30  C   UNL     1       3.089  26.619  48.173  1.00  0.00     0.034 A 
HETATM   31 CL   UNL     1       2.467  25.736  46.837  1.00  0.00    -0.084 Cl
HETATM   32  C   UNL     1       2.351  27.660  48.724  1.00  0.00     0.026 A 
HETATM   33  C   UNL     1       2.864  28.372  49.813  1.00  0.00     0.031 A 
ENDBRANCH   2  27
TORSDOF 8
ENDMDL
MODEL 8
REMARK VINA RESULT:      -7.8      7.790     11.983
REMARK  8 active torsions:
REMARK  status: ('A' for Active; 'I' for Inactive)
REMARK    1  A    between atoms: C_2  and  N_3 
REMARK    2  A    between atoms: N_3  and  C_5 
REMARK    3  A    between atoms: N_3  and  C_29 
REMARK    4  A    between atoms: C_5  and  C_6 
REMARK    5  A    between atoms: C_6  and  N_7 
REMARK       I    between atoms: N_7  and  C_8 
REMARK    6  A    between atoms: C_8  and  C_9 
REMARK    7  A    between atoms: C_9  and  O_10 
REMARK    8  A    between atoms: N_11  and  C_12 
ROOT
HETATM    1  C   UNL     1       4.325  34.747  62.017  1.00  0.00     0.256 C 
HETATM    2  N   UNL     1       3.555  34.557  63.253  1.00  0.00    -0.254 N 
HETATM    3  C   UNL     1       2.237  34.136  63.169  1.00  0.00     0.330 C 
HETATM    4  O   UNL     1       1.627  33.567  64.073  1.00  0.00    -0.246 OA
HETATM    5  N   UNL     1       1.580  34.364  61.993  1.00  0.00    -0.308 N 
HETATM    6  C   UNL     1       2.108  35.067  60.916  1.00  0.00     0.048 A 
HETATM    7  C   UNL     1       3.477  35.322  60.899  1.00  0.00     0.034 A 
HETATM    8  C   UNL     1       1.280  35.467  59.869  1.00  0.00     0.030 A 
HETATM    9  C   UNL     1       1.829  36.149  58.785  1.00  0.00     0.002 A 
HETATM   10  C   UNL     1       3.196  36.420  58.750  1.00  0.00     0.001 A 
HETATM   11  C   UNL     1       4.020  36.005  59.798  1.00  0.00     0.015 A 
HETATM   12  H   UNL     1       0.585  34.172  62.029  1.00  0.00     0.170 HD
ENDROOT
BRANCH   1  13
HETATM   13  C   UNL     1       4.935  33.341  61.584  1.00  0.00     0.279 C 
HETATM   14  N   UNL     1       6.308  33.149  61.699  1.00  0.00    -0.355 N 
HETATM   15  H   UNL     1       6.787  33.778  62.339  1.00  0.00     0.162 HD
HETATM   16  O   UNL     1       4.238  32.458  61.075  1.00  0.00    -0.268 OA
BRANCH  14  17
HETATM   17  C   UNL     1       6.857  31.798  61.607  1.00  0.00     0.150 C 
BRANCH  17  18
HETATM   18  C   UNL     1       7.989  31.647  60.576  1.00  0.00     0.254 C 
BRANCH  18  19
HETATM   19  N   UNL     1       7.567  30.748  59.416  1.00  0.00    -0.070 N 
HETATM   20  H   UNL     1       7.142  29.925  59.873  1.00  0.00     0.279 HD
BRANCH  19  21
HETATM   21  C   UNL     1       8.749  30.226  58.621  1.00  0.00     0.230 C 
HETATM   22  C   UNL     1       9.836  31.281  58.515  1.00  0.00     0.034 C 
ENDBRANCH  19  21
BRANCH  19  23
HETATM   23  C   UNL     1       6.474  31.307  58.529  1.00  0.00     0.230 C 
HETATM   24  C   UNL     1       6.252  30.476  57.278  1.00  0.00     0.034 C 
ENDBRANCH  19  23
ENDBRANCH  18  19
ENDBRANCH  17  18
ENDBRANCH  14  17
ENDBRANCH   1  13
BRANCH   1  25
HETATM   25  O   UNL     1       5.373  35.688  62.234  1.00  0.00    -0.359 OA
HETATM   26  H   UNL     1       5.940  35.666  61.445  1.00  0.00     0.213 HD
ENDBRANCH   1  25
BRANCH   2  27
HETATM   27  C   UNL     1       4.127  34.776  64.547  1.00  0.00     0.043 A 
HETATM   28  C   UNL     1       3.863  35.917  65.315  1.00  0.00     0.031 A 
HETATM   29  C   UNL     1       4.400  36.054  66.603  1.00  0.00     0.026 A 
HETATM   30  C   UNL     1       5.198  35.046  67.137  1.00  0.00     0.034 A 
HETATM   31 CL   UNL     1       5.833  35.209  68.725  1.00  0.00    -0.084 Cl
HETATM   32  C   UNL     1       5.482  33.911  66.387  1.00  0.00     0.026 A 
HETATM   33  C   UNL     1       4.960  33.785  65.096  1.00  0.00     0.031 A 
ENDBRANCH   2  27
TORSDOF 8
ENDMDL
MODEL 9
REMARK VINA RESULT:      -7.7      4.286      6.731
REMARK  8 active torsions:
REMARK  status: ('A' for Active; 'I' for Inactive)
REMARK    1  A    between atoms: C_2  and  N_3 
REMARK    2  A    between atoms: N_3  and  C_5 
REMARK    3  A    between atoms: N_3  and  C_29 
REMARK    4  A    between atoms: C_5  and  C_6 
REMARK    5  A    between atoms: C_6  and  N_7 
REMARK       I    between atoms: N_7  and  C_8 
REMARK    6  A    between atoms: C_8  and  C_9 
REMARK    7  A    between atoms: C_9  and  O_10 
REMARK    8  A    between atoms: N_11  and  C_12 
ROOT
HETATM    1  C   UNL     1       4.005  29.048  52.589  1.00  0.00     0.256 C 
HETATM    2  N   UNL     1       4.425  29.095  51.183  1.00  0.00    -0.254 N 
HETATM    3  C   UNL     1       5.278  30.105  50.767  1.00  0.00     0.330 C 
HETATM    4  O   UNL     1       6.005  30.041  49.777  1.00  0.00    -0.246 OA
HETATM    5  N   UNL     1       5.315  31.244  51.521  1.00  0.00    -0.308 N 
HETATM    6  C   UNL     1       4.494  31.495  52.614  1.00  0.00     0.048 A 
HETATM    7  C   UNL     1       3.781  30.433  53.165  1.00  0.00     0.034 A 
HETATM    8  C   UNL     1       4.427  32.776  53.158  1.00  0.00     0.030 A 
HETATM    9  C   UNL     1       3.618  33.006  54.270  1.00  0.00     0.002 A 
HETATM   10  C   UNL     1       2.891  31.958  54.833  1.00  0.00     0.001 A 
HETATM   11  C   UNL     1       2.975  30.675  54.289  1.00  0.00     0.015 A 
HETATM   12  H   UNL     1       5.839  32.004  51.100  1.00  0.00     0.170 HD
ENDROOT
BRANCH   1  13
HETATM   13  C   UNL     1       5.122  28.275  53.422  1.00  0.00     0.279 C 
HETATM   14  N   UNL     1       4.715  27.387  54.414  1.00  0.00    -0.355 N 
HETATM   15  H   UNL     1       3.760  27.046  54.332  1.00  0.00     0.162 HD
HETATM   16  O   UNL     1       6.324  28.505  53.268  1.00  0.00    -0.268 OA
BRANCH  14  17
HETATM   17  C   UNL     1       5.680  26.446  54.978  1.00  0.00     0.150 C 
BRANCH  17  18
HETATM   18  C   UNL     1       5.783  25.116  54.212  1.00  0.00     0.254 C 
BRANCH  18  19
HETATM   19  N   UNL     1       7.153  24.470  54.404  1.00  0.00    -0.070 N 
HETATM   20  H   UNL     1       7.742  25.229  54.782  1.00  0.00     0.279 HD
BRANCH  19  21
HETATM   21  C   UNL     1       7.792  24.054  53.092  1.00  0.00     0.230 C 
HETATM   22  C   UNL     1       7.650  25.151  52.052  1.00  0.00     0.034 C 
ENDBRANCH  19  21
BRANCH  19  23
HETATM   23  C   UNL     1       7.211  23.376  55.449  1.00  0.00     0.230 C 
HETATM   24  C   UNL     1       8.497  22.571  55.385  1.00  0.00     0.034 C 
ENDBRANCH  19  23
ENDBRANCH  18  19
ENDBRANCH  17  18
ENDBRANCH  14  17
ENDBRANCH   1  13
BRANCH   1  25
HETATM   25  O   UNL     1       2.756  28.372  52.704  1.00  0.00    -0.359 OA
HETATM   26  H   UNL     1       2.327  28.421  51.833  1.00  0.00     0.213 HD
ENDBRANCH   1  25
BRANCH   2  27
HETATM   27  C   UNL     1       3.996  28.119  50.227  1.00  0.00     0.043 A 
HETATM   28  C   UNL     1       2.932  28.333  49.343  1.00  0.00     0.031 A 
HETATM   29  C   UNL     1       2.592  27.368  48.385  1.00  0.00     0.026 A 
HETATM   30  C   UNL     1       3.320  26.184  48.297  1.00  0.00     0.034 A 
HETATM   31 CL   UNL     1       2.913  25.017  47.103  1.00  0.00    -0.084 Cl
HETATM   32  C   UNL     1       4.372  25.947  49.172  1.00  0.00     0.026 A 
HETATM   33  C   UNL     1       4.698  26.903  50.140  1.00  0.00     0.031 A 
ENDBRANCH   2  27
TORSDOF 8
ENDMDL
MODEL 10
REMARK VINA RESULT:      -7.7      3.667      7.840
REMARK  8 active torsions:
REMARK  status: ('A' for Active; 'I' for Inactive)
REMARK    1  A    between atoms: C_2  and  N_3 
REMARK    2  A    between atoms: N_3  and  C_5 
REMARK    3  A    between atoms: N_3  and  C_29 
REMARK    4  A    between atoms: C_5  and  C_6 
REMARK    5  A    between atoms: C_6  and  N_7 
REMARK       I    between atoms: N_7  and  C_8 
REMARK    6  A    between atoms: C_8  and  C_9 
REMARK    7  A    between atoms: C_9  and  O_10 
REMARK    8  A    between atoms: N_11  and  C_12 
ROOT
HETATM    1  C   UNL     1       6.081  28.665  57.068  1.00  0.00     0.256 C 
HETATM    2  N   UNL     1       7.090  29.580  57.614  1.00  0.00    -0.254 N 
HETATM    3  C   UNL     1       8.430  29.339  57.358  1.00  0.00     0.330 C 
HETATM    4  O   UNL     1       9.314  30.194  57.394  1.00  0.00    -0.246 OA
HETATM    5  N   UNL     1       8.785  28.060  57.032  1.00  0.00    -0.308 N 
HETATM    6  C   UNL     1       7.917  26.975  57.034  1.00  0.00     0.048 A 
HETATM    7  C   UNL     1       6.547  27.222  57.091  1.00  0.00     0.034 A 
HETATM    8  C   UNL     1       8.418  25.678  56.939  1.00  0.00     0.030 A 
HETATM    9  C   UNL     1       7.533  24.602  56.916  1.00  0.00     0.002 A 
HETATM   10  C   UNL     1       6.159  24.827  56.979  1.00  0.00     0.001 A 
HETATM   11  C   UNL     1       5.665  26.130  57.060  1.00  0.00     0.015 A 
HETATM   12  H   UNL     1       9.786  27.903  56.997  1.00  0.00     0.170 HD
ENDROOT
BRANCH   1  13
HETATM   13  C   UNL     1       5.746  29.116  55.578  1.00  0.00     0.279 C 
HETATM   14  N   UNL     1       6.168  28.306  54.528  1.00  0.00    -0.355 N 
HETATM   15  H   UNL     1       6.371  27.340  54.774  1.00  0.00     0.162 HD
HETATM   16  O   UNL     1       5.202  30.196  55.332  1.00  0.00    -0.268 OA
BRANCH  14  17
HETATM   17  C   UNL     1       5.623  28.520  53.189  1.00  0.00     0.150 C 
BRANCH  17  18
HETATM   18  C   UNL     1       4.280  27.813  52.936  1.00  0.00     0.254 C 
BRANCH  18  19
HETATM   19  N   UNL     1       4.483  26.471  52.237  1.00  0.00    -0.070 N 
HETATM   20  H   UNL     1       3.568  26.269  51.803  1.00  0.00     0.279 HD
BRANCH  19  21
HETATM   21  C   UNL     1       4.746  25.338  53.212  1.00  0.00     0.230 C 
HETATM   22  C   UNL     1       6.073  24.664  52.910  1.00  0.00     0.034 C 
ENDBRANCH  19  21
BRANCH  19  23
HETATM   23  C   UNL     1       5.466  26.484  51.085  1.00  0.00     0.230 C 
HETATM   24  C   UNL     1       4.784  26.401  49.731  1.00  0.00     0.034 C 
ENDBRANCH  19  23
ENDBRANCH  18  19
ENDBRANCH  17  18
ENDBRANCH  14  17
ENDBRANCH   1  13
BRANCH   1  25
HETATM   25  O   UNL     1       4.901  28.705  57.867  1.00  0.00    -0.359 OA
HETATM   26  H   UNL     1       4.845  29.600  58.243  1.00  0.00     0.213 HD
ENDBRANCH   1  25
BRANCH   2  27
HETATM   27  C   UNL     1       6.734  30.730  58.391  1.00  0.00     0.043 A 
HETATM   28  C   UNL     1       5.789  31.673  57.970  1.00  0.00     0.031 A 
HETATM   29  C   UNL     1       5.432  32.748  58.796  1.00  0.00     0.026 A 
HETATM   30  C   UNL     1       6.011  32.883  60.055  1.00  0.00     0.034 A 
HETATM   31 CL   UNL     1       5.551  34.188  61.073  1.00  0.00    -0.084 Cl
HETATM   32  C   UNL     1       6.961  31.964  60.488  1.00  0.00     0.026 A 
HETATM   33  C   UNL     1       7.328  30.903  59.655  1.00  0.00     0.031 A 
ENDBRANCH   2  27
TORSDOF 8
ENDMDL
