MODEL 1
REMARK VINA RESULT:      -7.2      0.000      0.000
REMARK  2 active torsions:
REMARK  status: ('A' for Active; 'I' for Inactive)
REMARK    1  A    between atoms: N_6  and  C_7 
REMARK    2  A    between atoms: C_8  and  N_9 
ROOT
HETATM    1  C   UNL     1       7.348  24.033  55.932  1.00  0.00     0.066 A 
HETATM    2  C   UNL     1       7.187  24.131  54.528  1.00  0.00     0.130 A 
HETATM    3  C   UNL     1       7.485  23.085  53.640  1.00  0.00     0.060 A 
HETATM    4  C   UNL     1       7.980  21.893  54.154  1.00  0.00     0.052 A 
HETATM    5 BR   UNL     1       8.380  20.465  52.986  1.00  0.00    -0.048 Br
HETATM    6  C   UNL     1       8.179  21.767  55.524  1.00  0.00     0.136 A 
HETATM    7  F   UNL     1       8.654  20.628  56.050  1.00  0.00    -0.205 F 
HETATM    8  C   UNL     1       7.874  22.817  56.397  1.00  0.00     0.075 A 
ENDROOT
BRANCH   1   9
HETATM    9  N   UNL     1       7.002  25.023  56.837  1.00  0.00    -0.376 N 
HETATM   10  C   UNL     1       5.596  25.315  57.155  1.00  0.00     0.150 C 
HETATM   11  C   UNL     1       5.235  26.763  56.765  1.00  0.00     0.254 C 
HETATM   12  N   UNL     1       6.227  27.748  57.385  1.00  0.00    -0.072 N 
HETATM   13  C   UNL     1       5.882  29.169  57.055  1.00  0.00     0.269 C 
HETATM   14  H   UNL     1       6.161  27.641  58.406  1.00  0.00     0.279 HD
HETATM   15  C   UNL     1       7.665  27.407  56.994  1.00  0.00     0.254 C 
HETATM   16  C   UNL     1       8.011  25.951  57.377  1.00  0.00     0.150 C 
ENDBRANCH   1   9
BRANCH   2  17
HETATM   17  N   UNL     1       6.746  25.377  53.932  1.00  0.00    -0.113 N 
HETATM   18  O   UNL     1       5.559  25.461  53.593  1.00  0.00    -0.532 OA
HETATM   19  O   UNL     1       7.608  26.252  53.776  1.00  0.00    -0.532 OA
ENDBRANCH   2  17
TORSDOF 2
ENDMDL
MODEL 2
REMARK VINA RESULT:      -7.0      2.160      3.042
REMARK  2 active torsions:
REMARK  status: ('A' for Active; 'I' for Inactive)
REMARK    1  A    between atoms: N_6  and  C_7 
REMARK    2  A    between atoms: C_8  and  N_9 
ROOT
HETATM    1  C   UNL     1       7.071  24.786  54.411  1.00  0.00     0.066 A 
HETATM    2  C   UNL     1       7.324  24.336  55.731  1.00  0.00     0.130 A 
HETATM    3  C   UNL     1       7.744  23.031  56.034  1.00  0.00     0.060 A 
HETATM    4  C   UNL     1       7.906  22.121  54.997  1.00  0.00     0.052 A 
HETATM    5 BR   UNL     1       8.479  20.363  55.375  1.00  0.00    -0.048 Br
HETATM    6  C   UNL     1       7.640  22.517  53.691  1.00  0.00     0.136 A 
HETATM    7  F   UNL     1       7.789  21.662  52.669  1.00  0.00    -0.205 F 
HETATM    8  C   UNL     1       7.226  23.821  53.402  1.00  0.00     0.075 A 
ENDROOT
BRANCH   1   9
HETATM    9  N   UNL     1       6.719  26.083  54.074  1.00  0.00    -0.376 N 
HETATM   10  C   UNL     1       7.735  27.130  53.886  1.00  0.00     0.150 C 
HETATM   11  C   UNL     1       7.541  28.271  54.905  1.00  0.00     0.254 C 
HETATM   12  N   UNL     1       6.103  28.790  54.860  1.00  0.00    -0.072 N 
HETATM   13  C   UNL     1       5.890  29.927  55.814  1.00  0.00     0.269 C 
HETATM   14  H   UNL     1       5.939  29.147  53.909  1.00  0.00     0.279 HD
HETATM   15  C   UNL     1       5.099  27.660  55.090  1.00  0.00     0.254 C 
HETATM   16  C   UNL     1       5.311  26.517  54.074  1.00  0.00     0.150 C 
ENDBRANCH   1   9
BRANCH   2  17
HETATM   17  N   UNL     1       7.098  25.220  56.857  1.00  0.00    -0.113 N 
HETATM   18  O   UNL     1       8.060  25.882  57.267  1.00  0.00    -0.532 OA
HETATM   19  O   UNL     1       5.961  25.216  57.345  1.00  0.00    -0.532 OA
ENDBRANCH   2  17
TORSDOF 2
ENDMDL
MODEL 3
REMARK VINA RESULT:      -6.9      1.595      2.077
REMARK  2 active torsions:
REMARK  status: ('A' for Active; 'I' for Inactive)
REMARK    1  A    between atoms: N_6  and  C_7 
REMARK    2  A    between atoms: C_8  and  N_9 
ROOT
HETATM    1  C   UNL     1       7.168  25.037  54.407  1.00  0.00     0.066 A 
HETATM    2  C   UNL     1       6.718  24.350  53.252  1.00  0.00     0.130 A 
HETATM    3  C   UNL     1       7.135  23.053  52.913  1.00  0.00     0.060 A 
HETATM    4  C   UNL     1       8.048  22.407  53.737  1.00  0.00     0.052 A 
HETATM    5 BR   UNL     1       8.618  20.658  53.313  1.00  0.00    -0.048 Br
HETATM    6  C   UNL     1       8.534  23.058  54.865  1.00  0.00     0.136 A 
HETATM    7  F   UNL     1       9.415  22.459  55.681  1.00  0.00    -0.205 F 
HETATM    8  C   UNL     1       8.108  24.350  55.192  1.00  0.00     0.075 A 
ENDROOT
BRANCH   1   9
HETATM    9  N   UNL     1       6.726  26.289  54.802  1.00  0.00    -0.376 N 
HETATM   10  C   UNL     1       7.447  27.513  54.419  1.00  0.00     0.150 C 
HETATM   11  C   UNL     1       7.956  28.262  55.668  1.00  0.00     0.254 C 
HETATM   12  N   UNL     1       6.811  28.501  56.653  1.00  0.00    -0.072 N 
HETATM   13  C   UNL     1       7.266  29.260  57.863  1.00  0.00     0.269 C 
HETATM   14  H   UNL     1       6.111  29.078  56.169  1.00  0.00     0.279 HD
HETATM   15  C   UNL     1       6.123  27.189  57.031  1.00  0.00     0.254 C 
HETATM   16  C   UNL     1       5.629  26.441  55.773  1.00  0.00     0.150 C 
ENDBRANCH   1   9
BRANCH   2  17
HETATM   17  N   UNL     1       5.825  25.006  52.318  1.00  0.00    -0.113 N 
HETATM   18  O   UNL     1       4.611  24.802  52.448  1.00  0.00    -0.532 OA
HETATM   19  O   UNL     1       6.354  25.694  51.436  1.00  0.00    -0.532 OA
ENDBRANCH   2  17
TORSDOF 2
ENDMDL
MODEL 4
REMARK VINA RESULT:      -6.6      2.924      3.480
REMARK  2 active torsions:
REMARK  status: ('A' for Active; 'I' for Inactive)
REMARK    1  A    between atoms: N_6  and  C_7 
REMARK    2  A    between atoms: C_8  and  N_9 
ROOT
HETATM    1  C   UNL     1       6.495  24.833  54.475  1.00  0.00     0.066 A 
HETATM    2  C   UNL     1       6.761  24.320  55.768  1.00  0.00     0.130 A 
HETATM    3  C   UNL     1       7.433  23.108  55.995  1.00  0.00     0.060 A 
HETATM    4  C   UNL     1       7.847  22.357  54.903  1.00  0.00     0.052 A 
HETATM    5 BR   UNL     1       8.762  20.730  55.177  1.00  0.00    -0.048 Br
HETATM    6  C   UNL     1       7.580  22.814  53.617  1.00  0.00     0.136 A 
HETATM    7  F   UNL     1       7.969  22.112  52.542  1.00  0.00    -0.205 F 
HETATM    8  C   UNL     1       6.912  24.024  53.405  1.00  0.00     0.075 A 
ENDROOT
BRANCH   1   9
HETATM    9  N   UNL     1       5.892  26.054  54.219  1.00  0.00    -0.376 N 
HETATM   10  C   UNL     1       4.634  26.146  53.463  1.00  0.00     0.150 C 
HETATM   11  C   UNL     1       4.832  26.961  52.168  1.00  0.00     0.254 C 
HETATM   12  N   UNL     1       5.468  28.316  52.480  1.00  0.00    -0.072 N 
HETATM   13  C   UNL     1       5.640  29.149  51.245  1.00  0.00     0.269 C 
HETATM   14  H   UNL     1       4.821  28.817  53.104  1.00  0.00     0.279 HD
HETATM   15  C   UNL     1       6.783  28.150  53.241  1.00  0.00     0.254 C 
HETATM   16  C   UNL     1       6.576  27.322  54.528  1.00  0.00     0.150 C 
ENDBRANCH   1   9
BRANCH   2  17
HETATM   17  N   UNL     1       6.283  25.024  56.942  1.00  0.00    -0.113 N 
HETATM   18  O   UNL     1       5.064  25.023  57.153  1.00  0.00    -0.532 OA
HETATM   19  O   UNL     1       7.136  25.604  57.625  1.00  0.00    -0.532 OA
ENDBRANCH   2  17
TORSDOF 2
ENDMDL
MODEL 5
REMARK VINA RESULT:      -6.4      1.843      2.551
REMARK  2 active torsions:
REMARK  status: ('A' for Active; 'I' for Inactive)
REMARK    1  A    between atoms: N_6  and  C_7 
REMARK    2  A    between atoms: C_8  and  N_9 
ROOT
HETATM    1  C   UNL     1       7.034  25.828  55.633  1.00  0.00     0.066 A 
HETATM    2  C   UNL     1       6.741  24.795  54.709  1.00  0.00     0.130 A 
HETATM    3  C   UNL     1       7.166  23.467  54.874  1.00  0.00     0.060 A 
HETATM    4  C   UNL     1       7.927  23.142  55.989  1.00  0.00     0.052 A 
HETATM    5 BR   UNL     1       8.504  21.362  56.243  1.00  0.00    -0.048 Br
HETATM    6  C   UNL     1       8.260  24.133  56.906  1.00  0.00     0.136 A 
HETATM    7  F   UNL     1       8.992  23.849  57.993  1.00  0.00    -0.205 F 
HETATM    8  C   UNL     1       7.827  25.452  56.730  1.00  0.00     0.075 A 
ENDROOT
BRANCH   1   9
HETATM    9  N   UNL     1       6.575  27.131  55.532  1.00  0.00    -0.376 N 
HETATM   10  C   UNL     1       7.447  28.217  55.058  1.00  0.00     0.150 C 
HETATM   11  C   UNL     1       7.626  29.291  56.151  1.00  0.00     0.254 C 
HETATM   12  N   UNL     1       6.266  29.768  56.662  1.00  0.00    -0.072 N 
HETATM   13  C   UNL     1       6.404  30.840  57.701  1.00  0.00     0.269 C 
HETATM   14  H   UNL     1       5.767  30.175  55.859  1.00  0.00     0.279 HD
HETATM   15  C   UNL     1       5.421  28.597  57.163  1.00  0.00     0.254 C 
HETATM   16  C   UNL     1       5.259  27.522  56.067  1.00  0.00     0.150 C 
ENDBRANCH   1   9
BRANCH   2  17
HETATM   17  N   UNL     1       6.016  25.095  53.490  1.00  0.00    -0.113 N 
HETATM   18  O   UNL     1       4.792  24.909  53.492  1.00  0.00    -0.532 OA
HETATM   19  O   UNL     1       6.688  25.480  52.526  1.00  0.00    -0.532 OA
ENDBRANCH   2  17
TORSDOF 2
ENDMDL
MODEL 6
REMARK VINA RESULT:      -6.4      2.378      2.725
REMARK  2 active torsions:
REMARK  status: ('A' for Active; 'I' for Inactive)
REMARK    1  A    between atoms: N_6  and  C_7 
REMARK    2  A    between atoms: C_8  and  N_9 
ROOT
HETATM    1  C   UNL     1       7.118  25.388  55.205  1.00  0.00     0.066 A 
HETATM    2  C   UNL     1       6.837  24.399  54.230  1.00  0.00     0.130 A 
HETATM    3  C   UNL     1       7.133  23.037  54.403  1.00  0.00     0.060 A 
HETATM    4  C   UNL     1       7.748  22.631  55.580  1.00  0.00     0.052 A 
HETATM    5 BR   UNL     1       8.149  20.806  55.846  1.00  0.00    -0.048 Br
HETATM    6  C   UNL     1       8.066  23.576  56.550  1.00  0.00     0.136 A 
HETATM    7  F   UNL     1       8.658  23.214  57.697  1.00  0.00    -0.205 F 
HETATM    8  C   UNL     1       7.761  24.929  56.365  1.00  0.00     0.075 A 
ENDROOT
BRANCH   1   9
HETATM    9  N   UNL     1       6.779  26.726  55.090  1.00  0.00    -0.376 N 
HETATM   10  C   UNL     1       5.508  27.245  55.617  1.00  0.00     0.150 C 
HETATM   11  C   UNL     1       4.642  27.830  54.482  1.00  0.00     0.254 C 
HETATM   12  N   UNL     1       5.440  28.854  53.674  1.00  0.00    -0.072 N 
HETATM   13  C   UNL     1       4.615  29.469  52.584  1.00  0.00     0.269 C 
HETATM   14  H   UNL     1       5.711  29.606  54.321  1.00  0.00     0.279 HD
HETATM   15  C   UNL     1       6.734  28.246  53.132  1.00  0.00     0.254 C 
HETATM   16  C   UNL     1       7.586  27.651  54.274  1.00  0.00     0.150 C 
ENDBRANCH   1   9
BRANCH   2  17
HETATM   17  N   UNL     1       6.266  24.778  52.953  1.00  0.00    -0.113 N 
HETATM   18  O   UNL     1       7.049  25.035  52.030  1.00  0.00    -0.532 OA
HETATM   19  O   UNL     1       5.032  24.850  52.897  1.00  0.00    -0.532 OA
ENDBRANCH   2  17
TORSDOF 2
ENDMDL
MODEL 7
REMARK VINA RESULT:      -6.4      1.730      2.171
REMARK  2 active torsions:
REMARK  status: ('A' for Active; 'I' for Inactive)
REMARK    1  A    between atoms: N_6  and  C_7 
REMARK    2  A    between atoms: C_8  and  N_9 
ROOT
HETATM    1  C   UNL     1       6.747  26.030  55.876  1.00  0.00     0.066 A 
HETATM    2  C   UNL     1       7.120  26.264  54.529  1.00  0.00     0.130 A 
HETATM    3  C   UNL     1       7.505  25.243  53.645  1.00  0.00     0.060 A 
HETATM    4  C   UNL     1       7.541  23.935  54.109  1.00  0.00     0.052 A 
HETATM    5 BR   UNL     1       8.043  22.541  52.940  1.00  0.00    -0.048 Br
HETATM    6  C   UNL     1       7.208  23.667  55.432  1.00  0.00     0.136 A 
HETATM    7  F   UNL     1       7.232  22.414  55.909  1.00  0.00    -0.205 F 
HETATM    8  C   UNL     1       6.824  24.694  56.301  1.00  0.00     0.075 A 
ENDROOT
BRANCH   1   9
HETATM    9  N   UNL     1       6.302  27.006  56.752  1.00  0.00    -0.376 N 
HETATM   10  C   UNL     1       4.902  27.459  56.750  1.00  0.00     0.150 C 
HETATM   11  C   UNL     1       4.813  28.960  56.409  1.00  0.00     0.254 C 
HETATM   12  N   UNL     1       5.725  29.774  57.328  1.00  0.00    -0.072 N 
HETATM   13  C   UNL     1       5.634  31.244  57.046  1.00  0.00     0.269 C 
HETATM   14  H   UNL     1       5.398  29.621  58.291  1.00  0.00     0.279 HD
HETATM   15  C   UNL     1       7.168  29.272  57.263  1.00  0.00     0.254 C 
HETATM   16  C   UNL     1       7.244  27.765  57.593  1.00  0.00     0.150 C 
ENDBRANCH   1   9
BRANCH   2  17
HETATM   17  N   UNL     1       7.174  27.619  54.015  1.00  0.00    -0.113 N 
HETATM   18  O   UNL     1       6.172  28.049  53.430  1.00  0.00    -0.532 OA
HETATM   19  O   UNL     1       8.239  28.229  54.171  1.00  0.00    -0.532 OA
ENDBRANCH   2  17
TORSDOF 2
ENDMDL
MODEL 8
REMARK VINA RESULT:      -6.1      2.434      3.368
REMARK  2 active torsions:
REMARK  status: ('A' for Active; 'I' for Inactive)
REMARK    1  A    between atoms: N_6  and  C_7 
REMARK    2  A    between atoms: C_8  and  N_9 
ROOT
HETATM    1  C   UNL     1       6.628  26.154  55.097  1.00  0.00     0.066 A 
HETATM    2  C   UNL     1       7.436  25.405  55.987  1.00  0.00     0.130 A 
HETATM    3  C   UNL     1       7.858  24.091  55.729  1.00  0.00     0.060 A 
HETATM    4  C   UNL     1       7.455  23.478  54.550  1.00  0.00     0.052 A 
HETATM    5 BR   UNL     1       8.015  21.716  54.171  1.00  0.00    -0.048 Br
HETATM    6  C   UNL     1       6.637  24.170  53.662  1.00  0.00     0.136 A 
HETATM    7  F   UNL     1       6.233  23.605  52.515  1.00  0.00    -0.205 F 
HETATM    8  C   UNL     1       6.227  25.480  53.931  1.00  0.00     0.075 A 
ENDROOT
BRANCH   1   9
HETATM    9  N   UNL     1       6.250  27.472  55.293  1.00  0.00    -0.376 N 
HETATM   10  C   UNL     1       7.127  28.588  54.908  1.00  0.00     0.150 C 
HETATM   11  C   UNL     1       7.515  29.431  56.140  1.00  0.00     0.254 C 
HETATM   12  N   UNL     1       6.265  29.862  56.909  1.00  0.00    -0.072 N 
HETATM   13  C   UNL     1       6.606  30.715  58.094  1.00  0.00     0.269 C 
HETATM   14  H   UNL     1       5.698  30.433  56.268  1.00  0.00     0.279 HD
HETATM   15  C   UNL     1       5.412  28.657  57.303  1.00  0.00     0.254 C 
HETATM   16  C   UNL     1       5.041  27.813  56.064  1.00  0.00     0.150 C 
ENDBRANCH   1   9
BRANCH   2  17
HETATM   17  N   UNL     1       7.823  25.969  57.266  1.00  0.00    -0.113 N 
HETATM   18  O   UNL     1       8.885  26.603  57.314  1.00  0.00    -0.532 OA
HETATM   19  O   UNL     1       7.073  25.737  58.223  1.00  0.00    -0.532 OA
ENDBRANCH   2  17
TORSDOF 2
ENDMDL
MODEL 9
REMARK VINA RESULT:      -5.8      4.742      6.480
REMARK  2 active torsions:
REMARK  status: ('A' for Active; 'I' for Inactive)
REMARK    1  A    between atoms: N_6  and  C_7 
REMARK    2  A    between atoms: C_8  and  N_9 
ROOT
HETATM    1  C   UNL     1       7.892  28.452  56.364  1.00  0.00     0.066 A 
HETATM    2  C   UNL     1       6.819  29.177  56.940  1.00  0.00     0.130 A 
HETATM    3  C   UNL     1       6.997  30.191  57.896  1.00  0.00     0.060 A 
HETATM    4  C   UNL     1       8.285  30.494  58.318  1.00  0.00     0.052 A 
HETATM    5 BR   UNL     1       8.556  31.858  59.593  1.00  0.00    -0.048 Br
HETATM    6  C   UNL     1       9.362  29.785  57.797  1.00  0.00     0.136 A 
HETATM    7  F   UNL     1      10.617  30.056  58.184  1.00  0.00    -0.205 F 
HETATM    8  C   UNL     1       9.170  28.780  56.843  1.00  0.00     0.075 A 
ENDROOT
BRANCH   1   9
HETATM    9  N   UNL     1       7.753  27.493  55.374  1.00  0.00    -0.376 N 
HETATM   10  C   UNL     1       7.644  27.866  53.955  1.00  0.00     0.150 C 
HETATM   11  C   UNL     1       6.292  27.406  53.371  1.00  0.00     0.254 C 
HETATM   12  N   UNL     1       6.071  25.917  53.639  1.00  0.00    -0.072 N 
HETATM   13  C   UNL     1       4.781  25.429  53.051  1.00  0.00     0.269 C 
HETATM   14  H   UNL     1       6.836  25.410  53.174  1.00  0.00     0.279 HD
HETATM   15  C   UNL     1       6.171  25.601  55.131  1.00  0.00     0.254 C 
HETATM   16  C   UNL     1       7.522  26.077  55.708  1.00  0.00     0.150 C 
ENDBRANCH   1   9
BRANCH   2  17
HETATM   17  N   UNL     1       5.450  28.850  56.592  1.00  0.00    -0.113 N 
HETATM   18  O   UNL     1       4.915  27.913  57.199  1.00  0.00    -0.532 OA
HETATM   19  O   UNL     1       4.935  29.515  55.685  1.00  0.00    -0.532 OA
ENDBRANCH   2  17
TORSDOF 2
ENDMDL
MODEL 10
REMARK VINA RESULT:      -5.8     10.324     11.596
REMARK  2 active torsions:
REMARK  status: ('A' for Active; 'I' for Inactive)
REMARK    1  A    between atoms: N_6  and  C_7 
REMARK    2  A    between atoms: C_8  and  N_9 
ROOT
HETATM    1  C   UNL     1       5.417  33.450  61.870  1.00  0.00     0.066 A 
HETATM    2  C   UNL     1       6.147  33.096  63.032  1.00  0.00     0.130 A 
HETATM    3  C   UNL     1       7.283  32.271  63.008  1.00  0.00     0.060 A 
HETATM    4  C   UNL     1       7.711  31.756  61.792  1.00  0.00     0.052 A 
HETATM    5 BR   UNL     1       9.241  30.653  61.728  1.00  0.00    -0.048 Br
HETATM    6  C   UNL     1       7.004  32.057  60.633  1.00  0.00     0.136 A 
HETATM    7  F   UNL     1       7.394  31.576  59.443  1.00  0.00    -0.205 F 
HETATM    8  C   UNL     1       5.876  32.883  60.670  1.00  0.00     0.075 A 
ENDROOT
BRANCH   1   9
HETATM    9  N   UNL     1       4.332  34.312  61.853  1.00  0.00    -0.376 N 
HETATM   10  C   UNL     1       2.952  33.812  61.944  1.00  0.00     0.150 C 
HETATM   11  C   UNL     1       2.152  34.179  60.677  1.00  0.00     0.254 C 
HETATM   12  N   UNL     1       2.250  35.680  60.398  1.00  0.00    -0.072 N 
HETATM   13  C   UNL     1       1.451  36.076  59.192  1.00  0.00     0.269 C 
HETATM   14  H   UNL     1       1.847  36.165  61.211  1.00  0.00     0.279 HD
HETATM   15  C   UNL     1       3.706  36.130  60.288  1.00  0.00     0.254 C 
HETATM   16  C   UNL     1       4.501  35.745  61.555  1.00  0.00     0.150 C 
ENDBRANCH   1   9
BRANCH   2  17
HETATM   17  N   UNL     1       5.700  33.543  64.336  1.00  0.00    -0.113 N 
HETATM   18  O   UNL     1       4.796  32.899  64.882  1.00  0.00    -0.532 OA
HETATM   19  O   UNL     1       6.237  34.563  64.787  1.00  0.00    -0.532 OA
ENDBRANCH   2  17
TORSDOF 2
ENDMDL
