MODEL 1
REMARK VINA RESULT:      -9.7      0.000      0.000
REMARK  5 active torsions:
REMARK  status: ('A' for Active; 'I' for Inactive)
REMARK    1  A    between atoms: C_4  and  N_5 
REMARK       I    between atoms: N_5  and  C_6 
REMARK    2  A    between atoms: C_6  and  C_7 
REMARK    3  A    between atoms: N_9  and  C_10 
REMARK    4  A    between atoms: C_10  and  C_11 
REMARK    5  A    between atoms: C_14  and  O_15 
ROOT
HETATM    1  C   UNL     1       7.447  28.933  56.362  1.00  0.00     0.105 C 
HETATM    2  C   UNL     1       6.687  27.883  55.572  1.00  0.00     0.140 C 
HETATM    3  N   UNL     1       6.857  26.685  56.358  1.00  0.00    -0.347 N 
HETATM    4  C   UNL     1       7.980  26.742  57.165  1.00  0.00     0.221 C 
HETATM    5  O   UNL     1       8.460  25.826  57.812  1.00  0.00    -0.273 OA
HETATM    6  C   UNL     1       8.523  28.150  57.115  1.00  0.00     0.118 C 
ENDROOT
BRANCH   1   7
HETATM    7  C   UNL     1       6.524  29.717  57.292  1.00  0.00     0.228 C 
HETATM    8  N   UNL     1       7.143  30.727  57.990  1.00  0.00    -0.325 N 
HETATM    9  H   UNL     1       8.138  30.897  57.841  1.00  0.00     0.169 HD
HETATM   10  O   UNL     1       5.337  29.412  57.371  1.00  0.00    -0.273 OA
BRANCH   8  11
HETATM   11  C   UNL     1       6.604  31.611  58.956  1.00  0.00     0.065 A 
HETATM   12  C   UNL     1       5.481  32.416  58.733  1.00  0.00     0.038 A 
HETATM   13  C   UNL     1       4.997  33.252  59.744  1.00  0.00    -0.059 A 
HETATM   14  C   UNL     1       3.807  34.134  59.502  1.00  0.00     0.048 C 
HETATM   15  C   UNL     1       5.669  33.298  60.970  1.00  0.00     0.020 A 
HETATM   16  C   UNL     1       6.799  32.495  61.199  1.00  0.00    -0.005 A 
HETATM   17  C   UNL     1       7.274  31.633  60.190  1.00  0.00     0.093 A 
HETATM   18  C   UNL     1       7.486  32.524  62.420  1.00  0.00     0.015 A 
HETATM   19  N   UNL     1       8.355  30.836  60.379  1.00  0.00    -0.258 NA
HETATM   20  C   UNL     1       8.995  30.900  61.567  1.00  0.00     0.117 A 
HETATM   21  C   UNL     1       8.603  31.719  62.608  1.00  0.00     0.020 A 
ENDBRANCH   8  11
ENDBRANCH   1   7
BRANCH   3  22
HETATM   22  C   UNL     1       6.116  25.468  56.093  1.00  0.00     0.164 C 
BRANCH  22  23
HETATM   23  C   UNL     1       6.912  24.453  55.311  1.00  0.00    -0.040 A 
HETATM   24  C   UNL     1       7.300  23.248  55.908  1.00  0.00     0.011 A 
HETATM   25  C   UNL     1       8.011  22.295  55.177  1.00  0.00     0.037 A 
HETATM   26  C   UNL     1       8.343  22.525  53.841  1.00  0.00     0.068 A 
HETATM   27  C   UNL     1       7.990  23.738  53.249  1.00  0.00     0.037 A 
HETATM   28  C   UNL     1       7.278  24.696  53.980  1.00  0.00     0.011 A 
BRANCH  26  29
HETATM   29  O   UNL     1       9.018  21.505  53.230  1.00  0.00    -0.356 OA
HETATM   30  C   UNL     1       8.249  20.364  52.870  1.00  0.00     0.210 C 
ENDBRANCH  26  29
ENDBRANCH  22  23
ENDBRANCH   3  22
TORSDOF 5
ENDMDL
MODEL 2
REMARK VINA RESULT:      -9.4      2.690      9.537
REMARK  5 active torsions:
REMARK  status: ('A' for Active; 'I' for Inactive)
REMARK    1  A    between atoms: C_4  and  N_5 
REMARK       I    between atoms: N_5  and  C_6 
REMARK    2  A    between atoms: C_6  and  C_7 
REMARK    3  A    between atoms: N_9  and  C_10 
REMARK    4  A    between atoms: C_10  and  C_11 
REMARK    5  A    between atoms: C_14  and  O_15 
ROOT
HETATM    1  C   UNL     1       9.068  28.907  57.613  1.00  0.00     0.105 C 
HETATM    2  C   UNL     1       7.929  29.461  58.451  1.00  0.00     0.140 C 
HETATM    3  N   UNL     1       8.205  30.877  58.494  1.00  0.00    -0.347 N 
HETATM    4  C   UNL     1       9.543  31.158  58.274  1.00  0.00     0.221 C 
HETATM    5  O   UNL     1      10.091  32.239  58.407  1.00  0.00    -0.273 OA
HETATM    6  C   UNL     1      10.223  29.885  57.830  1.00  0.00     0.118 C 
ENDROOT
BRANCH   1   7
HETATM    7  C   UNL     1       8.674  28.770  56.145  1.00  0.00     0.228 C 
HETATM    8  N   UNL     1       7.738  27.795  55.894  1.00  0.00    -0.325 N 
HETATM    9  H   UNL     1       7.365  27.251  56.674  1.00  0.00     0.169 HD
HETATM   10  O   UNL     1       9.196  29.498  55.304  1.00  0.00    -0.273 OA
BRANCH   8  11
HETATM   11  C   UNL     1       7.187  27.376  54.659  1.00  0.00     0.065 A 
HETATM   12  C   UNL     1       6.596  28.247  53.737  1.00  0.00     0.038 A 
HETATM   13  C   UNL     1       6.088  27.760  52.528  1.00  0.00    -0.059 A 
HETATM   14  C   UNL     1       5.433  28.686  51.545  1.00  0.00     0.048 C 
HETATM   15  C   UNL     1       6.149  26.387  52.268  1.00  0.00     0.020 A 
HETATM   16  C   UNL     1       6.738  25.507  53.191  1.00  0.00    -0.005 A 
HETATM   17  C   UNL     1       7.273  25.999  54.399  1.00  0.00     0.093 A 
HETATM   18  C   UNL     1       6.811  24.129  52.949  1.00  0.00     0.015 A 
HETATM   19  N   UNL     1       7.857  25.181  55.309  1.00  0.00    -0.258 NA
HETATM   20  C   UNL     1       7.900  23.857  55.042  1.00  0.00     0.117 A 
HETATM   21  C   UNL     1       7.397  23.289  53.889  1.00  0.00     0.020 A 
ENDBRANCH   8  11
ENDBRANCH   1   7
BRANCH   3  22
HETATM   22  C   UNL     1       7.254  31.840  59.012  1.00  0.00     0.164 C 
BRANCH  22  23
HETATM   23  C   UNL     1       7.421  32.097  60.488  1.00  0.00    -0.040 A 
HETATM   24  C   UNL     1       6.684  33.107  61.116  1.00  0.00     0.011 A 
HETATM   25  C   UNL     1       6.816  33.328  62.489  1.00  0.00     0.037 A 
HETATM   26  C   UNL     1       7.679  32.544  63.256  1.00  0.00     0.068 A 
HETATM   27  C   UNL     1       8.442  31.557  62.630  1.00  0.00     0.037 A 
HETATM   28  C   UNL     1       8.313  31.335  61.254  1.00  0.00     0.011 A 
BRANCH  26  29
HETATM   29  O   UNL     1       7.700  32.843  64.590  1.00  0.00    -0.356 OA
HETATM   30  C   UNL     1       6.667  33.700  65.062  1.00  0.00     0.210 C 
ENDBRANCH  26  29
ENDBRANCH  22  23
ENDBRANCH   3  22
TORSDOF 5
ENDMDL
MODEL 3
REMARK VINA RESULT:      -9.3      5.809      9.443
REMARK  5 active torsions:
REMARK  status: ('A' for Active; 'I' for Inactive)
REMARK    1  A    between atoms: C_4  and  N_5 
REMARK       I    between atoms: N_5  and  C_6 
REMARK    2  A    between atoms: C_6  and  C_7 
REMARK    3  A    between atoms: N_9  and  C_10 
REMARK    4  A    between atoms: C_10  and  C_11 
REMARK    5  A    between atoms: C_14  and  O_15 
ROOT
HETATM    1  C   UNL     1       5.102  27.203  52.374  1.00  0.00     0.105 C 
HETATM    2  C   UNL     1       4.684  26.926  50.941  1.00  0.00     0.140 C 
HETATM    3  N   UNL     1       5.328  27.981  50.196  1.00  0.00    -0.347 N 
HETATM    4  C   UNL     1       5.610  29.084  50.983  1.00  0.00     0.221 C 
HETATM    5  O   UNL     1       6.003  30.172  50.598  1.00  0.00    -0.273 OA
HETATM    6  C   UNL     1       5.350  28.711  52.423  1.00  0.00     0.118 C 
ENDROOT
BRANCH   1   7
HETATM    7  C   UNL     1       6.329  26.387  52.771  1.00  0.00     0.228 C 
HETATM    8  N   UNL     1       6.044  25.158  53.318  1.00  0.00    -0.325 N 
HETATM    9  H   UNL     1       5.070  24.869  53.409  1.00  0.00     0.169 HD
HETATM   10  O   UNL     1       7.453  26.853  52.598  1.00  0.00    -0.273 OA
BRANCH   8  11
HETATM   11  C   UNL     1       6.928  24.176  53.828  1.00  0.00     0.065 A 
HETATM   12  C   UNL     1       7.262  23.002  53.145  1.00  0.00     0.038 A 
HETATM   13  C   UNL     1       8.157  22.086  53.708  1.00  0.00    -0.059 A 
HETATM   14  C   UNL     1       8.503  20.815  52.989  1.00  0.00     0.048 C 
HETATM   15  C   UNL     1       8.688  22.344  54.977  1.00  0.00     0.020 A 
HETATM   16  C   UNL     1       8.352  23.519  55.669  1.00  0.00    -0.005 A 
HETATM   17  C   UNL     1       7.470  24.455  55.093  1.00  0.00     0.093 A 
HETATM   18  C   UNL     1       8.874  23.797  56.940  1.00  0.00     0.015 A 
HETATM   19  N   UNL     1       7.132  25.605  55.728  1.00  0.00    -0.258 NA
HETATM   20  C   UNL     1       7.649  25.832  56.956  1.00  0.00     0.117 A 
HETATM   21  C   UNL     1       8.515  24.968  57.596  1.00  0.00     0.020 A 
ENDBRANCH   8  11
ENDBRANCH   1   7
BRANCH   3  22
HETATM   22  C   UNL     1       5.382  27.989  48.747  1.00  0.00     0.164 C 
BRANCH  22  23
HETATM   23  C   UNL     1       4.048  27.703  48.107  1.00  0.00    -0.040 A 
HETATM   24  C   UNL     1       3.082  28.710  48.005  1.00  0.00     0.011 A 
HETATM   25  C   UNL     1       1.856  28.454  47.386  1.00  0.00     0.037 A 
HETATM   26  C   UNL     1       1.577  27.194  46.857  1.00  0.00     0.068 A 
HETATM   27  C   UNL     1       2.521  26.174  46.985  1.00  0.00     0.037 A 
HETATM   28  C   UNL     1       3.750  26.428  47.606  1.00  0.00     0.011 A 
BRANCH  26  29
HETATM   29  O   UNL     1       0.354  27.078  46.256  1.00  0.00    -0.356 OA
HETATM   30  C   UNL     1      -0.410  28.273  46.141  1.00  0.00     0.210 C 
ENDBRANCH  26  29
ENDBRANCH  22  23
ENDBRANCH   3  22
TORSDOF 5
ENDMDL
MODEL 4
REMARK VINA RESULT:      -8.9      2.786      4.580
REMARK  5 active torsions:
REMARK  status: ('A' for Active; 'I' for Inactive)
REMARK    1  A    between atoms: C_4  and  N_5 
REMARK       I    between atoms: N_5  and  C_6 
REMARK    2  A    between atoms: C_6  and  C_7 
REMARK    3  A    between atoms: N_9  and  C_10 
REMARK    4  A    between atoms: C_10  and  C_11 
REMARK    5  A    between atoms: C_14  and  O_15 
ROOT
HETATM    1  C   UNL     1       3.730  31.637  57.683  1.00  0.00     0.105 C 
HETATM    2  C   UNL     1       3.682  30.122  57.596  1.00  0.00     0.140 C 
HETATM    3  N   UNL     1       3.815  29.865  56.182  1.00  0.00    -0.347 N 
HETATM    4  C   UNL     1       3.422  30.946  55.412  1.00  0.00     0.221 C 
HETATM    5  O   UNL     1       3.277  30.964  54.202  1.00  0.00    -0.273 OA
HETATM    6  C   UNL     1       3.201  32.122  56.333  1.00  0.00     0.118 C 
ENDROOT
BRANCH   1   7
HETATM    7  C   UNL     1       5.140  32.140  57.983  1.00  0.00     0.228 C 
HETATM    8  N   UNL     1       5.907  31.275  58.729  1.00  0.00    -0.325 N 
HETATM    9  H   UNL     1       5.511  30.379  59.013  1.00  0.00     0.169 HD
HETATM   10  O   UNL     1       5.494  33.241  57.571  1.00  0.00    -0.273 OA
BRANCH   8  11
HETATM   11  C   UNL     1       7.226  31.439  59.216  1.00  0.00     0.065 A 
HETATM   12  C   UNL     1       8.373  31.219  58.445  1.00  0.00     0.038 A 
HETATM   13  C   UNL     1       9.644  31.418  58.994  1.00  0.00    -0.059 A 
HETATM   14  C   UNL     1      10.877  31.163  58.178  1.00  0.00     0.048 C 
HETATM   15  C   UNL     1       9.754  31.809  60.333  1.00  0.00     0.020 A 
HETATM   16  C   UNL     1       8.607  32.028  61.113  1.00  0.00    -0.005 A 
HETATM   17  C   UNL     1       7.324  31.851  60.555  1.00  0.00     0.093 A 
HETATM   18  C   UNL     1       8.695  32.420  62.456  1.00  0.00     0.015 A 
HETATM   19  N   UNL     1       6.195  32.063  61.275  1.00  0.00    -0.258 NA
HETATM   20  C   UNL     1       6.322  32.432  62.569  1.00  0.00     0.117 A 
HETATM   21  C   UNL     1       7.537  32.622  63.197  1.00  0.00     0.020 A 
ENDBRANCH   8  11
ENDBRANCH   1   7
BRANCH   3  22
HETATM   22  C   UNL     1       4.036  28.535  55.650  1.00  0.00     0.164 C 
BRANCH  22  23
HETATM   23  C   UNL     1       5.172  27.811  56.328  1.00  0.00    -0.040 A 
HETATM   24  C   UNL     1       5.007  26.493  56.767  1.00  0.00     0.011 A 
HETATM   25  C   UNL     1       6.067  25.811  57.369  1.00  0.00     0.037 A 
HETATM   26  C   UNL     1       7.306  26.431  57.538  1.00  0.00     0.068 A 
HETATM   27  C   UNL     1       7.468  27.756  57.133  1.00  0.00     0.037 A 
HETATM   28  C   UNL     1       6.407  28.442  56.531  1.00  0.00     0.011 A 
BRANCH  26  29
HETATM   29  O   UNL     1       8.268  25.650  58.117  1.00  0.00    -0.356 OA
HETATM   30  C   UNL     1       8.835  24.633  57.299  1.00  0.00     0.210 C 
ENDBRANCH  26  29
ENDBRANCH  22  23
ENDBRANCH   3  22
TORSDOF 5
ENDMDL
MODEL 5
REMARK VINA RESULT:      -8.9      3.981      5.771
REMARK  5 active torsions:
REMARK  status: ('A' for Active; 'I' for Inactive)
REMARK    1  A    between atoms: C_4  and  N_5 
REMARK       I    between atoms: N_5  and  C_6 
REMARK    2  A    between atoms: C_6  and  C_7 
REMARK    3  A    between atoms: N_9  and  C_10 
REMARK    4  A    between atoms: C_10  and  C_11 
REMARK    5  A    between atoms: C_14  and  O_15 
ROOT
HETATM    1  C   UNL     1       3.839  29.870  53.367  1.00  0.00     0.105 C 
HETATM    2  C   UNL     1       3.539  28.494  52.801  1.00  0.00     0.140 C 
HETATM    3  N   UNL     1       4.511  28.349  51.744  1.00  0.00    -0.347 N 
HETATM    4  C   UNL     1       4.963  29.570  51.276  1.00  0.00     0.221 C 
HETATM    5  O   UNL     1       5.659  29.761  50.293  1.00  0.00    -0.273 OA
HETATM    6  C   UNL     1       4.448  30.647  52.200  1.00  0.00     0.118 C 
ENDROOT
BRANCH   1   7
HETATM    7  C   UNL     1       4.766  29.792  54.577  1.00  0.00     0.228 C 
HETATM    8  N   UNL     1       5.823  28.924  54.430  1.00  0.00    -0.325 N 
HETATM    9  H   UNL     1       5.930  28.415  53.552  1.00  0.00     0.169 HD
HETATM   10  O   UNL     1       4.526  30.469  55.573  1.00  0.00    -0.273 OA
BRANCH   8  11
HETATM   11  C   UNL     1       6.837  28.580  55.357  1.00  0.00     0.065 A 
HETATM   12  C   UNL     1       7.941  29.393  55.638  1.00  0.00     0.038 A 
HETATM   13  C   UNL     1       8.894  28.991  56.580  1.00  0.00    -0.059 A 
HETATM   14  C   UNL     1      10.091  29.849  56.869  1.00  0.00     0.048 C 
HETATM   15  C   UNL     1       8.746  27.753  57.213  1.00  0.00     0.020 A 
HETATM   16  C   UNL     1       7.641  26.931  56.932  1.00  0.00    -0.005 A 
HETATM   17  C   UNL     1       6.667  27.344  56.001  1.00  0.00     0.093 A 
HETATM   18  C   UNL     1       7.474  25.687  57.556  1.00  0.00     0.015 A 
HETATM   19  N   UNL     1       5.584  26.582  55.713  1.00  0.00    -0.258 NA
HETATM   20  C   UNL     1       5.462  25.385  56.329  1.00  0.00     0.117 A 
HETATM   21  C   UNL     1       6.371  24.900  57.249  1.00  0.00     0.020 A 
ENDBRANCH   8  11
ENDBRANCH   1   7
BRANCH   3  22
HETATM   22  C   UNL     1       4.738  27.090  51.062  1.00  0.00     0.164 C 
BRANCH  22  23
HETATM   23  C   UNL     1       5.629  26.153  51.837  1.00  0.00    -0.040 A 
HETATM   24  C   UNL     1       6.953  26.508  52.118  1.00  0.00     0.011 A 
HETATM   25  C   UNL     1       7.771  25.655  52.860  1.00  0.00     0.037 A 
HETATM   26  C   UNL     1       7.282  24.438  53.337  1.00  0.00     0.068 A 
HETATM   27  C   UNL     1       5.973  24.061  53.033  1.00  0.00     0.037 A 
HETATM   28  C   UNL     1       5.151  24.915  52.287  1.00  0.00     0.011 A 
BRANCH  26  29
HETATM   29  O   UNL     1       8.173  23.705  54.071  1.00  0.00    -0.356 OA
HETATM   30  C   UNL     1       7.672  22.516  54.671  1.00  0.00     0.210 C 
ENDBRANCH  26  29
ENDBRANCH  22  23
ENDBRANCH   3  22
TORSDOF 5
ENDMDL
MODEL 6
REMARK VINA RESULT:      -8.8      4.659      7.814
REMARK  5 active torsions:
REMARK  status: ('A' for Active; 'I' for Inactive)
REMARK    1  A    between atoms: C_4  and  N_5 
REMARK       I    between atoms: N_5  and  C_6 
REMARK    2  A    between atoms: C_6  and  C_7 
REMARK    3  A    between atoms: N_9  and  C_10 
REMARK    4  A    between atoms: C_10  and  C_11 
REMARK    5  A    between atoms: C_14  and  O_15 
ROOT
HETATM    1  C   UNL     1       5.498  28.650  54.590  1.00  0.00     0.105 C 
HETATM    2  C   UNL     1       6.885  28.154  54.955  1.00  0.00     0.140 C 
HETATM    3  N   UNL     1       6.624  26.920  55.657  1.00  0.00    -0.347 N 
HETATM    4  C   UNL     1       5.351  26.882  56.197  1.00  0.00     0.221 C 
HETATM    5  O   UNL     1       4.910  26.045  56.967  1.00  0.00    -0.273 OA
HETATM    6  C   UNL     1       4.580  28.066  55.665  1.00  0.00     0.118 C 
ENDROOT
BRANCH   1   7
HETATM    7  C   UNL     1       5.101  28.228  53.178  1.00  0.00     0.228 C 
HETATM    8  N   UNL     1       5.583  29.044  52.182  1.00  0.00    -0.325 N 
HETATM    9  H   UNL     1       6.166  29.843  52.434  1.00  0.00     0.169 HD
HETATM   10  O   UNL     1       4.398  27.234  53.015  1.00  0.00    -0.273 OA
BRANCH   8  11
HETATM   11  C   UNL     1       5.376  28.972  50.783  1.00  0.00     0.065 A 
HETATM   12  C   UNL     1       5.142  27.778  50.093  1.00  0.00     0.038 A 
HETATM   13  C   UNL     1       4.929  27.789  48.711  1.00  0.00    -0.059 A 
HETATM   14  C   UNL     1       4.699  26.508  47.962  1.00  0.00     0.048 C 
HETATM   15  C   UNL     1       4.985  29.005  48.023  1.00  0.00     0.020 A 
HETATM   16  C   UNL     1       5.223  30.208  48.710  1.00  0.00    -0.005 A 
HETATM   17  C   UNL     1       5.414  30.202  50.107  1.00  0.00     0.093 A 
HETATM   18  C   UNL     1       5.282  31.437  48.040  1.00  0.00     0.015 A 
HETATM   19  N   UNL     1       5.636  31.343  50.803  1.00  0.00    -0.258 NA
HETATM   20  C   UNL     1       5.694  32.508  50.120  1.00  0.00     0.117 A 
HETATM   21  C   UNL     1       5.525  32.605  48.753  1.00  0.00     0.020 A 
ENDBRANCH   8  11
ENDBRANCH   1   7
BRANCH   3  22
HETATM   22  C   UNL     1       7.676  25.986  56.007  1.00  0.00     0.164 C 
BRANCH  22  23
HETATM   23  C   UNL     1       7.698  24.766  55.121  1.00  0.00    -0.040 A 
HETATM   24  C   UNL     1       7.760  23.486  55.683  1.00  0.00     0.011 A 
HETATM   25  C   UNL     1       7.752  22.354  54.866  1.00  0.00     0.037 A 
HETATM   26  C   UNL     1       7.677  22.480  53.478  1.00  0.00     0.068 A 
HETATM   27  C   UNL     1       7.649  23.753  52.908  1.00  0.00     0.037 A 
HETATM   28  C   UNL     1       7.659  24.890  53.725  1.00  0.00     0.011 A 
BRANCH  26  29
HETATM   29  O   UNL     1       7.651  21.297  52.791  1.00  0.00    -0.356 OA
HETATM   30  C   UNL     1       8.675  20.361  53.106  1.00  0.00     0.210 C 
ENDBRANCH  26  29
ENDBRANCH  22  23
ENDBRANCH   3  22
TORSDOF 5
ENDMDL
MODEL 7
REMARK VINA RESULT:      -8.7      6.250      9.123
REMARK  5 active torsions:
REMARK  status: ('A' for Active; 'I' for Inactive)
REMARK    1  A    between atoms: C_4  and  N_5 
REMARK       I    between atoms: N_5  and  C_6 
REMARK    2  A    between atoms: C_6  and  C_7 
REMARK    3  A    between atoms: N_9  and  C_10 
REMARK    4  A    between atoms: C_10  and  C_11 
REMARK    5  A    between atoms: C_14  and  O_15 
ROOT
HETATM    1  C   UNL     1       5.488  28.248  52.886  1.00  0.00     0.105 C 
HETATM    2  C   UNL     1       6.787  27.479  52.730  1.00  0.00     0.140 C 
HETATM    3  N   UNL     1       6.347  26.118  52.538  1.00  0.00    -0.347 N 
HETATM    4  C   UNL     1       5.084  25.895  53.057  1.00  0.00     0.221 C 
HETATM    5  O   UNL     1       4.526  24.818  53.181  1.00  0.00    -0.273 OA
HETATM    6  C   UNL     1       4.497  27.229  53.451  1.00  0.00     0.118 C 
ENDROOT
BRANCH   1   7
HETATM    7  C   UNL     1       5.028  28.853  51.563  1.00  0.00     0.228 C 
HETATM    8  N   UNL     1       3.786  28.435  51.146  1.00  0.00    -0.325 N 
HETATM    9  H   UNL     1       3.260  27.782  51.729  1.00  0.00     0.169 HD
HETATM   10  O   UNL     1       5.760  29.637  50.964  1.00  0.00    -0.273 OA
BRANCH   8  11
HETATM   11  C   UNL     1       3.081  28.758  49.961  1.00  0.00     0.065 A 
HETATM   12  C   UNL     1       2.491  30.004  49.724  1.00  0.00     0.038 A 
HETATM   13  C   UNL     1       1.825  30.254  48.520  1.00  0.00    -0.059 A 
HETATM   14  C   UNL     1       1.172  31.582  48.269  1.00  0.00     0.048 C 
HETATM   15  C   UNL     1       1.728  29.231  47.570  1.00  0.00     0.020 A 
HETATM   16  C   UNL     1       2.315  27.977  47.805  1.00  0.00    -0.005 A 
HETATM   17  C   UNL     1       3.008  27.730  49.007  1.00  0.00     0.093 A 
HETATM   18  C   UNL     1       2.231  26.939  46.866  1.00  0.00     0.015 A 
HETATM   19  N   UNL     1       3.595  26.536  49.263  1.00  0.00    -0.258 NA
HETATM   20  C   UNL     1       3.484  25.558  48.336  1.00  0.00     0.117 A 
HETATM   21  C   UNL     1       2.820  25.710  47.135  1.00  0.00     0.020 A 
ENDBRANCH   8  11
ENDBRANCH   1   7
BRANCH   3  22
HETATM   22  C   UNL     1       7.249  25.058  52.130  1.00  0.00     0.164 C 
BRANCH  22  23
HETATM   23  C   UNL     1       7.615  24.130  53.260  1.00  0.00    -0.040 A 
HETATM   24  C   UNL     1       7.658  22.747  53.053  1.00  0.00     0.011 A 
HETATM   25  C   UNL     1       8.025  21.887  54.090  1.00  0.00     0.037 A 
HETATM   26  C   UNL     1       8.357  22.392  55.348  1.00  0.00     0.068 A 
HETATM   27  C   UNL     1       8.284  23.768  55.573  1.00  0.00     0.037 A 
HETATM   28  C   UNL     1       7.915  24.631  54.535  1.00  0.00     0.011 A 
BRANCH  26  29
HETATM   29  O   UNL     1       8.722  21.451  56.270  1.00  0.00    -0.356 OA
HETATM   30  C   UNL     1       8.722  20.099  55.828  1.00  0.00     0.210 C 
ENDBRANCH  26  29
ENDBRANCH  22  23
ENDBRANCH   3  22
TORSDOF 5
ENDMDL
MODEL 8
REMARK VINA RESULT:      -8.7      3.917      5.745
REMARK  5 active torsions:
REMARK  status: ('A' for Active; 'I' for Inactive)
REMARK    1  A    between atoms: C_4  and  N_5 
REMARK       I    between atoms: N_5  and  C_6 
REMARK    2  A    between atoms: C_6  and  C_7 
REMARK    3  A    between atoms: N_9  and  C_10 
REMARK    4  A    between atoms: C_10  and  C_11 
REMARK    5  A    between atoms: C_14  and  O_15 
ROOT
HETATM    1  C   UNL     1       3.513  32.497  58.707  1.00  0.00     0.105 C 
HETATM    2  C   UNL     1       3.571  30.997  58.479  1.00  0.00     0.140 C 
HETATM    3  N   UNL     1       4.155  30.882  57.165  1.00  0.00    -0.347 N 
HETATM    4  C   UNL     1       3.971  32.025  56.406  1.00  0.00     0.221 C 
HETATM    5  O   UNL     1       4.213  32.158  55.218  1.00  0.00    -0.273 OA
HETATM    6  C   UNL     1       3.412  33.101  57.306  1.00  0.00     0.118 C 
ENDROOT
BRANCH   1   7
HETATM    7  C   UNL     1       4.729  32.997  59.483  1.00  0.00     0.228 C 
HETATM    8  N   UNL     1       5.290  32.067  60.325  1.00  0.00    -0.325 N 
HETATM    9  H   UNL     1       4.887  31.130  60.370  1.00  0.00     0.169 HD
HETATM   10  O   UNL     1       5.117  34.152  59.327  1.00  0.00    -0.273 OA
BRANCH   8  11
HETATM   11  C   UNL     1       6.386  32.204  61.211  1.00  0.00     0.065 A 
HETATM   12  C   UNL     1       7.707  31.896  60.867  1.00  0.00     0.038 A 
HETATM   13  C   UNL     1       8.739  32.075  61.794  1.00  0.00    -0.059 A 
HETATM   14  C   UNL     1      10.155  31.726  61.437  1.00  0.00     0.048 C 
HETATM   15  C   UNL     1       8.430  32.534  63.078  1.00  0.00     0.020 A 
HETATM   16  C   UNL     1       7.105  32.842  63.430  1.00  0.00    -0.005 A 
HETATM   17  C   UNL     1       6.066  32.686  62.491  1.00  0.00     0.093 A 
HETATM   18  C   UNL     1       6.774  33.305  64.711  1.00  0.00     0.015 A 
HETATM   19  N   UNL     1       4.778  32.982  62.792  1.00  0.00    -0.258 NA
HETATM   20  C   UNL     1       4.498  33.418  64.041  1.00  0.00     0.117 A 
HETATM   21  C   UNL     1       5.451  33.594  65.024  1.00  0.00     0.020 A 
ENDBRANCH   8  11
ENDBRANCH   1   7
BRANCH   3  22
HETATM   22  C   UNL     1       4.600  29.615  56.618  1.00  0.00     0.164 C 
BRANCH  22  23
HETATM   23  C   UNL     1       6.089  29.412  56.740  1.00  0.00    -0.040 A 
HETATM   24  C   UNL     1       6.823  28.902  55.663  1.00  0.00     0.011 A 
HETATM   25  C   UNL     1       8.206  28.741  55.764  1.00  0.00     0.037 A 
HETATM   26  C   UNL     1       8.879  29.088  56.937  1.00  0.00     0.068 A 
HETATM   27  C   UNL     1       8.150  29.566  58.027  1.00  0.00     0.037 A 
HETATM   28  C   UNL     1       6.763  29.727  57.929  1.00  0.00     0.011 A 
BRANCH  26  29
HETATM   29  O   UNL     1      10.234  28.906  56.901  1.00  0.00    -0.356 OA
HETATM   30  C   UNL     1      11.033  30.032  57.244  1.00  0.00     0.210 C 
ENDBRANCH  26  29
ENDBRANCH  22  23
ENDBRANCH   3  22
TORSDOF 5
ENDMDL
MODEL 9
REMARK VINA RESULT:      -8.5      4.629      9.624
REMARK  5 active torsions:
REMARK  status: ('A' for Active; 'I' for Inactive)
REMARK    1  A    between atoms: C_4  and  N_5 
REMARK       I    between atoms: N_5  and  C_6 
REMARK    2  A    between atoms: C_6  and  C_7 
REMARK    3  A    between atoms: N_9  and  C_10 
REMARK    4  A    between atoms: C_10  and  C_11 
REMARK    5  A    between atoms: C_14  and  O_15 
ROOT
HETATM    1  C   UNL     1       5.892  24.336  52.976  1.00  0.00     0.105 C 
HETATM    2  C   UNL     1       5.526  24.829  54.364  1.00  0.00     0.140 C 
HETATM    3  N   UNL     1       6.787  24.813  55.067  1.00  0.00    -0.347 N 
HETATM    4  C   UNL     1       7.693  23.933  54.501  1.00  0.00     0.221 C 
HETATM    5  O   UNL     1       8.768  23.595  54.966  1.00  0.00    -0.273 OA
HETATM    6  C   UNL     1       7.123  23.453  53.188  1.00  0.00     0.118 C 
ENDROOT
BRANCH   1   7
HETATM    7  C   UNL     1       6.151  25.494  52.016  1.00  0.00     0.228 C 
HETATM    8  N   UNL     1       5.018  26.036  51.457  1.00  0.00    -0.325 N 
HETATM    9  H   UNL     1       4.106  25.657  51.717  1.00  0.00     0.169 HD
HETATM   10  O   UNL     1       7.304  25.857  51.797  1.00  0.00    -0.273 OA
BRANCH   8  11
HETATM   11  C   UNL     1       4.896  27.078  50.507  1.00  0.00     0.065 A 
HETATM   12  C   UNL     1       5.403  28.367  50.698  1.00  0.00     0.038 A 
HETATM   13  C   UNL     1       5.258  29.340  49.704  1.00  0.00    -0.059 A 
HETATM   14  C   UNL     1       5.781  30.731  49.913  1.00  0.00     0.048 C 
HETATM   15  C   UNL     1       4.571  29.016  48.529  1.00  0.00     0.020 A 
HETATM   16  C   UNL     1       4.056  27.724  48.333  1.00  0.00    -0.005 A 
HETATM   17  C   UNL     1       4.222  26.735  49.323  1.00  0.00     0.093 A 
HETATM   18  C   UNL     1       3.366  27.378  47.163  1.00  0.00     0.015 A 
HETATM   19  N   UNL     1       3.748  25.475  49.163  1.00  0.00    -0.258 NA
HETATM   20  C   UNL     1       3.080  25.184  48.025  1.00  0.00     0.117 A 
HETATM   21  C   UNL     1       2.866  26.091  47.006  1.00  0.00     0.020 A 
ENDBRANCH   8  11
ENDBRANCH   1   7
BRANCH   3  22
HETATM   22  C   UNL     1       6.956  25.414  56.375  1.00  0.00     0.164 C 
BRANCH  22  23
HETATM   23  C   UNL     1       6.638  26.887  56.392  1.00  0.00    -0.040 A 
HETATM   24  C   UNL     1       7.517  27.807  55.809  1.00  0.00     0.011 A 
HETATM   25  C   UNL     1       7.209  29.169  55.798  1.00  0.00     0.037 A 
HETATM   26  C   UNL     1       6.021  29.635  56.363  1.00  0.00     0.068 A 
HETATM   27  C   UNL     1       5.156  28.728  56.977  1.00  0.00     0.037 A 
HETATM   28  C   UNL     1       5.462  27.362  56.990  1.00  0.00     0.011 A 
BRANCH  26  29
HETATM   29  O   UNL     1       5.826  30.984  56.266  1.00  0.00    -0.356 OA
HETATM   30  C   UNL     1       5.479  31.661  57.469  1.00  0.00     0.210 C 
ENDBRANCH  26  29
ENDBRANCH  22  23
ENDBRANCH   3  22
TORSDOF 5
ENDMDL
MODEL 10
REMARK VINA RESULT:      -8.5      3.200      5.596
REMARK  5 active torsions:
REMARK  status: ('A' for Active; 'I' for Inactive)
REMARK    1  A    between atoms: C_4  and  N_5 
REMARK       I    between atoms: N_5  and  C_6 
REMARK    2  A    between atoms: C_6  and  C_7 
REMARK    3  A    between atoms: N_9  and  C_10 
REMARK    4  A    between atoms: C_10  and  C_11 
REMARK    5  A    between atoms: C_14  and  O_15 
ROOT
HETATM    1  C   UNL     1       3.334  33.153  58.930  1.00  0.00     0.105 C 
HETATM    2  C   UNL     1       3.352  32.128  57.810  1.00  0.00     0.140 C 
HETATM    3  N   UNL     1       4.452  32.558  56.981  1.00  0.00    -0.347 N 
HETATM    4  C   UNL     1       4.733  33.904  57.139  1.00  0.00     0.221 C 
HETATM    5  O   UNL     1       5.495  34.573  56.461  1.00  0.00    -0.273 OA
HETATM    6  C   UNL     1       3.930  34.418  58.309  1.00  0.00     0.118 C 
ENDROOT
BRANCH   1   7
HETATM    7  C   UNL     1       4.112  32.669  60.151  1.00  0.00     0.228 C 
HETATM    8  N   UNL     1       5.299  33.329  60.370  1.00  0.00    -0.325 N 
HETATM    9  H   UNL     1       5.572  34.082  59.737  1.00  0.00     0.169 HD
HETATM   10  O   UNL     1       3.662  31.754  60.835  1.00  0.00    -0.273 OA
BRANCH   8  11
HETATM   11  C   UNL     1       6.275  33.110  61.371  1.00  0.00     0.065 A 
HETATM   12  C   UNL     1       6.074  33.391  62.727  1.00  0.00     0.038 A 
HETATM   13  C   UNL     1       7.082  33.132  63.661  1.00  0.00    -0.059 A 
HETATM   14  C   UNL     1       6.880  33.452  65.113  1.00  0.00     0.048 C 
HETATM   15  C   UNL     1       8.306  32.618  63.217  1.00  0.00     0.020 A 
HETATM   16  C   UNL     1       8.515  32.337  61.857  1.00  0.00    -0.005 A 
HETATM   17  C   UNL     1       7.491  32.575  60.917  1.00  0.00     0.093 A 
HETATM   18  C   UNL     1       9.732  31.821  61.391  1.00  0.00     0.015 A 
HETATM   19  N   UNL     1       7.654  32.306  59.598  1.00  0.00    -0.258 NA
HETATM   20  C   UNL     1       8.845  31.818  59.188  1.00  0.00     0.117 A 
HETATM   21  C   UNL     1       9.904  31.561  60.037  1.00  0.00     0.020 A 
ENDBRANCH   8  11
ENDBRANCH   1   7
BRANCH   3  22
HETATM   22  C   UNL     1       4.977  31.746  55.902  1.00  0.00     0.164 C 
BRANCH  22  23
HETATM   23  C   UNL     1       5.311  30.340  56.332  1.00  0.00    -0.040 A 
HETATM   24  C   UNL     1       4.502  29.269  55.936  1.00  0.00     0.011 A 
HETATM   25  C   UNL     1       4.826  27.963  56.309  1.00  0.00     0.037 A 
HETATM   26  C   UNL     1       5.962  27.704  57.077  1.00  0.00     0.068 A 
HETATM   27  C   UNL     1       6.755  28.770  57.505  1.00  0.00     0.037 A 
HETATM   28  C   UNL     1       6.431  30.080  57.133  1.00  0.00     0.011 A 
BRANCH  26  29
HETATM   29  O   UNL     1       6.182  26.384  57.355  1.00  0.00    -0.356 OA
HETATM   30  C   UNL     1       5.241  25.459  56.822  1.00  0.00     0.210 C 
ENDBRANCH  26  29
ENDBRANCH  22  23
ENDBRANCH   3  22
TORSDOF 5
ENDMDL
