MODEL 1
REMARK VINA RESULT:      -9.7      0.000      0.000
REMARK  6 active torsions:
REMARK  status: ('A' for Active; 'I' for Inactive)
REMARK    1  A    between atoms: C_5  and  N_6 
REMARK    2  A    between atoms: N_6  and  C_7 
REMARK    3  A    between atoms: C_7  and  C_8 
REMARK    4  A    between atoms: N_10  and  C_12 
REMARK    5  A    between atoms: C_12  and  C_13 
REMARK    6  A    between atoms: C_14  and  C_15 
ROOT
HETATM    1  C   UNL     1       9.221  29.165  57.576  1.00  0.00     0.031 C 
HETATM    2  C   UNL     1       8.486  27.903  57.111  1.00  0.00     0.241 C 
HETATM    3  N   UNL     1       8.450  27.986  55.596  1.00  0.00    -0.067 N 
HETATM    4  H   UNL     1       8.955  27.168  55.226  1.00  0.00     0.280 HD
HETATM    5  C   UNL     1       9.247  29.203  55.179  1.00  0.00     0.235 C 
HETATM    6  C   UNL     1      10.124  29.478  56.385  1.00  0.00     0.035 C 
ENDROOT
BRANCH   3   7
HETATM    7  C   UNL     1       7.061  27.882  55.004  1.00  0.00     0.277 C 
BRANCH   7   8
HETATM    8  C   UNL     1       6.122  27.050  55.793  1.00  0.00     0.016 A 
HETATM    9  C   UNL     1       6.094  25.621  55.890  1.00  0.00     0.102 A 
HETATM   10  N   UNL     1       5.140  25.227  56.739  1.00  0.00    -0.174 NA
HETATM   11  N   UNL     1       4.486  26.338  57.086  1.00  0.00    -0.288 N 
HETATM   12  H   UNL     1       3.669  26.249  57.687  1.00  0.00     0.188 HD
HETATM   13  C   UNL     1       5.052  27.468  56.566  1.00  0.00     0.120 A 
BRANCH   9  14
HETATM   14  C   UNL     1       6.928  24.629  55.227  1.00  0.00     0.072 A 
HETATM   15  C   UNL     1       8.093  24.134  55.818  1.00  0.00     0.132 A 
HETATM   16  F   UNL     1       8.509  24.608  57.006  1.00  0.00    -0.205 F 
HETATM   17  C   UNL     1       8.876  23.168  55.183  1.00  0.00     0.043 A 
HETATM   18  C   UNL     1       8.498  22.680  53.933  1.00  0.00     0.006 A 
HETATM   19  C   UNL     1       7.344  23.169  53.322  1.00  0.00     0.043 A 
HETATM   20  C   UNL     1       6.571  24.133  53.968  1.00  0.00     0.132 A 
HETATM   21  F   UNL     1       5.493  24.612  53.329  1.00  0.00    -0.205 F 
ENDBRANCH   9  14
ENDBRANCH   7   8
ENDBRANCH   3   7
BRANCH   1  22
HETATM   22  C   UNL     1       8.244  30.312  57.919  1.00  0.00     0.127 C 
BRANCH  22  23
HETATM   23  N   UNL     1       7.626  30.070  59.226  1.00  0.00    -0.376 N 
HETATM   24  H   UNL     1       6.659  29.758  59.168  1.00  0.00     0.161 HD
BRANCH  23  25
HETATM   25  C   UNL     1       7.957  30.834  60.334  1.00  0.00     0.101 A 
HETATM   26  N   UNL     1       6.967  31.200  61.171  1.00  0.00    -0.347 N 
HETATM   27  C   UNL     1       7.152  31.910  62.302  1.00  0.00     0.007 A 
HETATM   28  H   UNL     1       6.023  30.908  60.941  1.00  0.00     0.167 HD
HETATM   29  C   UNL     1       5.967  32.254  63.146  1.00  0.00     0.068 C 
HETATM   30  C   UNL     1       8.441  32.292  62.661  1.00  0.00     0.025 A 
HETATM   31  C   UNL     1       9.505  31.923  61.851  1.00  0.00     0.006 A 
HETATM   32  C   UNL     1       9.265  31.189  60.692  1.00  0.00     0.048 A 
ENDBRANCH  23  25
ENDBRANCH  22  23
ENDBRANCH   1  22
TORSDOF 6
ENDMDL
MODEL 2
REMARK VINA RESULT:      -9.6      4.600      8.300
REMARK  6 active torsions:
REMARK  status: ('A' for Active; 'I' for Inactive)
REMARK    1  A    between atoms: C_5  and  N_6 
REMARK    2  A    between atoms: N_6  and  C_7 
REMARK    3  A    between atoms: C_7  and  C_8 
REMARK    4  A    between atoms: N_10  and  C_12 
REMARK    5  A    between atoms: C_12  and  C_13 
REMARK    6  A    between atoms: C_14  and  C_15 
ROOT
HETATM    1  C   UNL     1       5.421  27.455  52.459  1.00  0.00     0.031 C 
HETATM    2  C   UNL     1       4.643  26.865  53.641  1.00  0.00     0.241 C 
HETATM    3  N   UNL     1       5.674  26.624  54.729  1.00  0.00    -0.067 N 
HETATM    4  H   UNL     1       5.406  27.195  55.544  1.00  0.00     0.280 HD
HETATM    5  C   UNL     1       6.999  27.171  54.243  1.00  0.00     0.235 C 
HETATM    6  C   UNL     1       6.597  28.143  53.150  1.00  0.00     0.035 C 
ENDROOT
BRANCH   3   7
HETATM    7  C   UNL     1       5.706  25.203  55.248  1.00  0.00     0.277 C 
BRANCH   7   8
HETATM    8  C   UNL     1       6.825  24.918  56.177  1.00  0.00     0.016 A 
HETATM    9  C   UNL     1       7.798  23.872  56.074  1.00  0.00     0.102 A 
HETATM   10  N   UNL     1       8.688  23.960  57.068  1.00  0.00    -0.174 NA
HETATM   11  N   UNL     1       8.246  24.940  57.860  1.00  0.00    -0.288 N 
HETATM   12  H   UNL     1       8.753  25.128  58.722  1.00  0.00     0.188 HD
HETATM   13  C   UNL     1       7.142  25.568  57.357  1.00  0.00     0.120 A 
BRANCH   9  14
HETATM   14  C   UNL     1       7.922  22.814  55.082  1.00  0.00     0.072 A 
HETATM   15  C   UNL     1       7.822  21.465  55.430  1.00  0.00     0.132 A 
HETATM   16  F   UNL     1       7.660  21.102  56.715  1.00  0.00    -0.205 F 
HETATM   17  C   UNL     1       7.923  20.456  54.468  1.00  0.00     0.043 A 
HETATM   18  C   UNL     1       8.128  20.792  53.131  1.00  0.00     0.006 A 
HETATM   19  C   UNL     1       8.241  22.133  52.766  1.00  0.00     0.043 A 
HETATM   20  C   UNL     1       8.137  23.128  53.736  1.00  0.00     0.132 A 
HETATM   21  F   UNL     1       8.296  24.404  53.352  1.00  0.00    -0.205 F 
ENDBRANCH   9  14
ENDBRANCH   7   8
ENDBRANCH   3   7
BRANCH   1  22
HETATM   22  C   UNL     1       5.856  26.370  51.450  1.00  0.00     0.127 C 
BRANCH  22  23
HETATM   23  N   UNL     1       4.723  25.989  50.603  1.00  0.00    -0.376 N 
HETATM   24  H   UNL     1       4.609  24.983  50.501  1.00  0.00     0.161 HD
BRANCH  23  25
HETATM   25  C   UNL     1       4.342  26.762  49.517  1.00  0.00     0.101 A 
HETATM   26  N   UNL     1       3.080  26.638  49.062  1.00  0.00    -0.347 N 
HETATM   27  C   UNL     1       2.567  27.352  48.040  1.00  0.00     0.007 A 
HETATM   28  H   UNL     1       2.472  25.974  49.530  1.00  0.00     0.167 HD
HETATM   29  C   UNL     1       1.148  27.118  47.630  1.00  0.00     0.068 C 
HETATM   30  C   UNL     1       3.366  28.297  47.403  1.00  0.00     0.025 A 
HETATM   31  C   UNL     1       4.668  28.487  47.843  1.00  0.00     0.006 A 
HETATM   32  C   UNL     1       5.154  27.725  48.904  1.00  0.00     0.048 A 
ENDBRANCH  23  25
ENDBRANCH  22  23
ENDBRANCH   1  22
TORSDOF 6
ENDMDL
MODEL 3
REMARK VINA RESULT:      -9.5      2.016      3.542
REMARK  6 active torsions:
REMARK  status: ('A' for Active; 'I' for Inactive)
REMARK    1  A    between atoms: C_5  and  N_6 
REMARK    2  A    between atoms: N_6  and  C_7 
REMARK    3  A    between atoms: C_7  and  C_8 
REMARK    4  A    between atoms: N_10  and  C_12 
REMARK    5  A    between atoms: C_12  and  C_13 
REMARK    6  A    between atoms: C_14  and  C_15 
ROOT
HETATM    1  C   UNL     1       6.711  28.592  55.035  1.00  0.00     0.031 C 
HETATM    2  C   UNL     1       7.247  27.157  55.001  1.00  0.00     0.241 C 
HETATM    3  N   UNL     1       6.066  26.288  54.609  1.00  0.00    -0.067 N 
HETATM    4  H   UNL     1       6.304  25.817  53.725  1.00  0.00     0.280 HD
HETATM    5  C   UNL     1       4.899  27.203  54.304  1.00  0.00     0.235 C 
HETATM    6  C   UNL     1       5.562  28.538  54.030  1.00  0.00     0.035 C 
ENDROOT
BRANCH   3   7
HETATM    7  C   UNL     1       5.776  25.163  55.580  1.00  0.00     0.277 C 
BRANCH   7   8
HETATM    8  C   UNL     1       6.924  24.789  56.440  1.00  0.00     0.016 A 
HETATM    9  C   UNL     1       7.881  23.750  56.212  1.00  0.00     0.102 A 
HETATM   10  N   UNL     1       8.806  23.743  57.178  1.00  0.00    -0.174 NA
HETATM   11  N   UNL     1       8.403  24.654  58.067  1.00  0.00    -0.288 N 
HETATM   12  H   UNL     1       8.941  24.762  58.924  1.00  0.00     0.188 HD
HETATM   13  C   UNL     1       7.289  25.332  57.661  1.00  0.00     0.120 A 
BRANCH   9  14
HETATM   14  C   UNL     1       7.960  22.781  55.129  1.00  0.00     0.072 A 
HETATM   15  C   UNL     1       8.235  23.168  53.815  1.00  0.00     0.132 A 
HETATM   16  F   UNL     1       8.381  24.468  53.504  1.00  0.00    -0.205 F 
HETATM   17  C   UNL     1       8.329  22.229  52.785  1.00  0.00     0.043 A 
HETATM   18  C   UNL     1       8.145  20.875  53.062  1.00  0.00     0.006 A 
HETATM   19  C   UNL     1       7.860  20.470  54.365  1.00  0.00     0.043 A 
HETATM   20  C   UNL     1       7.771  21.419  55.383  1.00  0.00     0.132 A 
HETATM   21  F   UNL     1       7.450  20.995  56.616  1.00  0.00    -0.205 F 
ENDBRANCH   9  14
ENDBRANCH   7   8
ENDBRANCH   3   7
BRANCH   1  22
HETATM   22  C   UNL     1       6.263  29.011  56.452  1.00  0.00     0.127 C 
BRANCH  22  23
HETATM   23  N   UNL     1       7.320  28.711  57.422  1.00  0.00    -0.376 N 
HETATM   24  H   UNL     1       7.002  28.158  58.214  1.00  0.00     0.161 HD
BRANCH  23  25
HETATM   25  C   UNL     1       8.344  29.611  57.675  1.00  0.00     0.101 A 
HETATM   26  N   UNL     1       8.170  30.508  58.664  1.00  0.00    -0.347 N 
HETATM   27  C   UNL     1       9.094  31.414  59.040  1.00  0.00     0.007 A 
HETATM   28  H   UNL     1       7.290  30.490  59.168  1.00  0.00     0.167 HD
HETATM   29  C   UNL     1       8.777  32.358  60.155  1.00  0.00     0.068 C 
HETATM   30  C   UNL     1      10.326  31.438  58.390  1.00  0.00     0.025 A 
HETATM   31  C   UNL     1      10.573  30.521  57.379  1.00  0.00     0.006 A 
HETATM   32  C   UNL     1       9.586  29.603  57.025  1.00  0.00     0.048 A 
ENDBRANCH  23  25
ENDBRANCH  22  23
ENDBRANCH   1  22
TORSDOF 6
ENDMDL
MODEL 4
REMARK VINA RESULT:      -9.5      1.735      2.061
REMARK  6 active torsions:
REMARK  status: ('A' for Active; 'I' for Inactive)
REMARK    1  A    between atoms: C_5  and  N_6 
REMARK    2  A    between atoms: N_6  and  C_7 
REMARK    3  A    between atoms: C_7  and  C_8 
REMARK    4  A    between atoms: N_10  and  C_12 
REMARK    5  A    between atoms: C_12  and  C_13 
REMARK    6  A    between atoms: C_14  and  C_15 
ROOT
HETATM    1  C   UNL     1       6.846  28.636  57.773  1.00  0.00     0.031 C 
HETATM    2  C   UNL     1       6.284  27.667  56.727  1.00  0.00     0.241 C 
HETATM    3  N   UNL     1       7.432  27.380  55.777  1.00  0.00    -0.067 N 
HETATM    4  H   UNL     1       7.623  26.369  55.814  1.00  0.00     0.280 HD
HETATM    5  C   UNL     1       8.666  28.067  56.320  1.00  0.00     0.235 C 
HETATM    6  C   UNL     1       8.333  28.284  57.782  1.00  0.00     0.035 C 
ENDROOT
BRANCH   3   7
HETATM    7  C   UNL     1       7.116  27.659  54.323  1.00  0.00     0.277 C 
BRANCH   7   8
HETATM    8  C   UNL     1       5.940  26.922  53.802  1.00  0.00     0.016 A 
HETATM    9  C   UNL     1       5.793  25.505  53.661  1.00  0.00     0.102 A 
HETATM   10  N   UNL     1       4.572  25.204  53.206  1.00  0.00    -0.174 NA
HETATM   11  N   UNL     1       3.989  26.375  52.939  1.00  0.00    -0.288 N 
HETATM   12  H   UNL     1       3.063  26.367  52.517  1.00  0.00     0.188 HD
HETATM   13  C   UNL     1       4.758  27.443  53.304  1.00  0.00     0.120 A 
BRANCH   9  14
HETATM   14  C   UNL     1       6.744  24.440  53.943  1.00  0.00     0.072 A 
HETATM   15  C   UNL     1       6.857  23.872  55.214  1.00  0.00     0.132 A 
HETATM   16  F   UNL     1       6.119  24.339  56.237  1.00  0.00    -0.205 F 
HETATM   17  C   UNL     1       7.758  22.836  55.470  1.00  0.00     0.043 A 
HETATM   18  C   UNL     1       8.567  22.352  54.444  1.00  0.00     0.006 A 
HETATM   19  C   UNL     1       8.476  22.912  53.170  1.00  0.00     0.043 A 
HETATM   20  C   UNL     1       7.571  23.945  52.929  1.00  0.00     0.132 A 
HETATM   21  F   UNL     1       7.545  24.488  51.703  1.00  0.00    -0.205 F 
ENDBRANCH   9  14
ENDBRANCH   7   8
ENDBRANCH   3   7
BRANCH   1  22
HETATM   22  C   UNL     1       6.571  30.111  57.405  1.00  0.00     0.127 C 
BRANCH  22  23
HETATM   23  N   UNL     1       6.362  30.901  58.621  1.00  0.00    -0.376 N 
HETATM   24  H   UNL     1       5.570  31.537  58.563  1.00  0.00     0.161 HD
BRANCH  23  25
HETATM   25  C   UNL     1       7.428  31.320  59.403  1.00  0.00     0.101 A 
HETATM   26  N   UNL     1       7.241  31.409  60.734  1.00  0.00    -0.347 N 
HETATM   27  C   UNL     1       8.198  31.766  61.612  1.00  0.00     0.007 A 
HETATM   28  H   UNL     1       6.323  31.177  61.098  1.00  0.00     0.167 HD
HETATM   29  C   UNL     1       7.862  31.828  63.069  1.00  0.00     0.068 C 
HETATM   30  C   UNL     1       9.477  32.055  61.145  1.00  0.00     0.025 A 
HETATM   31  C   UNL     1       9.736  31.957  59.786  1.00  0.00     0.006 A 
HETATM   32  C   UNL     1       8.715  31.583  58.915  1.00  0.00     0.048 A 
ENDBRANCH  23  25
ENDBRANCH  22  23
ENDBRANCH   1  22
TORSDOF 6
ENDMDL
MODEL 5
REMARK VINA RESULT:      -9.4      2.705      8.589
REMARK  6 active torsions:
REMARK  status: ('A' for Active; 'I' for Inactive)
REMARK    1  A    between atoms: C_5  and  N_6 
REMARK    2  A    between atoms: N_6  and  C_7 
REMARK    3  A    between atoms: C_7  and  C_8 
REMARK    4  A    between atoms: N_10  and  C_12 
REMARK    5  A    between atoms: C_12  and  C_13 
REMARK    6  A    between atoms: C_14  and  C_15 
ROOT
HETATM    1  C   UNL     1       5.029  27.728  56.210  1.00  0.00     0.031 C 
HETATM    2  C   UNL     1       5.510  28.566  57.400  1.00  0.00     0.241 C 
HETATM    3  N   UNL     1       6.845  29.149  56.976  1.00  0.00    -0.067 N 
HETATM    4  H   UNL     1       6.757  30.175  56.990  1.00  0.00     0.280 HD
HETATM    5  C   UNL     1       7.083  28.763  55.532  1.00  0.00     0.235 C 
HETATM    6  C   UNL     1       5.694  28.427  55.026  1.00  0.00     0.035 C 
ENDROOT
BRANCH   3   7
HETATM    7  C   UNL     1       7.983  28.848  57.927  1.00  0.00     0.277 C 
BRANCH   7   8
HETATM    8  C   UNL     1       9.033  29.893  57.974  1.00  0.00     0.016 A 
HETATM    9  C   UNL     1       9.164  30.953  58.927  1.00  0.00     0.102 A 
HETATM   10  N   UNL     1      10.266  31.670  58.683  1.00  0.00    -0.174 NA
HETATM   11  N   UNL     1      10.768  31.181  57.546  1.00  0.00    -0.288 N 
HETATM   12  H   UNL     1      11.585  31.637  57.145  1.00  0.00     0.188 HD
HETATM   13  C   UNL     1      10.079  30.094  57.089  1.00  0.00     0.120 A 
BRANCH   9  14
HETATM   14  C   UNL     1       8.305  31.306  60.048  1.00  0.00     0.072 A 
HETATM   15  C   UNL     1       8.664  31.022  61.368  1.00  0.00     0.132 A 
HETATM   16  F   UNL     1       9.803  30.357  61.636  1.00  0.00    -0.205 F 
HETATM   17  C   UNL     1       7.843  31.382  62.439  1.00  0.00     0.043 A 
HETATM   18  C   UNL     1       6.637  32.038  62.197  1.00  0.00     0.006 A 
HETATM   19  C   UNL     1       6.256  32.322  60.886  1.00  0.00     0.043 A 
HETATM   20  C   UNL     1       7.087  31.957  59.827  1.00  0.00     0.132 A 
HETATM   21  F   UNL     1       6.665  32.207  58.578  1.00  0.00    -0.205 F 
ENDBRANCH   9  14
ENDBRANCH   7   8
ENDBRANCH   3   7
BRANCH   1  22
HETATM   22  C   UNL     1       5.430  26.243  56.346  1.00  0.00     0.127 C 
BRANCH  22  23
HETATM   23  N   UNL     1       5.306  25.569  55.051  1.00  0.00    -0.376 N 
HETATM   24  H   UNL     1       4.344  25.366  54.787  1.00  0.00     0.161 HD
BRANCH  23  25
HETATM   25  C   UNL     1       6.265  24.671  54.609  1.00  0.00     0.101 A 
HETATM   26  N   UNL     1       6.838  23.858  55.518  1.00  0.00    -0.347 N 
HETATM   27  C   UNL     1       7.756  22.916  55.223  1.00  0.00     0.007 A 
HETATM   28  H   UNL     1       6.548  23.953  56.486  1.00  0.00     0.167 HD
HETATM   29  C   UNL     1       8.318  22.078  56.326  1.00  0.00     0.068 C 
HETATM   30  C   UNL     1       8.145  22.738  53.898  1.00  0.00     0.025 A 
HETATM   31  C   UNL     1       7.571  23.530  52.914  1.00  0.00     0.006 A 
HETATM   32  C   UNL     1       6.626  24.491  53.268  1.00  0.00     0.048 A 
ENDBRANCH  23  25
ENDBRANCH  22  23
ENDBRANCH   1  22
TORSDOF 6
ENDMDL
MODEL 6
REMARK VINA RESULT:      -9.4      1.988      3.008
REMARK  6 active torsions:
REMARK  status: ('A' for Active; 'I' for Inactive)
REMARK    1  A    between atoms: C_5  and  N_6 
REMARK    2  A    between atoms: N_6  and  C_7 
REMARK    3  A    between atoms: C_7  and  C_8 
REMARK    4  A    between atoms: N_10  and  C_12 
REMARK    5  A    between atoms: C_12  and  C_13 
REMARK    6  A    between atoms: C_14  and  C_15 
ROOT
HETATM    1  C   UNL     1       6.664  28.787  55.407  1.00  0.00     0.031 C 
HETATM    2  C   UNL     1       7.200  27.372  55.157  1.00  0.00     0.241 C 
HETATM    3  N   UNL     1       5.996  26.548  54.738  1.00  0.00    -0.067 N 
HETATM    4  H   UNL     1       6.174  26.195  53.788  1.00  0.00     0.280 HD
HETATM    5  C   UNL     1       4.809  27.482  54.630  1.00  0.00     0.235 C 
HETATM    6  C   UNL     1       5.450  28.847  54.483  1.00  0.00     0.035 C 
ENDROOT
BRANCH   3   7
HETATM    7  C   UNL     1       5.774  25.307  55.576  1.00  0.00     0.277 C 
BRANCH   7   8
HETATM    8  C   UNL     1       6.925  24.935  56.432  1.00  0.00     0.016 A 
HETATM    9  C   UNL     1       7.873  23.885  56.211  1.00  0.00     0.102 A 
HETATM   10  N   UNL     1       8.805  23.884  57.169  1.00  0.00    -0.174 NA
HETATM   11  N   UNL     1       8.417  24.810  58.049  1.00  0.00    -0.288 N 
HETATM   12  H   UNL     1       8.963  24.925  58.900  1.00  0.00     0.188 HD
HETATM   13  C   UNL     1       7.305  25.492  57.642  1.00  0.00     0.120 A 
BRANCH   9  14
HETATM   14  C   UNL     1       7.935  22.901  55.140  1.00  0.00     0.072 A 
HETATM   15  C   UNL     1       7.804  21.533  55.390  1.00  0.00     0.132 A 
HETATM   16  F   UNL     1       7.670  21.080  56.649  1.00  0.00    -0.205 F 
HETATM   17  C   UNL     1       7.844  20.597  54.353  1.00  0.00     0.043 A 
HETATM   18  C   UNL     1       8.020  21.027  53.039  1.00  0.00     0.006 A 
HETATM   19  C   UNL     1       8.163  22.387  52.770  1.00  0.00     0.043 A 
HETATM   20  C   UNL     1       8.119  23.310  53.815  1.00  0.00     0.132 A 
HETATM   21  F   UNL     1       8.305  24.606  53.522  1.00  0.00    -0.205 F 
ENDBRANCH   9  14
ENDBRANCH   7   8
ENDBRANCH   3   7
BRANCH   1  22
HETATM   22  C   UNL     1       6.312  29.019  56.893  1.00  0.00     0.127 C 
BRANCH  22  23
HETATM   23  N   UNL     1       7.525  29.335  57.653  1.00  0.00    -0.376 N 
HETATM   24  H   UNL     1       8.159  28.546  57.756  1.00  0.00     0.161 HD
BRANCH  23  25
HETATM   25  C   UNL     1       7.506  30.247  58.697  1.00  0.00     0.101 A 
HETATM   26  N   UNL     1       8.313  30.020  59.752  1.00  0.00    -0.347 N 
HETATM   27  C   UNL     1       8.420  30.839  60.816  1.00  0.00     0.007 A 
HETATM   28  H   UNL     1       8.886  29.183  59.736  1.00  0.00     0.167 HD
HETATM   29  C   UNL     1       9.354  30.472  61.925  1.00  0.00     0.068 C 
HETATM   30  C   UNL     1       7.672  32.013  60.848  1.00  0.00     0.025 A 
HETATM   31  C   UNL     1       6.842  32.313  59.779  1.00  0.00     0.006 A 
HETATM   32  C   UNL     1       6.763  31.435  58.700  1.00  0.00     0.048 A 
ENDBRANCH  23  25
ENDBRANCH  22  23
ENDBRANCH   1  22
TORSDOF 6
ENDMDL
MODEL 7
REMARK VINA RESULT:      -9.3      2.002      2.670
REMARK  6 active torsions:
REMARK  status: ('A' for Active; 'I' for Inactive)
REMARK    1  A    between atoms: C_5  and  N_6 
REMARK    2  A    between atoms: N_6  and  C_7 
REMARK    3  A    between atoms: C_7  and  C_8 
REMARK    4  A    between atoms: N_10  and  C_12 
REMARK    5  A    between atoms: C_12  and  C_13 
REMARK    6  A    between atoms: C_14  and  C_15 
ROOT
HETATM    1  C   UNL     1       6.362  28.697  57.601  1.00  0.00     0.031 C 
HETATM    2  C   UNL     1       5.872  27.971  56.343  1.00  0.00     0.241 C 
HETATM    3  N   UNL     1       7.126  27.528  55.612  1.00  0.00    -0.067 N 
HETATM    4  H   UNL     1       7.106  26.500  55.551  1.00  0.00     0.280 HD
HETATM    5  C   UNL     1       8.317  27.879  56.478  1.00  0.00     0.235 C 
HETATM    6  C   UNL     1       7.712  28.031  57.860  1.00  0.00     0.035 C 
ENDROOT
BRANCH   3   7
HETATM    7  C   UNL     1       7.204  27.998  54.176  1.00  0.00     0.277 C 
BRANCH   7   8
HETATM    8  C   UNL     1       6.168  27.420  53.288  1.00  0.00     0.016 A 
HETATM    9  C   UNL     1       5.948  26.037  52.990  1.00  0.00     0.102 A 
HETATM   10  N   UNL     1       4.886  25.892  52.190  1.00  0.00    -0.174 NA
HETATM   11  N   UNL     1       4.503  27.131  51.874  1.00  0.00    -0.288 N 
HETATM   12  H   UNL     1       3.738  27.244  51.213  1.00  0.00     0.188 HD
HETATM   13  C   UNL     1       5.223  28.090  52.528  1.00  0.00     0.120 A 
BRANCH   9  14
HETATM   14  C   UNL     1       6.688  24.863  53.432  1.00  0.00     0.072 A 
HETATM   15  C   UNL     1       7.638  24.244  52.617  1.00  0.00     0.132 A 
HETATM   16  F   UNL     1       7.858  24.688  51.367  1.00  0.00    -0.205 F 
HETATM   17  C   UNL     1       8.358  23.130  53.057  1.00  0.00     0.043 A 
HETATM   18  C   UNL     1       8.130  22.617  54.333  1.00  0.00     0.006 A 
HETATM   19  C   UNL     1       7.178  23.216  55.157  1.00  0.00     0.043 A 
HETATM   20  C   UNL     1       6.468  24.328  54.705  1.00  0.00     0.132 A 
HETATM   21  F   UNL     1       5.529  24.849  55.510  1.00  0.00    -0.205 F 
ENDBRANCH   9  14
ENDBRANCH   7   8
ENDBRANCH   3   7
BRANCH   1  22
HETATM   22  C   UNL     1       6.466  30.223  57.386  1.00  0.00     0.127 C 
BRANCH  22  23
HETATM   23  N   UNL     1       6.322  30.921  58.667  1.00  0.00    -0.376 N 
HETATM   24  H   UNL     1       5.510  31.533  58.709  1.00  0.00     0.161 HD
BRANCH  23  25
HETATM   25  C   UNL     1       7.428  31.321  59.400  1.00  0.00     0.101 A 
HETATM   26  N   UNL     1       7.274  31.517  60.724  1.00  0.00    -0.347 N 
HETATM   27  C   UNL     1       8.270  31.870  61.560  1.00  0.00     0.007 A 
HETATM   28  H   UNL     1       6.350  31.376  61.118  1.00  0.00     0.167 HD
HETATM   29  C   UNL     1       7.968  32.059  63.013  1.00  0.00     0.068 C 
HETATM   30  C   UNL     1       9.557  32.036  61.054  1.00  0.00     0.025 A 
HETATM   31  C   UNL     1       9.782  31.823  59.702  1.00  0.00     0.006 A 
HETATM   32  C   UNL     1       8.720  31.459  58.876  1.00  0.00     0.048 A 
ENDBRANCH  23  25
ENDBRANCH  22  23
ENDBRANCH   1  22
TORSDOF 6
ENDMDL
MODEL 8
REMARK VINA RESULT:      -9.3      2.745      8.843
REMARK  6 active torsions:
REMARK  status: ('A' for Active; 'I' for Inactive)
REMARK    1  A    between atoms: C_5  and  N_6 
REMARK    2  A    between atoms: N_6  and  C_7 
REMARK    3  A    between atoms: C_7  and  C_8 
REMARK    4  A    between atoms: N_10  and  C_12 
REMARK    5  A    between atoms: C_12  and  C_13 
REMARK    6  A    between atoms: C_14  and  C_15 
ROOT
HETATM    1  C   UNL     1       5.085  27.770  56.202  1.00  0.00     0.031 C 
HETATM    2  C   UNL     1       5.442  28.655  57.402  1.00  0.00     0.241 C 
HETATM    3  N   UNL     1       6.783  29.281  57.063  1.00  0.00    -0.067 N 
HETATM    4  H   UNL     1       6.654  30.303  57.043  1.00  0.00     0.280 HD
HETATM    5  C   UNL     1       7.144  28.869  55.652  1.00  0.00     0.235 C 
HETATM    6  C   UNL     1       5.811  28.466  55.052  1.00  0.00     0.035 C 
ENDROOT
BRANCH   3   7
HETATM    7  C   UNL     1       7.855  29.048  58.105  1.00  0.00     0.277 C 
BRANCH   7   8
HETATM    8  C   UNL     1       8.966  30.028  58.067  1.00  0.00     0.016 A 
HETATM    9  C   UNL     1       9.130  31.192  58.884  1.00  0.00     0.102 A 
HETATM   10  N   UNL     1      10.283  31.806  58.601  1.00  0.00    -0.174 NA
HETATM   11  N   UNL     1      10.793  31.149  57.557  1.00  0.00    -0.288 N 
HETATM   12  H   UNL     1      11.652  31.501  57.138  1.00  0.00     0.188 HD
HETATM   13  C   UNL     1      10.054  30.053  57.210  1.00  0.00     0.120 A 
BRANCH   9  14
HETATM   14  C   UNL     1       8.255  31.734  59.914  1.00  0.00     0.072 A 
HETATM   15  C   UNL     1       6.967  32.188  59.621  1.00  0.00     0.132 A 
HETATM   16  F   UNL     1       6.517  32.188  58.353  1.00  0.00    -0.205 F 
HETATM   17  C   UNL     1       6.128  32.688  60.619  1.00  0.00     0.043 A 
HETATM   18  C   UNL     1       6.574  32.740  61.938  1.00  0.00     0.006 A 
HETATM   19  C   UNL     1       7.860  32.300  62.250  1.00  0.00     0.043 A 
HETATM   20  C   UNL     1       8.686  31.803  61.243  1.00  0.00     0.132 A 
HETATM   21  F   UNL     1       9.932  31.431  61.575  1.00  0.00    -0.205 F 
ENDBRANCH   9  14
ENDBRANCH   7   8
ENDBRANCH   3   7
BRANCH   1  22
HETATM   22  C   UNL     1       5.531  26.306  56.408  1.00  0.00     0.127 C 
BRANCH  22  23
HETATM   23  N   UNL     1       5.293  25.532  55.186  1.00  0.00    -0.376 N 
HETATM   24  H   UNL     1       4.322  25.256  55.060  1.00  0.00     0.161 HD
BRANCH  23  25
HETATM   25  C   UNL     1       6.247  24.660  54.686  1.00  0.00     0.101 A 
HETATM   26  N   UNL     1       6.815  23.785  55.539  1.00  0.00    -0.347 N 
HETATM   27  C   UNL     1       7.728  22.860  55.183  1.00  0.00     0.007 A 
HETATM   28  H   UNL     1       6.525  23.817  56.511  1.00  0.00     0.167 HD
HETATM   29  C   UNL     1       8.284  21.947  56.228  1.00  0.00     0.068 C 
HETATM   30  C   UNL     1       8.118  22.768  53.850  1.00  0.00     0.025 A 
HETATM   31  C   UNL     1       7.549  23.627  52.920  1.00  0.00     0.006 A 
HETATM   32  C   UNL     1       6.610  24.567  53.336  1.00  0.00     0.048 A 
ENDBRANCH  23  25
ENDBRANCH  22  23
ENDBRANCH   1  22
TORSDOF 6
ENDMDL
MODEL 9
REMARK VINA RESULT:      -9.2      1.512      1.971
REMARK  6 active torsions:
REMARK  status: ('A' for Active; 'I' for Inactive)
REMARK    1  A    between atoms: C_5  and  N_6 
REMARK    2  A    between atoms: N_6  and  C_7 
REMARK    3  A    between atoms: C_7  and  C_8 
REMARK    4  A    between atoms: N_10  and  C_12 
REMARK    5  A    between atoms: C_12  and  C_13 
REMARK    6  A    between atoms: C_14  and  C_15 
ROOT
HETATM    1  C   UNL     1       9.153  29.073  57.102  1.00  0.00     0.031 C 
HETATM    2  C   UNL     1       8.453  27.716  57.243  1.00  0.00     0.241 C 
HETATM    3  N   UNL     1       7.658  27.532  55.964  1.00  0.00    -0.067 N 
HETATM    4  H   UNL     1       8.012  26.686  55.495  1.00  0.00     0.280 HD
HETATM    5  C   UNL     1       7.978  28.693  55.047  1.00  0.00     0.235 C 
HETATM    6  C   UNL     1       9.295  29.214  55.588  1.00  0.00     0.035 C 
ENDROOT
BRANCH   3   7
HETATM    7  C   UNL     1       6.185  27.262  56.185  1.00  0.00     0.277 C 
BRANCH   7   8
HETATM    8  C   UNL     1       5.412  27.038  54.940  1.00  0.00     0.016 A 
HETATM    9  C   UNL     1       5.556  25.962  54.007  1.00  0.00     0.102 A 
HETATM   10  N   UNL     1       4.648  26.062  53.031  1.00  0.00    -0.174 NA
HETATM   11  N   UNL     1       4.020  27.221  53.243  1.00  0.00    -0.288 N 
HETATM   12  H   UNL     1       3.324  27.523  52.564  1.00  0.00     0.188 HD
HETATM   13  C   UNL     1       4.422  27.838  54.393  1.00  0.00     0.120 A 
BRANCH   9  14
HETATM   14  C   UNL     1       6.500  24.853  54.007  1.00  0.00     0.072 A 
HETATM   15  C   UNL     1       7.297  24.566  52.897  1.00  0.00     0.132 A 
HETATM   16  F   UNL     1       7.172  25.282  51.765  1.00  0.00    -0.205 F 
HETATM   17  C   UNL     1       8.214  23.512  52.913  1.00  0.00     0.043 A 
HETATM   18  C   UNL     1       8.344  22.724  54.055  1.00  0.00     0.006 A 
HETATM   19  C   UNL     1       7.550  22.989  55.170  1.00  0.00     0.043 A 
HETATM   20  C   UNL     1       6.640  24.045  55.140  1.00  0.00     0.132 A 
HETATM   21  F   UNL     1       5.862  24.240  56.216  1.00  0.00    -0.205 F 
ENDBRANCH   9  14
ENDBRANCH   7   8
ENDBRANCH   3   7
BRANCH   1  22
HETATM   22  C   UNL     1       8.339  30.215  57.748  1.00  0.00     0.127 C 
BRANCH  22  23
HETATM   23  N   UNL     1       7.929  29.836  59.103  1.00  0.00    -0.376 N 
HETATM   24  H   UNL     1       7.058  29.311  59.134  1.00  0.00     0.161 HD
BRANCH  23  25
HETATM   25  C   UNL     1       8.190  30.652  60.192  1.00  0.00     0.101 A 
HETATM   26  N   UNL     1       7.161  30.991  60.993  1.00  0.00    -0.347 N 
HETATM   27  C   UNL     1       7.279  31.746  62.102  1.00  0.00     0.007 A 
HETATM   28  H   UNL     1       6.240  30.641  60.751  1.00  0.00     0.167 HD
HETATM   29  C   UNL     1       6.056  32.053  62.907  1.00  0.00     0.068 C 
HETATM   30  C   UNL     1       8.536  32.210  62.480  1.00  0.00     0.025 A 
HETATM   31  C   UNL     1       9.638  31.873  61.707  1.00  0.00     0.006 A 
HETATM   32  C   UNL     1       9.467  31.089  60.568  1.00  0.00     0.048 A 
ENDBRANCH  23  25
ENDBRANCH  22  23
ENDBRANCH   1  22
TORSDOF 6
ENDMDL
MODEL 10
REMARK VINA RESULT:      -9.0      2.778      8.900
REMARK  6 active torsions:
REMARK  status: ('A' for Active; 'I' for Inactive)
REMARK    1  A    between atoms: C_5  and  N_6 
REMARK    2  A    between atoms: N_6  and  C_7 
REMARK    3  A    between atoms: C_7  and  C_8 
REMARK    4  A    between atoms: N_10  and  C_12 
REMARK    5  A    between atoms: C_12  and  C_13 
REMARK    6  A    between atoms: C_14  and  C_15 
ROOT
HETATM    1  C   UNL     1       5.958  26.062  55.932  1.00  0.00     0.031 C 
HETATM    2  C   UNL     1       5.793  27.214  56.929  1.00  0.00     0.241 C 
HETATM    3  N   UNL     1       7.002  28.108  56.724  1.00  0.00    -0.067 N 
HETATM    4  H   UNL     1       6.658  29.035  56.432  1.00  0.00     0.280 HD
HETATM    5  C   UNL     1       7.791  27.560  55.555  1.00  0.00     0.235 C 
HETATM    6  C   UNL     1       6.779  26.707  54.817  1.00  0.00     0.035 C 
ENDROOT
BRANCH   3   7
HETATM    7  C   UNL     1       7.799  28.371  57.983  1.00  0.00     0.277 C 
BRANCH   7   8
HETATM    8  C   UNL     1       8.851  29.404  57.835  1.00  0.00     0.016 A 
HETATM    9  C   UNL     1       9.018  30.595  58.612  1.00  0.00     0.102 A 
HETATM   10  N   UNL     1      10.112  31.259  58.224  1.00  0.00    -0.174 NA
HETATM   11  N   UNL     1      10.571  30.601  57.157  1.00  0.00    -0.288 N 
HETATM   12  H   UNL     1      11.374  30.985  56.663  1.00  0.00     0.188 HD
HETATM   13  C   UNL     1       9.865  29.462  56.894  1.00  0.00     0.120 A 
BRANCH   9  14
HETATM   14  C   UNL     1       8.201  31.118  59.697  1.00  0.00     0.072 A 
HETATM   15  C   UNL     1       8.560  30.948  61.036  1.00  0.00     0.132 A 
HETATM   16  F   UNL     1       9.655  30.239  61.363  1.00  0.00    -0.205 F 
HETATM   17  C   UNL     1       7.780  31.471  62.071  1.00  0.00     0.043 A 
HETATM   18  C   UNL     1       6.617  32.179  61.772  1.00  0.00     0.006 A 
HETATM   19  C   UNL     1       6.236  32.351  60.441  1.00  0.00     0.043 A 
HETATM   20  C   UNL     1       7.026  31.824  59.420  1.00  0.00     0.132 A 
HETATM   21  F   UNL     1       6.603  31.972  58.155  1.00  0.00    -0.205 F 
ENDBRANCH   9  14
ENDBRANCH   7   8
ENDBRANCH   3   7
BRANCH   1  22
HETATM   22  C   UNL     1       6.651  24.837  56.570  1.00  0.00     0.127 C 
BRANCH  22  23
HETATM   23  N   UNL     1       7.633  24.275  55.639  1.00  0.00    -0.376 N 
HETATM   24  H   UNL     1       7.672  24.760  54.745  1.00  0.00     0.161 HD
BRANCH  23  25
HETATM   25  C   UNL     1       7.905  22.916  55.610  1.00  0.00     0.101 A 
HETATM   26  N   UNL     1       7.905  22.294  54.415  1.00  0.00    -0.347 N 
HETATM   27  C   UNL     1       8.188  20.988  54.238  1.00  0.00     0.007 A 
HETATM   28  H   UNL     1       7.692  22.850  53.594  1.00  0.00     0.167 HD
HETATM   29  C   UNL     1       8.152  20.417  52.857  1.00  0.00     0.068 C 
HETATM   30  C   UNL     1       8.520  20.209  55.343  1.00  0.00     0.025 A 
HETATM   31  C   UNL     1       8.561  20.800  56.598  1.00  0.00     0.006 A 
HETATM   32  C   UNL     1       8.261  22.154  56.731  1.00  0.00     0.048 A 
ENDBRANCH  23  25
ENDBRANCH  22  23
ENDBRANCH   1  22
TORSDOF 6
ENDMDL
