MODEL 1
REMARK VINA RESULT:      -9.8      0.000      0.000
REMARK  6 active torsions:
REMARK  status: ('A' for Active; 'I' for Inactive)
REMARK    1  A    between atoms: C_2  and  C_3 
REMARK    2  A    between atoms: C_6  and  N_7 
REMARK    3  A    between atoms: N_7  and  C_8 
REMARK    4  A    between atoms: C_8  and  C_9 
REMARK    5  A    between atoms: N_15  and  C_16 
REMARK    6  A    between atoms: C_23  and  C_24 
ROOT
HETATM    1  C   UNL     1       6.255  28.118  56.498  1.00  0.00     0.028 A 
HETATM    2  C   UNL     1       7.345  27.961  57.501  1.00  0.00     0.255 A 
HETATM    3  O   UNL     1       8.092  27.010  57.616  1.00  0.00    -0.268 OA
HETATM    4  N   UNL     1       7.550  29.063  58.390  1.00  0.00    -0.307 N 
HETATM    5  C   UNL     1       6.818  30.231  58.260  1.00  0.00     0.144 A 
HETATM    6  C   UNL     1       5.904  30.383  57.249  1.00  0.00     0.038 A 
HETATM    7  N   UNL     1       6.847  31.428  58.953  1.00  0.00    -0.216 N 
HETATM    8  N   UNL     1       6.114  32.371  58.300  1.00  0.00    -0.169 NA
HETATM    9  C   UNL     1       5.489  31.735  57.297  1.00  0.00     0.077 C 
HETATM   10  C   UNL     1       5.608  29.294  56.390  1.00  0.00     0.032 A 
HETATM   11  H   UNL     1       8.316  28.978  59.045  1.00  0.00     0.170 HD
ENDROOT
BRANCH   1  12
HETATM   12  C   UNL     1       5.994  26.945  55.609  1.00  0.00     0.164 C 
BRANCH  12  13
HETATM   13  N   UNL     1       7.237  26.574  54.954  1.00  0.00    -0.385 N 
HETATM   14  H   UNL     1       8.086  26.852  55.442  1.00  0.00     0.160 HD
BRANCH  13  15
HETATM   15  C   UNL     1       7.391  25.284  54.429  1.00  0.00     0.028 A 
HETATM   16  C   UNL     1       7.267  24.198  55.305  1.00  0.00     0.029 A 
HETATM   17  C   UNL     1       7.452  22.881  54.869  1.00  0.00     0.009 A 
HETATM   18  C   UNL     1       7.781  22.616  53.538  1.00  0.00    -0.058 A 
HETATM   19  C   UNL     1       7.935  23.693  52.661  1.00  0.00     0.009 A 
HETATM   20  C   UNL     1       7.764  25.010  53.109  1.00  0.00     0.029 A 
BRANCH  18  21
HETATM   21  C   UNL     1       7.958  21.199  53.057  1.00  0.00     0.034 C 
HETATM   22  C   UNL     1       8.610  20.317  54.112  1.00  0.00     0.010 C 
ENDBRANCH  18  21
ENDBRANCH  13  15
ENDBRANCH  12  13
ENDBRANCH   1  12
BRANCH   9  23
HETATM   23  C   UNL     1       4.529  32.501  56.387  1.00  0.00    -0.004 C 
HETATM   24  C   UNL     1       4.970  32.441  54.904  1.00  0.00     0.021 C 
HETATM   25  C   UNL     1       3.113  31.895  56.467  1.00  0.00     0.021 C 
HETATM   26  C   UNL     1       4.476  33.987  56.790  1.00  0.00     0.021 C 
ENDBRANCH   9  23
BRANCH   7  27
HETATM   27  C   UNL     1       7.506  31.750  60.170  1.00  0.00     0.060 A 
HETATM   28  C   UNL     1       6.735  32.135  61.280  1.00  0.00     0.031 A 
HETATM   29  C   UNL     1       7.353  32.462  62.488  1.00  0.00     0.002 A 
HETATM   30  C   UNL     1       8.738  32.390  62.605  1.00  0.00     0.000 A 
HETATM   31  C   UNL     1       9.508  31.980  61.518  1.00  0.00     0.002 A 
HETATM   32  C   UNL     1       8.897  31.656  60.302  1.00  0.00     0.031 A 
ENDBRANCH   7  27
TORSDOF 6
ENDMDL
MODEL 2
REMARK VINA RESULT:      -9.6      0.707      1.407
REMARK  6 active torsions:
REMARK  status: ('A' for Active; 'I' for Inactive)
REMARK    1  A    between atoms: C_2  and  C_3 
REMARK    2  A    between atoms: C_6  and  N_7 
REMARK    3  A    between atoms: N_7  and  C_8 
REMARK    4  A    between atoms: C_8  and  C_9 
REMARK    5  A    between atoms: N_15  and  C_16 
REMARK    6  A    between atoms: C_23  and  C_24 
ROOT
HETATM    1  C   UNL     1       6.910  28.873  56.228  1.00  0.00     0.028 A 
HETATM    2  C   UNL     1       7.916  28.715  57.313  1.00  0.00     0.255 A 
HETATM    3  O   UNL     1       8.803  27.886  57.365  1.00  0.00    -0.268 OA
HETATM    4  N   UNL     1       7.849  29.664  58.383  1.00  0.00    -0.307 N 
HETATM    5  C   UNL     1       6.941  30.709  58.353  1.00  0.00     0.144 A 
HETATM    6  C   UNL     1       6.108  30.891  57.278  1.00  0.00     0.038 A 
HETATM    7  N   UNL     1       6.701  31.758  59.223  1.00  0.00    -0.216 N 
HETATM    8  N   UNL     1       5.878  32.674  58.645  1.00  0.00    -0.169 NA
HETATM    9  C   UNL     1       5.464  32.133  57.488  1.00  0.00     0.077 C 
HETATM   10  C   UNL     1       6.082  29.936  56.230  1.00  0.00     0.032 A 
HETATM   11  H   UNL     1       8.556  29.586  59.101  1.00  0.00     0.170 HD
ENDROOT
BRANCH   1  12
HETATM   12  C   UNL     1       6.935  27.847  55.141  1.00  0.00     0.164 C 
BRANCH  12  13
HETATM   13  N   UNL     1       6.728  26.537  55.735  1.00  0.00    -0.385 N 
HETATM   14  H   UNL     1       5.834  26.407  56.203  1.00  0.00     0.160 HD
BRANCH  13  15
HETATM   15  C   UNL     1       7.059  25.382  55.014  1.00  0.00     0.028 A 
HETATM   16  C   UNL     1       7.051  24.157  55.695  1.00  0.00     0.029 A 
HETATM   17  C   UNL     1       7.413  22.964  55.059  1.00  0.00     0.009 A 
HETATM   18  C   UNL     1       7.808  22.968  53.720  1.00  0.00    -0.058 A 
HETATM   19  C   UNL     1       7.848  24.187  53.039  1.00  0.00     0.009 A 
HETATM   20  C   UNL     1       7.499  25.380  53.686  1.00  0.00     0.029 A 
BRANCH  18  21
HETATM   21  C   UNL     1       8.177  21.683  53.023  1.00  0.00     0.034 C 
HETATM   22  C   UNL     1       7.930  20.467  53.904  1.00  0.00     0.010 C 
ENDBRANCH  18  21
ENDBRANCH  13  15
ENDBRANCH  12  13
ENDBRANCH   1  12
BRANCH   9  23
HETATM   23  C   UNL     1       4.472  32.887  56.604  1.00  0.00    -0.004 C 
HETATM   24  C   UNL     1       4.026  34.223  57.247  1.00  0.00     0.021 C 
HETATM   25  C   UNL     1       5.114  33.228  55.243  1.00  0.00     0.021 C 
HETATM   26  C   UNL     1       3.203  32.043  56.377  1.00  0.00     0.021 C 
ENDBRANCH   9  23
BRANCH   7  27
HETATM   27  C   UNL     1       7.183  31.961  60.544  1.00  0.00     0.060 A 
HETATM   28  C   UNL     1       8.567  31.911  60.778  1.00  0.00     0.031 A 
HETATM   29  C   UNL     1       9.073  32.103  62.065  1.00  0.00     0.002 A 
HETATM   30  C   UNL     1       8.206  32.364  63.122  1.00  0.00     0.000 A 
HETATM   31  C   UNL     1       6.833  32.445  62.893  1.00  0.00     0.002 A 
HETATM   32  C   UNL     1       6.318  32.249  61.607  1.00  0.00     0.031 A 
ENDBRANCH   7  27
TORSDOF 6
ENDMDL
MODEL 3
REMARK VINA RESULT:      -9.5      1.882      8.956
REMARK  6 active torsions:
REMARK  status: ('A' for Active; 'I' for Inactive)
REMARK    1  A    between atoms: C_2  and  C_3 
REMARK    2  A    between atoms: C_6  and  N_7 
REMARK    3  A    between atoms: N_7  and  C_8 
REMARK    4  A    between atoms: C_8  and  C_9 
REMARK    5  A    between atoms: N_15  and  C_16 
REMARK    6  A    between atoms: C_23  and  C_24 
ROOT
HETATM    1  C   UNL     1       6.782  28.787  56.361  1.00  0.00     0.028 A 
HETATM    2  C   UNL     1       7.275  27.600  57.112  1.00  0.00     0.255 A 
HETATM    3  O   UNL     1       7.611  27.569  58.280  1.00  0.00    -0.268 OA
HETATM    4  N   UNL     1       7.321  26.366  56.389  1.00  0.00    -0.307 N 
HETATM    5  C   UNL     1       6.855  26.284  55.088  1.00  0.00     0.144 A 
HETATM    6  C   UNL     1       6.297  27.373  54.467  1.00  0.00     0.038 A 
HETATM    7  N   UNL     1       6.756  25.227  54.200  1.00  0.00    -0.216 N 
HETATM    8  N   UNL     1       6.001  25.581  53.125  1.00  0.00    -0.169 NA
HETATM    9  C   UNL     1       5.765  26.897  53.246  1.00  0.00     0.077 C 
HETATM   10  C   UNL     1       6.299  28.636  55.112  1.00  0.00     0.032 A 
HETATM   11  H   UNL     1       7.615  25.549  56.908  1.00  0.00     0.170 HD
ENDROOT
BRANCH   1  12
HETATM   12  C   UNL     1       6.793  30.090  57.092  1.00  0.00     0.164 C 
BRANCH  12  13
HETATM   13  N   UNL     1       8.059  30.219  57.792  1.00  0.00    -0.385 N 
HETATM   14  H   UNL     1       8.836  30.559  57.229  1.00  0.00     0.160 HD
BRANCH  13  15
HETATM   15  C   UNL     1       8.099  30.809  59.062  1.00  0.00     0.028 A 
HETATM   16  C   UNL     1       9.146  30.450  59.921  1.00  0.00     0.029 A 
HETATM   17  C   UNL     1       9.234  30.959  61.222  1.00  0.00     0.009 A 
HETATM   18  C   UNL     1       8.261  31.837  61.704  1.00  0.00    -0.058 A 
HETATM   19  C   UNL     1       7.196  32.180  60.866  1.00  0.00     0.009 A 
HETATM   20  C   UNL     1       7.107  31.654  59.571  1.00  0.00     0.029 A 
BRANCH  18  21
HETATM   21  C   UNL     1       8.361  32.407  63.096  1.00  0.00     0.034 C 
HETATM   22  C   UNL     1       7.065  33.075  63.532  1.00  0.00     0.010 C 
ENDBRANCH  18  21
ENDBRANCH  13  15
ENDBRANCH  12  13
ENDBRANCH   1  12
BRANCH   9  23
HETATM   23  C   UNL     1       4.980  27.635  52.162  1.00  0.00    -0.004 C 
HETATM   24  C   UNL     1       3.587  28.084  52.665  1.00  0.00     0.021 C 
HETATM   25  C   UNL     1       5.736  28.905  51.720  1.00  0.00     0.021 C 
HETATM   26  C   UNL     1       4.754  26.720  50.943  1.00  0.00     0.021 C 
ENDBRANCH   9  23
BRANCH   7  27
HETATM   27  C   UNL     1       7.312  23.923  54.286  1.00  0.00     0.060 A 
HETATM   28  C   UNL     1       7.945  23.377  53.157  1.00  0.00     0.031 A 
HETATM   29  C   UNL     1       8.497  22.096  53.208  1.00  0.00     0.002 A 
HETATM   30  C   UNL     1       8.439  21.358  54.387  1.00  0.00     0.000 A 
HETATM   31  C   UNL     1       7.839  21.904  55.521  1.00  0.00     0.002 A 
HETATM   32  C   UNL     1       7.279  23.185  55.477  1.00  0.00     0.031 A 
ENDBRANCH   7  27
TORSDOF 6
ENDMDL
MODEL 4
REMARK VINA RESULT:      -9.2      1.779      4.283
REMARK  6 active torsions:
REMARK  status: ('A' for Active; 'I' for Inactive)
REMARK    1  A    between atoms: C_2  and  C_3 
REMARK    2  A    between atoms: C_6  and  N_7 
REMARK    3  A    between atoms: N_7  and  C_8 
REMARK    4  A    between atoms: C_8  and  C_9 
REMARK    5  A    between atoms: N_15  and  C_16 
REMARK    6  A    between atoms: C_23  and  C_24 
ROOT
HETATM    1  C   UNL     1       7.871  29.109  57.782  1.00  0.00     0.028 A 
HETATM    2  C   UNL     1       6.582  29.468  57.129  1.00  0.00     0.255 A 
HETATM    3  O   UNL     1       6.038  28.870  56.222  1.00  0.00    -0.268 OA
HETATM    4  N   UNL     1       5.903  30.613  57.654  1.00  0.00    -0.307 N 
HETATM    5  C   UNL     1       6.394  31.291  58.758  1.00  0.00     0.144 A 
HETATM    6  C   UNL     1       7.523  30.859  59.406  1.00  0.00     0.038 A 
HETATM    7  N   UNL     1       5.920  32.380  59.466  1.00  0.00    -0.216 N 
HETATM    8  N   UNL     1       6.616  32.529  60.627  1.00  0.00    -0.169 NA
HETATM    9  C   UNL     1       7.628  31.649  60.575  1.00  0.00     0.077 C 
HETATM   10  C   UNL     1       8.274  29.778  58.880  1.00  0.00     0.032 A 
HETATM   11  H   UNL     1       5.007  30.835  57.241  1.00  0.00     0.170 HD
ENDROOT
BRANCH   1  12
HETATM   12  C   UNL     1       8.616  27.953  57.197  1.00  0.00     0.164 C 
BRANCH  12  13
HETATM   13  N   UNL     1       7.813  26.754  57.361  1.00  0.00    -0.385 N 
HETATM   14  H   UNL     1       6.850  26.910  57.651  1.00  0.00     0.160 HD
BRANCH  13  15
HETATM   15  C   UNL     1       7.860  25.743  56.391  1.00  0.00     0.028 A 
HETATM   16  C   UNL     1       8.546  24.562  56.706  1.00  0.00     0.029 A 
HETATM   17  C   UNL     1       8.678  23.523  55.778  1.00  0.00     0.009 A 
HETATM   18  C   UNL     1       8.134  23.645  54.497  1.00  0.00    -0.058 A 
HETATM   19  C   UNL     1       7.472  24.830  54.163  1.00  0.00     0.009 A 
HETATM   20  C   UNL     1       7.358  25.872  55.093  1.00  0.00     0.029 A 
BRANCH  18  21
HETATM   21  C   UNL     1       8.253  22.521  53.501  1.00  0.00     0.034 C 
HETATM   22  C   UNL     1       7.905  21.174  54.118  1.00  0.00     0.010 C 
ENDBRANCH  18  21
ENDBRANCH  13  15
ENDBRANCH  12  13
ENDBRANCH   1  12
BRANCH   9  23
HETATM   23  C   UNL     1       8.648  31.591  61.712  1.00  0.00    -0.004 C 
HETATM   24  C   UNL     1       8.830  30.150  62.249  1.00  0.00     0.021 C 
HETATM   25  C   UNL     1      10.029  32.072  61.221  1.00  0.00     0.021 C 
HETATM   26  C   UNL     1       8.187  32.465  62.894  1.00  0.00     0.021 C 
ENDBRANCH   9  23
BRANCH   7  27
HETATM   27  C   UNL     1       4.873  33.283  59.139  1.00  0.00     0.060 A 
HETATM   28  C   UNL     1       3.883  33.552  60.098  1.00  0.00     0.031 A 
HETATM   29  C   UNL     1       2.838  34.431  59.805  1.00  0.00     0.002 A 
HETATM   30  C   UNL     1       2.784  35.060  58.565  1.00  0.00     0.000 A 
HETATM   31  C   UNL     1       3.779  34.822  57.619  1.00  0.00     0.002 A 
HETATM   32  C   UNL     1       4.826  33.939  57.902  1.00  0.00     0.031 A 
ENDBRANCH   7  27
TORSDOF 6
ENDMDL
MODEL 5
REMARK VINA RESULT:      -9.1      5.227      9.115
REMARK  6 active torsions:
REMARK  status: ('A' for Active; 'I' for Inactive)
REMARK    1  A    between atoms: C_2  and  C_3 
REMARK    2  A    between atoms: C_6  and  N_7 
REMARK    3  A    between atoms: N_7  and  C_8 
REMARK    4  A    between atoms: C_8  and  C_9 
REMARK    5  A    between atoms: N_15  and  C_16 
REMARK    6  A    between atoms: C_23  and  C_24 
ROOT
HETATM    1  C   UNL     1       4.906  27.237  52.230  1.00  0.00     0.028 A 
HETATM    2  C   UNL     1       5.131  25.948  51.520  1.00  0.00     0.255 A 
HETATM    3  O   UNL     1       4.761  25.665  50.397  1.00  0.00    -0.268 OA
HETATM    4  N   UNL     1       5.893  24.962  52.223  1.00  0.00    -0.307 N 
HETATM    5  C   UNL     1       6.447  25.237  53.462  1.00  0.00     0.144 A 
HETATM    6  C   UNL     1       6.317  26.478  54.033  1.00  0.00     0.038 A 
HETATM    7  N   UNL     1       7.236  24.487  54.315  1.00  0.00    -0.216 N 
HETATM    8  N   UNL     1       7.744  25.272  55.304  1.00  0.00    -0.169 NA
HETATM    9  C   UNL     1       7.148  26.469  55.179  1.00  0.00     0.077 C 
HETATM   10  C   UNL     1       5.509  27.464  53.413  1.00  0.00     0.032 A 
HETATM   11  H   UNL     1       6.083  24.101  51.728  1.00  0.00     0.170 HD
ENDROOT
BRANCH   1  12
HETATM   12  C   UNL     1       4.058  28.247  51.527  1.00  0.00     0.164 C 
BRANCH  12  13
HETATM   13  N   UNL     1       4.471  28.311  50.135  1.00  0.00    -0.385 N 
HETATM   14  H   UNL     1       5.115  27.581  49.838  1.00  0.00     0.160 HD
BRANCH  13  15
HETATM   15  C   UNL     1       3.518  28.541  49.134  1.00  0.00     0.028 A 
HETATM   16  C   UNL     1       2.274  27.906  49.251  1.00  0.00     0.029 A 
HETATM   17  C   UNL     1       1.285  28.048  48.271  1.00  0.00     0.009 A 
HETATM   18  C   UNL     1       1.521  28.825  47.134  1.00  0.00    -0.058 A 
HETATM   19  C   UNL     1       2.768  29.440  46.993  1.00  0.00     0.009 A 
HETATM   20  C   UNL     1       3.759  29.280  47.971  1.00  0.00     0.029 A 
BRANCH  18  21
HETATM   21  C   UNL     1       0.452  29.000  46.087  1.00  0.00     0.034 C 
HETATM   22  C   UNL     1      -0.539  27.845  46.087  1.00  0.00     0.010 C 
ENDBRANCH  18  21
ENDBRANCH  13  15
ENDBRANCH  12  13
ENDBRANCH   1  12
BRANCH   9  23
HETATM   23  C   UNL     1       7.454  27.583  56.178  1.00  0.00    -0.004 C 
HETATM   24  C   UNL     1       6.169  28.120  56.855  1.00  0.00     0.021 C 
HETATM   25  C   UNL     1       8.376  27.062  57.300  1.00  0.00     0.021 C 
HETATM   26  C   UNL     1       8.129  28.773  55.468  1.00  0.00     0.021 C 
ENDBRANCH   9  23
BRANCH   7  27
HETATM   27  C   UNL     1       7.547  23.102  54.271  1.00  0.00     0.060 A 
HETATM   28  C   UNL     1       7.528  22.362  55.465  1.00  0.00     0.031 A 
HETATM   29  C   UNL     1       7.833  20.999  55.455  1.00  0.00     0.002 A 
HETATM   30  C   UNL     1       8.141  20.363  54.257  1.00  0.00     0.000 A 
HETATM   31  C   UNL     1       8.134  21.083  53.063  1.00  0.00     0.002 A 
HETATM   32  C   UNL     1       7.834  22.449  53.065  1.00  0.00     0.031 A 
ENDBRANCH   7  27
TORSDOF 6
ENDMDL
MODEL 6
REMARK VINA RESULT:      -9.0      4.453      9.186
REMARK  6 active torsions:
REMARK  status: ('A' for Active; 'I' for Inactive)
REMARK    1  A    between atoms: C_2  and  C_3 
REMARK    2  A    between atoms: C_6  and  N_7 
REMARK    3  A    between atoms: N_7  and  C_8 
REMARK    4  A    between atoms: C_8  and  C_9 
REMARK    5  A    between atoms: N_15  and  C_16 
REMARK    6  A    between atoms: C_23  and  C_24 
ROOT
HETATM    1  C   UNL     1       4.936  27.294  52.147  1.00  0.00     0.028 A 
HETATM    2  C   UNL     1       5.170  26.004  51.441  1.00  0.00     0.255 A 
HETATM    3  O   UNL     1       4.822  25.722  50.311  1.00  0.00    -0.268 OA
HETATM    4  N   UNL     1       5.915  25.015  52.159  1.00  0.00    -0.307 N 
HETATM    5  C   UNL     1       6.445  25.289  53.409  1.00  0.00     0.144 A 
HETATM    6  C   UNL     1       6.309  26.529  53.977  1.00  0.00     0.038 A 
HETATM    7  N   UNL     1       7.215  24.536  54.277  1.00  0.00    -0.216 N 
HETATM    8  N   UNL     1       7.706  25.319  55.276  1.00  0.00    -0.169 NA
HETATM    9  C   UNL     1       7.117  26.518  55.139  1.00  0.00     0.077 C 
HETATM   10  C   UNL     1       5.516  27.519  53.342  1.00  0.00     0.032 A 
HETATM   11  H   UNL     1       6.112  24.153  51.668  1.00  0.00     0.170 HD
ENDROOT
BRANCH   1  12
HETATM   12  C   UNL     1       4.105  28.306  51.427  1.00  0.00     0.164 C 
BRANCH  12  13
HETATM   13  N   UNL     1       4.663  28.506  50.101  1.00  0.00    -0.385 N 
HETATM   14  H   UNL     1       4.211  27.982  49.354  1.00  0.00     0.160 HD
BRANCH  13  15
HETATM   15  C   UNL     1       4.967  29.800  49.657  1.00  0.00     0.028 A 
HETATM   16  C   UNL     1       4.620  30.143  48.343  1.00  0.00     0.029 A 
HETATM   17  C   UNL     1       4.928  31.399  47.809  1.00  0.00     0.009 A 
HETATM   18  C   UNL     1       5.607  32.347  48.577  1.00  0.00    -0.058 A 
HETATM   19  C   UNL     1       5.983  32.006  49.879  1.00  0.00     0.009 A 
HETATM   20  C   UNL     1       5.685  30.741  50.402  1.00  0.00     0.029 A 
BRANCH  18  21
HETATM   21  C   UNL     1       5.922  33.710  48.015  1.00  0.00     0.034 C 
HETATM   22  C   UNL     1       7.408  33.880  47.733  1.00  0.00     0.010 C 
ENDBRANCH  18  21
ENDBRANCH  13  15
ENDBRANCH  12  13
ENDBRANCH   1  12
BRANCH   9  23
HETATM   23  C   UNL     1       7.407  27.631  56.144  1.00  0.00    -0.004 C 
HETATM   24  C   UNL     1       8.081  28.853  55.473  1.00  0.00     0.021 C 
HETATM   25  C   UNL     1       6.098  28.130  56.789  1.00  0.00     0.021 C 
HETATM   26  C   UNL     1       8.363  27.128  57.244  1.00  0.00     0.021 C 
ENDBRANCH   9  23
BRANCH   7  27
HETATM   27  C   UNL     1       7.522  23.149  54.239  1.00  0.00     0.060 A 
HETATM   28  C   UNL     1       7.487  22.412  55.434  1.00  0.00     0.031 A 
HETATM   29  C   UNL     1       7.788  21.048  55.430  1.00  0.00     0.002 A 
HETATM   30  C   UNL     1       8.108  20.408  54.237  1.00  0.00     0.000 A 
HETATM   31  C   UNL     1       8.116  21.126  53.042  1.00  0.00     0.002 A 
HETATM   32  C   UNL     1       7.820  22.494  53.037  1.00  0.00     0.031 A 
ENDBRANCH   7  27
TORSDOF 6
ENDMDL
MODEL 7
REMARK VINA RESULT:      -9.0      3.356      5.690
REMARK  6 active torsions:
REMARK  status: ('A' for Active; 'I' for Inactive)
REMARK    1  A    between atoms: C_2  and  C_3 
REMARK    2  A    between atoms: C_6  and  N_7 
REMARK    3  A    between atoms: N_7  and  C_8 
REMARK    4  A    between atoms: C_8  and  C_9 
REMARK    5  A    between atoms: N_15  and  C_16 
REMARK    6  A    between atoms: C_23  and  C_24 
ROOT
HETATM    1  C   UNL     1       7.813  26.441  56.686  1.00  0.00     0.028 A 
HETATM    2  C   UNL     1       7.472  27.758  57.291  1.00  0.00     0.255 A 
HETATM    3  O   UNL     1       7.969  28.249  58.285  1.00  0.00    -0.268 OA
HETATM    4  N   UNL     1       6.485  28.534  56.605  1.00  0.00    -0.307 N 
HETATM    5  C   UNL     1       5.944  28.101  55.405  1.00  0.00     0.144 A 
HETATM    6  C   UNL     1       6.369  26.937  54.818  1.00  0.00     0.038 A 
HETATM    7  N   UNL     1       5.021  28.668  54.544  1.00  0.00    -0.216 N 
HETATM    8  N   UNL     1       4.992  27.986  53.367  1.00  0.00    -0.169 NA
HETATM    9  C   UNL     1       5.762  26.900  53.541  1.00  0.00     0.077 C 
HETATM   10  C   UNL     1       7.288  26.095  55.494  1.00  0.00     0.032 A 
HETATM   11  H   UNL     1       6.281  29.447  56.989  1.00  0.00     0.170 HD
ENDROOT
BRANCH   1  12
HETATM   12  C   UNL     1       8.796  25.599  57.432  1.00  0.00     0.164 C 
BRANCH  12  13
HETATM   13  N   UNL     1       8.197  24.300  57.685  1.00  0.00    -0.385 N 
HETATM   14  H   UNL     1       7.238  24.321  58.026  1.00  0.00     0.160 HD
BRANCH  13  15
HETATM   15  C   UNL     1       8.346  23.267  56.749  1.00  0.00     0.028 A 
HETATM   16  C   UNL     1       7.960  21.975  57.130  1.00  0.00     0.029 A 
HETATM   17  C   UNL     1       8.118  20.881  56.272  1.00  0.00     0.009 A 
HETATM   18  C   UNL     1       8.682  21.051  55.006  1.00  0.00    -0.058 A 
HETATM   19  C   UNL     1       9.096  22.330  54.626  1.00  0.00     0.009 A 
HETATM   20  C   UNL     1       8.949  23.418  55.497  1.00  0.00     0.029 A 
BRANCH  18  21
HETATM   21  C   UNL     1       8.834  19.881  54.068  1.00  0.00     0.034 C 
HETATM   22  C   UNL     1       8.444  20.241  52.642  1.00  0.00     0.010 C 
ENDBRANCH  18  21
ENDBRANCH  13  15
ENDBRANCH  12  13
ENDBRANCH   1  12
BRANCH   9  23
HETATM   23  C   UNL     1       5.905  25.876  52.415  1.00  0.00    -0.004 C 
HETATM   24  C   UNL     1       5.057  24.608  52.678  1.00  0.00     0.021 C 
HETATM   25  C   UNL     1       5.424  26.476  51.078  1.00  0.00     0.021 C 
HETATM   26  C   UNL     1       7.372  25.426  52.279  1.00  0.00     0.021 C 
ENDBRANCH   9  23
BRANCH   7  27
HETATM   27  C   UNL     1       4.174  29.791  54.742  1.00  0.00     0.060 A 
HETATM   28  C   UNL     1       3.854  30.603  53.641  1.00  0.00     0.031 A 
HETATM   29  C   UNL     1       3.028  31.717  53.803  1.00  0.00     0.002 A 
HETATM   30  C   UNL     1       2.500  32.017  55.056  1.00  0.00     0.000 A 
HETATM   31  C   UNL     1       2.788  31.198  56.147  1.00  0.00     0.002 A 
HETATM   32  C   UNL     1       3.620  30.084  55.994  1.00  0.00     0.031 A 
ENDBRANCH   7  27
TORSDOF 6
ENDMDL
MODEL 8
REMARK VINA RESULT:      -8.7      4.305      6.403
REMARK  6 active torsions:
REMARK  status: ('A' for Active; 'I' for Inactive)
REMARK    1  A    between atoms: C_2  and  C_3 
REMARK    2  A    between atoms: C_6  and  N_7 
REMARK    3  A    between atoms: N_7  and  C_8 
REMARK    4  A    between atoms: C_8  and  C_9 
REMARK    5  A    between atoms: N_15  and  C_16 
REMARK    6  A    between atoms: C_23  and  C_24 
ROOT
HETATM    1  C   UNL     1       4.213  29.179  53.430  1.00  0.00     0.028 A 
HETATM    2  C   UNL     1       4.490  30.246  54.430  1.00  0.00     0.255 A 
HETATM    3  O   UNL     1       3.825  31.242  54.631  1.00  0.00    -0.268 OA
HETATM    4  N   UNL     1       5.639  30.052  55.262  1.00  0.00    -0.307 N 
HETATM    5  C   UNL     1       6.393  28.893  55.178  1.00  0.00     0.144 A 
HETATM    6  C   UNL     1       6.037  27.879  54.326  1.00  0.00     0.038 A 
HETATM    7  N   UNL     1       7.503  28.454  55.877  1.00  0.00    -0.216 N 
HETATM    8  N   UNL     1       7.740  27.140  55.613  1.00  0.00    -0.169 NA
HETATM    9  C   UNL     1       6.894  26.795  54.629  1.00  0.00     0.077 C 
HETATM   10  C   UNL     1       4.954  28.054  53.427  1.00  0.00     0.032 A 
HETATM   11  H   UNL     1       5.807  30.753  55.971  1.00  0.00     0.170 HD
ENDROOT
BRANCH   1  12
HETATM   12  C   UNL     1       3.052  29.407  52.516  1.00  0.00     0.164 C 
BRANCH  12  13
HETATM   13  N   UNL     1       3.557  29.635  51.174  1.00  0.00    -0.385 N 
HETATM   14  H   UNL     1       4.472  30.079  51.121  1.00  0.00     0.160 HD
BRANCH  13  15
HETATM   15  C   UNL     1       3.466  28.621  50.210  1.00  0.00     0.028 A 
HETATM   16  C   UNL     1       2.286  28.533  49.460  1.00  0.00     0.029 A 
HETATM   17  C   UNL     1       2.097  27.522  48.510  1.00  0.00     0.009 A 
HETATM   18  C   UNL     1       3.085  26.559  48.295  1.00  0.00    -0.058 A 
HETATM   19  C   UNL     1       4.254  26.621  49.058  1.00  0.00     0.009 A 
HETATM   20  C   UNL     1       4.430  27.626  50.018  1.00  0.00     0.029 A 
BRANCH  18  21
HETATM   21  C   UNL     1       2.897  25.482  47.258  1.00  0.00     0.034 C 
HETATM   22  C   UNL     1       2.908  24.091  47.875  1.00  0.00     0.010 C 
ENDBRANCH  18  21
ENDBRANCH  13  15
ENDBRANCH  12  13
ENDBRANCH   1  12
BRANCH   9  23
HETATM   23  C   UNL     1       6.933  25.382  54.049  1.00  0.00    -0.004 C 
HETATM   24  C   UNL     1       7.685  25.335  52.696  1.00  0.00     0.021 C 
HETATM   25  C   UNL     1       7.666  24.424  55.011  1.00  0.00     0.021 C 
HETATM   26  C   UNL     1       5.504  24.863  53.796  1.00  0.00     0.021 C 
ENDBRANCH   9  23
BRANCH   7  27
HETATM   27  C   UNL     1       8.350  29.169  56.766  1.00  0.00     0.060 A 
HETATM   28  C   UNL     1       9.624  29.561  56.324  1.00  0.00     0.031 A 
HETATM   29  C   UNL     1      10.482  30.260  57.175  1.00  0.00     0.002 A 
HETATM   30  C   UNL     1      10.069  30.590  58.463  1.00  0.00     0.000 A 
HETATM   31  C   UNL     1       8.795  30.231  58.899  1.00  0.00     0.002 A 
HETATM   32  C   UNL     1       7.931  29.525  58.055  1.00  0.00     0.031 A 
ENDBRANCH   7  27
TORSDOF 6
ENDMDL
MODEL 9
REMARK VINA RESULT:      -8.4      2.588      4.250
REMARK  6 active torsions:
REMARK  status: ('A' for Active; 'I' for Inactive)
REMARK    1  A    between atoms: C_2  and  C_3 
REMARK    2  A    between atoms: C_6  and  N_7 
REMARK    3  A    between atoms: N_7  and  C_8 
REMARK    4  A    between atoms: C_8  and  C_9 
REMARK    5  A    between atoms: N_15  and  C_16 
REMARK    6  A    between atoms: C_23  and  C_24 
ROOT
HETATM    1  C   UNL     1       7.357  27.478  56.922  1.00  0.00     0.028 A 
HETATM    2  C   UNL     1       7.476  28.688  57.780  1.00  0.00     0.255 A 
HETATM    3  O   UNL     1       8.243  28.845  58.710  1.00  0.00    -0.268 OA
HETATM    4  N   UNL     1       6.624  29.788  57.446  1.00  0.00    -0.307 N 
HETATM    5  C   UNL     1       5.797  29.739  56.336  1.00  0.00     0.144 A 
HETATM    6  C   UNL     1       5.801  28.651  55.501  1.00  0.00     0.038 A 
HETATM    7  N   UNL     1       4.922  30.659  55.787  1.00  0.00    -0.216 N 
HETATM    8  N   UNL     1       4.520  30.252  54.552  1.00  0.00    -0.169 NA
HETATM    9  C   UNL     1       4.999  29.008  54.391  1.00  0.00     0.077 C 
HETATM   10  C   UNL     1       6.568  27.505  55.830  1.00  0.00     0.032 A 
HETATM   11  H   UNL     1       6.732  30.628  58.000  1.00  0.00     0.170 HD
ENDROOT
BRANCH   1  12
HETATM   12  C   UNL     1       8.198  26.303  57.305  1.00  0.00     0.164 C 
BRANCH  12  13
HETATM   13  N   UNL     1       7.352  25.123  57.355  1.00  0.00    -0.385 N 
HETATM   14  H   UNL     1       6.353  25.299  57.262  1.00  0.00     0.160 HD
BRANCH  13  15
HETATM   15  C   UNL     1       7.703  23.979  56.626  1.00  0.00     0.028 A 
HETATM   16  C   UNL     1       7.348  23.929  55.271  1.00  0.00     0.029 A 
HETATM   17  C   UNL     1       7.622  22.805  54.484  1.00  0.00     0.009 A 
HETATM   18  C   UNL     1       8.252  21.689  55.040  1.00  0.00    -0.058 A 
HETATM   19  C   UNL     1       8.585  21.717  56.396  1.00  0.00     0.009 A 
HETATM   20  C   UNL     1       8.294  22.840  57.182  1.00  0.00     0.029 A 
BRANCH  18  21
HETATM   21  C   UNL     1       8.570  20.484  54.192  1.00  0.00     0.034 C 
HETATM   22  C   UNL     1       7.940  20.577  52.811  1.00  0.00     0.010 C 
ENDBRANCH  18  21
ENDBRANCH  13  15
ENDBRANCH  12  13
ENDBRANCH   1  12
BRANCH   9  23
HETATM   23  C   UNL     1       4.681  28.226  53.117  1.00  0.00    -0.004 C 
HETATM   24  C   UNL     1       5.748  28.454  52.019  1.00  0.00     0.021 C 
HETATM   25  C   UNL     1       4.644  26.712  53.409  1.00  0.00     0.021 C 
HETATM   26  C   UNL     1       3.324  28.672  52.537  1.00  0.00     0.021 C 
ENDBRANCH   9  23
BRANCH   7  27
HETATM   27  C   UNL     1       4.441  31.881  56.329  1.00  0.00     0.060 A 
HETATM   28  C   UNL     1       5.203  32.536  57.310  1.00  0.00     0.031 A 
HETATM   29  C   UNL     1       4.756  33.736  57.866  1.00  0.00     0.002 A 
HETATM   30  C   UNL     1       3.559  34.300  57.436  1.00  0.00     0.000 A 
HETATM   31  C   UNL     1       2.811  33.672  56.440  1.00  0.00     0.002 A 
HETATM   32  C   UNL     1       3.249  32.467  55.882  1.00  0.00     0.031 A 
ENDBRANCH   7  27
TORSDOF 6
ENDMDL
MODEL 10
REMARK VINA RESULT:      -8.4      2.413      8.575
REMARK  6 active torsions:
REMARK  status: ('A' for Active; 'I' for Inactive)
REMARK    1  A    between atoms: C_2  and  C_3 
REMARK    2  A    between atoms: C_6  and  N_7 
REMARK    3  A    between atoms: N_7  and  C_8 
REMARK    4  A    between atoms: C_8  and  C_9 
REMARK    5  A    between atoms: N_15  and  C_16 
REMARK    6  A    between atoms: C_23  and  C_24 
ROOT
HETATM    1  C   UNL     1       4.973  29.040  55.706  1.00  0.00     0.028 A 
HETATM    2  C   UNL     1       5.370  27.853  56.512  1.00  0.00     0.255 A 
HETATM    3  O   UNL     1       5.328  27.751  57.722  1.00  0.00    -0.268 OA
HETATM    4  N   UNL     1       5.808  26.706  55.777  1.00  0.00    -0.307 N 
HETATM    5  C   UNL     1       5.784  26.694  54.392  1.00  0.00     0.144 A 
HETATM    6  C   UNL     1       5.300  27.765  53.685  1.00  0.00     0.038 A 
HETATM    7  N   UNL     1       6.114  25.721  53.465  1.00  0.00    -0.216 N 
HETATM    8  N   UNL     1       5.687  26.085  52.225  1.00  0.00    -0.169 NA
HETATM    9  C   UNL     1       5.244  27.348  52.334  1.00  0.00     0.077 C 
HETATM   10  C   UNL     1       4.926  28.953  54.363  1.00  0.00     0.032 A 
HETATM   11  H   UNL     1       6.039  25.883  56.318  1.00  0.00     0.170 HD
ENDROOT
BRANCH   1  12
HETATM   12  C   UNL     1       4.575  30.261  56.470  1.00  0.00     0.164 C 
BRANCH  12  13
HETATM   13  N   UNL     1       5.746  31.105  56.637  1.00  0.00    -0.385 N 
HETATM   14  H   UNL     1       5.660  32.048  56.263  1.00  0.00     0.160 HD
BRANCH  13  15
HETATM   15  C   UNL     1       6.412  31.141  57.870  1.00  0.00     0.028 A 
HETATM   16  C   UNL     1       6.009  32.103  58.806  1.00  0.00     0.029 A 
HETATM   17  C   UNL     1       6.652  32.235  60.042  1.00  0.00     0.009 A 
HETATM   18  C   UNL     1       7.731  31.411  60.370  1.00  0.00    -0.058 A 
HETATM   19  C   UNL     1       8.159  30.467  59.433  1.00  0.00     0.009 A 
HETATM   20  C   UNL     1       7.520  30.351  58.191  1.00  0.00     0.029 A 
BRANCH  18  21
HETATM   21  C   UNL     1       8.413  31.533  61.708  1.00  0.00     0.034 C 
HETATM   22  C   UNL     1       9.420  30.416  61.937  1.00  0.00     0.010 C 
ENDBRANCH  18  21
ENDBRANCH  13  15
ENDBRANCH  12  13
ENDBRANCH   1  12
BRANCH   9  23
HETATM   23  C   UNL     1       4.738  28.089  51.097  1.00  0.00    -0.004 C 
HETATM   24  C   UNL     1       5.624  29.312  50.755  1.00  0.00     0.021 C 
HETATM   25  C   UNL     1       4.752  27.158  49.868  1.00  0.00     0.021 C 
HETATM   26  C   UNL     1       3.307  28.612  51.331  1.00  0.00     0.021 C 
ENDBRANCH   9  23
BRANCH   7  27
HETATM   27  C   UNL     1       6.791  24.487  53.655  1.00  0.00     0.060 A 
HETATM   28  C   UNL     1       7.429  23.886  52.557  1.00  0.00     0.031 A 
HETATM   29  C   UNL     1       8.100  22.671  52.710  1.00  0.00     0.002 A 
HETATM   30  C   UNL     1       8.156  22.058  53.958  1.00  0.00     0.000 A 
HETATM   31  C   UNL     1       7.552  22.663  55.059  1.00  0.00     0.002 A 
HETATM   32  C   UNL     1       6.873  23.877  54.913  1.00  0.00     0.031 A 
ENDBRANCH   7  27
TORSDOF 6
ENDMDL
