MODEL 1
REMARK VINA RESULT:     -10.0      0.000      0.000
REMARK  8 active torsions:
REMARK  status: ('A' for Active; 'I' for Inactive)
REMARK    1  A    between atoms: C_5  and  S_6 
REMARK    2  A    between atoms: S_6  and  C_7 
REMARK    3  A    between atoms: C_7  and  C_8 
REMARK       I    between atoms: C_8  and  N_9 
REMARK    4  A    between atoms: N_9  and  C_10 
REMARK    5  A    between atoms: C_10  and  C_11 
REMARK    6  A    between atoms: C_11  and  C_12 
REMARK    7  A    between atoms: C_14  and  O_15 
REMARK    8  A    between atoms: C_17  and  O_18 
ROOT
HETATM    1  C   UNL     1       7.877  29.430  58.224  1.00  0.00     0.185 C 
ENDROOT
BRANCH   1   2
HETATM    2  S   UNL     1       7.565  28.721  56.580  1.00  0.00    -0.080 SA
BRANCH   2   3
HETATM    3  C   UNL     1       7.738  27.031  56.917  1.00  0.00     0.197 A 
HETATM    4  N   UNL     1       7.651  25.982  56.016  1.00  0.00    -0.271 N 
HETATM    5  C   UNL     1       7.962  24.863  56.787  1.00  0.00     0.165 A 
HETATM    6  C   UNL     1       7.340  25.890  54.628  1.00  0.00     0.053 A 
HETATM    7  C   UNL     1       8.038  23.563  56.201  1.00  0.00    -0.013 A 
HETATM    8  N   UNL     1       8.149  25.219  58.042  1.00  0.00    -0.128 NA
HETATM    9  C   UNL     1       8.406  22.340  57.004  1.00  0.00     0.052 C 
HETATM   10  C   UNL     1       7.777  23.444  54.884  1.00  0.00     0.024 A 
HETATM   11  C   UNL     1       7.409  24.602  54.062  1.00  0.00    -0.008 A 
HETATM   12  C   UNL     1       7.121  24.419  52.703  1.00  0.00     0.014 A 
HETATM   13  C   UNL     1       6.756  25.505  51.911  1.00  0.00     0.001 A 
HETATM   14  C   UNL     1       6.675  26.776  52.473  1.00  0.00     0.002 A 
HETATM   15  C   UNL     1       6.964  26.973  53.828  1.00  0.00     0.031 A 
HETATM   16  N   UNL     1       8.007  26.574  58.121  1.00  0.00    -0.122 NA
ENDBRANCH   2   3
ENDBRANCH   1   2
BRANCH   1  17
HETATM   17  C   UNL     1       9.188  30.195  58.211  1.00  0.00     0.227 C 
HETATM   18  N   UNL     1       9.436  31.130  59.182  1.00  0.00    -0.360 N 
HETATM   19  H   UNL     1      10.305  31.623  59.008  1.00  0.00     0.162 HD
HETATM   20  O   UNL     1      10.055  29.988  57.361  1.00  0.00    -0.273 OA
BRANCH  18  21
HETATM   21  C   UNL     1       8.454  31.773  60.039  1.00  0.00     0.127 C 
BRANCH  21  22
HETATM   22  C   UNL     1       8.970  31.959  61.467  1.00  0.00     0.058 C 
BRANCH  22  23
HETATM   23  C   UNL     1       7.837  32.234  62.426  1.00  0.00    -0.054 A 
HETATM   24  C   UNL     1       6.522  31.877  62.087  1.00  0.00     0.046 A 
HETATM   25  C   UNL     1       5.455  32.171  62.943  1.00  0.00     0.102 A 
HETATM   26  C   UNL     1       5.704  32.809  64.174  1.00  0.00     0.101 A 
HETATM   27  C   UNL     1       7.015  33.155  64.515  1.00  0.00     0.040 A 
HETATM   28  C   UNL     1       8.074  32.874  63.644  1.00  0.00     0.010 A 
BRANCH  25  29
HETATM   29  O   UNL     1       4.144  31.863  62.673  1.00  0.00    -0.353 OA
HETATM   30  C   UNL     1       3.565  32.443  61.511  1.00  0.00     0.210 C 
ENDBRANCH  25  29
BRANCH  26  31
HETATM   31  O   UNL     1       4.606  33.055  64.959  1.00  0.00    -0.353 OA
HETATM   32  C   UNL     1       4.769  33.932  66.064  1.00  0.00     0.210 C 
ENDBRANCH  26  31
ENDBRANCH  22  23
ENDBRANCH  21  22
ENDBRANCH  18  21
ENDBRANCH   1  17
TORSDOF 8
ENDMDL
MODEL 2
REMARK VINA RESULT:      -9.9      1.074      2.698
REMARK  8 active torsions:
REMARK  status: ('A' for Active; 'I' for Inactive)
REMARK    1  A    between atoms: C_5  and  S_6 
REMARK    2  A    between atoms: S_6  and  C_7 
REMARK    3  A    between atoms: C_7  and  C_8 
REMARK       I    between atoms: C_8  and  N_9 
REMARK    4  A    between atoms: N_9  and  C_10 
REMARK    5  A    between atoms: C_10  and  C_11 
REMARK    6  A    between atoms: C_11  and  C_12 
REMARK    7  A    between atoms: C_14  and  O_15 
REMARK    8  A    between atoms: C_17  and  O_18 
ROOT
HETATM    1  C   UNL     1       7.497  29.110  57.726  1.00  0.00     0.185 C 
ENDROOT
BRANCH   1   2
HETATM    2  S   UNL     1       7.684  27.314  57.522  1.00  0.00    -0.080 SA
BRANCH   2   3
HETATM    3  C   UNL     1       7.325  27.140  55.837  1.00  0.00     0.197 A 
HETATM    4  N   UNL     1       7.310  25.968  55.098  1.00  0.00    -0.271 N 
HETATM    5  C   UNL     1       6.870  26.381  53.841  1.00  0.00     0.165 A 
HETATM    6  C   UNL     1       7.627  24.610  55.388  1.00  0.00     0.053 A 
HETATM    7  C   UNL     1       6.661  25.438  52.788  1.00  0.00    -0.013 A 
HETATM    8  N   UNL     1       6.706  27.688  53.828  1.00  0.00    -0.128 NA
HETATM    9  C   UNL     1       6.154  25.852  51.429  1.00  0.00     0.052 C 
HETATM   10  C   UNL     1       6.926  24.141  53.037  1.00  0.00     0.024 A 
HETATM   11  C   UNL     1       7.427  23.690  54.339  1.00  0.00    -0.008 A 
HETATM   12  C   UNL     1       7.711  22.332  54.536  1.00  0.00     0.014 A 
HETATM   13  C   UNL     1       8.201  21.889  55.762  1.00  0.00     0.001 A 
HETATM   14  C   UNL     1       8.411  22.800  56.794  1.00  0.00     0.002 A 
HETATM   15  C   UNL     1       8.128  24.157  56.611  1.00  0.00     0.031 A 
HETATM   16  N   UNL     1       6.993  28.161  55.075  1.00  0.00    -0.122 NA
ENDBRANCH   2   3
ENDBRANCH   1   2
BRANCH   1  17
HETATM   17  C   UNL     1       8.859  29.744  57.943  1.00  0.00     0.227 C 
HETATM   18  N   UNL     1       9.095  30.468  59.084  1.00  0.00    -0.360 N 
HETATM   19  H   UNL     1      10.010  30.903  59.063  1.00  0.00     0.162 HD
HETATM   20  O   UNL     1       9.777  29.614  57.132  1.00  0.00    -0.273 OA
BRANCH  18  21
HETATM   21  C   UNL     1       8.096  31.035  59.975  1.00  0.00     0.127 C 
BRANCH  21  22
HETATM   22  C   UNL     1       8.730  31.814  61.128  1.00  0.00     0.058 C 
BRANCH  22  23
HETATM   23  C   UNL     1       7.708  32.148  62.188  1.00  0.00    -0.054 A 
HETATM   24  C   UNL     1       6.341  31.958  61.935  1.00  0.00     0.046 A 
HETATM   25  C   UNL     1       5.378  32.312  62.889  1.00  0.00     0.102 A 
HETATM   26  C   UNL     1       5.787  32.839  64.129  1.00  0.00     0.101 A 
HETATM   27  C   UNL     1       7.150  33.018  64.384  1.00  0.00     0.040 A 
HETATM   28  C   UNL     1       8.104  32.680  63.417  1.00  0.00     0.010 A 
BRANCH  25  29
HETATM   29  O   UNL     1       4.025  32.166  62.707  1.00  0.00    -0.353 OA
HETATM   30  C   UNL     1       3.395  33.037  61.777  1.00  0.00     0.210 C 
ENDBRANCH  25  29
BRANCH  26  31
HETATM   31  O   UNL     1       4.784  33.153  65.011  1.00  0.00    -0.353 OA
HETATM   32  C   UNL     1       5.110  33.997  66.106  1.00  0.00     0.210 C 
ENDBRANCH  26  31
ENDBRANCH  22  23
ENDBRANCH  21  22
ENDBRANCH  18  21
ENDBRANCH   1  17
TORSDOF 8
ENDMDL
MODEL 3
REMARK VINA RESULT:      -9.3      3.307     10.473
REMARK  8 active torsions:
REMARK  status: ('A' for Active; 'I' for Inactive)
REMARK    1  A    between atoms: C_5  and  S_6 
REMARK    2  A    between atoms: S_6  and  C_7 
REMARK    3  A    between atoms: C_7  and  C_8 
REMARK       I    between atoms: C_8  and  N_9 
REMARK    4  A    between atoms: N_9  and  C_10 
REMARK    5  A    between atoms: C_10  and  C_11 
REMARK    6  A    between atoms: C_11  and  C_12 
REMARK    7  A    between atoms: C_14  and  O_15 
REMARK    8  A    between atoms: C_17  and  O_18 
ROOT
HETATM    1  C   UNL     1       8.611  28.677  57.206  1.00  0.00     0.185 C 
ENDROOT
BRANCH   1   2
HETATM    2  S   UNL     1       8.889  30.018  58.399  1.00  0.00    -0.080 SA
BRANCH   2   3
HETATM    3  C   UNL     1       7.348  30.809  58.364  1.00  0.00     0.197 A 
HETATM    4  N   UNL     1       6.792  31.609  59.349  1.00  0.00    -0.271 N 
HETATM    5  C   UNL     1       5.604  32.057  58.772  1.00  0.00     0.165 A 
HETATM    6  C   UNL     1       7.192  31.984  60.664  1.00  0.00     0.053 A 
HETATM    7  C   UNL     1       4.751  32.972  59.461  1.00  0.00    -0.013 A 
HETATM    8  N   UNL     1       5.450  31.515  57.581  1.00  0.00    -0.128 NA
HETATM    9  C   UNL     1       3.479  33.501  58.848  1.00  0.00     0.052 C 
HETATM   10  C   UNL     1       5.113  33.369  60.697  1.00  0.00     0.024 A 
HETATM   11  C   UNL     1       6.338  32.879  61.338  1.00  0.00    -0.008 A 
HETATM   12  C   UNL     1       6.654  33.304  62.636  1.00  0.00     0.014 A 
HETATM   13  C   UNL     1       7.805  32.836  63.266  1.00  0.00     0.001 A 
HETATM   14  C   UNL     1       8.642  31.942  62.604  1.00  0.00     0.002 A 
HETATM   15  C   UNL     1       8.340  31.513  61.307  1.00  0.00     0.031 A 
HETATM   16  N   UNL     1       6.539  30.734  57.328  1.00  0.00    -0.122 NA
ENDBRANCH   2   3
ENDBRANCH   1   2
BRANCH   1  17
HETATM   17  C   UNL     1       8.955  29.156  55.808  1.00  0.00     0.227 C 
HETATM   18  N   UNL     1       8.082  28.921  54.777  1.00  0.00    -0.360 N 
HETATM   19  H   UNL     1       8.470  29.217  53.888  1.00  0.00     0.162 HD
HETATM   20  O   UNL     1       9.993  29.774  55.566  1.00  0.00    -0.273 OA
BRANCH  18  21
HETATM   21  C   UNL     1       7.011  27.939  54.754  1.00  0.00     0.127 C 
BRANCH  21  22
HETATM   22  C   UNL     1       6.914  27.225  53.404  1.00  0.00     0.058 C 
BRANCH  22  23
HETATM   23  C   UNL     1       7.360  25.787  53.514  1.00  0.00    -0.054 A 
HETATM   24  C   UNL     1       7.713  25.250  54.762  1.00  0.00     0.046 A 
HETATM   25  C   UNL     1       8.177  23.933  54.872  1.00  0.00     0.102 A 
HETATM   26  C   UNL     1       8.265  23.127  53.721  1.00  0.00     0.101 A 
HETATM   27  C   UNL     1       7.904  23.660  52.480  1.00  0.00     0.040 A 
HETATM   28  C   UNL     1       7.459  24.982  52.376  1.00  0.00     0.010 A 
BRANCH  25  29
HETATM   29  O   UNL     1       8.551  23.346  56.056  1.00  0.00    -0.353 OA
HETATM   30  C   UNL     1       8.523  24.157  57.223  1.00  0.00     0.210 C 
ENDBRANCH  25  29
BRANCH  26  31
HETATM   31  O   UNL     1       8.722  21.848  53.914  1.00  0.00    -0.353 OA
HETATM   32  C   UNL     1       8.186  20.825  53.088  1.00  0.00     0.210 C 
ENDBRANCH  26  31
ENDBRANCH  22  23
ENDBRANCH  21  22
ENDBRANCH  18  21
ENDBRANCH   1  17
TORSDOF 8
ENDMDL
MODEL 4
REMARK VINA RESULT:      -9.1      3.268     10.316
REMARK  8 active torsions:
REMARK  status: ('A' for Active; 'I' for Inactive)
REMARK    1  A    between atoms: C_5  and  S_6 
REMARK    2  A    between atoms: S_6  and  C_7 
REMARK    3  A    between atoms: C_7  and  C_8 
REMARK       I    between atoms: C_8  and  N_9 
REMARK    4  A    between atoms: N_9  and  C_10 
REMARK    5  A    between atoms: C_10  and  C_11 
REMARK    6  A    between atoms: C_11  and  C_12 
REMARK    7  A    between atoms: C_14  and  O_15 
REMARK    8  A    between atoms: C_17  and  O_18 
ROOT
HETATM    1  C   UNL     1       5.895  29.452  55.888  1.00  0.00     0.185 C 
ENDROOT
BRANCH   1   2
HETATM    2  S   UNL     1       5.592  30.884  56.964  1.00  0.00    -0.080 SA
BRANCH   2   3
HETATM    3  C   UNL     1       6.835  30.669  58.149  1.00  0.00     0.197 A 
HETATM    4  N   UNL     1       6.968  31.334  59.358  1.00  0.00    -0.271 N 
HETATM    5  C   UNL     1       8.068  30.715  59.951  1.00  0.00     0.165 A 
HETATM    6  C   UNL     1       6.257  32.395  59.988  1.00  0.00     0.053 A 
HETATM    7  C   UNL     1       8.501  31.084  61.261  1.00  0.00    -0.013 A 
HETATM    8  N   UNL     1       8.572  29.813  59.134  1.00  0.00    -0.128 NA
HETATM    9  C   UNL     1       9.665  30.408  61.942  1.00  0.00     0.052 C 
HETATM   10  C   UNL     1       7.833  32.065  61.898  1.00  0.00     0.024 A 
HETATM   11  C   UNL     1       6.699  32.757  61.276  1.00  0.00    -0.008 A 
HETATM   12  C   UNL     1       6.055  33.789  61.972  1.00  0.00     0.014 A 
HETATM   13  C   UNL     1       4.986  34.467  61.391  1.00  0.00     0.001 A 
HETATM   14  C   UNL     1       4.557  34.117  60.113  1.00  0.00     0.002 A 
HETATM   15  C   UNL     1       5.189  33.086  59.410  1.00  0.00     0.031 A 
HETATM   16  N   UNL     1       7.802  29.787  58.008  1.00  0.00    -0.122 NA
ENDBRANCH   2   3
ENDBRANCH   1   2
BRANCH   1  17
HETATM   17  C   UNL     1       4.621  28.638  55.748  1.00  0.00     0.227 C 
HETATM   18  N   UNL     1       4.666  27.408  55.144  1.00  0.00    -0.360 N 
HETATM   19  H   UNL     1       3.739  27.011  55.042  1.00  0.00     0.162 HD
HETATM   20  O   UNL     1       3.540  29.038  56.183  1.00  0.00    -0.273 OA
BRANCH  18  21
HETATM   21  C   UNL     1       5.715  26.908  54.271  1.00  0.00     0.127 C 
BRANCH  21  22
HETATM   22  C   UNL     1       5.348  25.563  53.642  1.00  0.00     0.058 C 
BRANCH  22  23
HETATM   23  C   UNL     1       6.363  24.502  53.992  1.00  0.00    -0.054 A 
HETATM   24  C   UNL     1       6.795  24.347  55.319  1.00  0.00     0.046 A 
HETATM   25  C   UNL     1       7.773  23.402  55.651  1.00  0.00     0.102 A 
HETATM   26  C   UNL     1       8.313  22.576  54.646  1.00  0.00     0.101 A 
HETATM   27  C   UNL     1       7.875  22.724  53.326  1.00  0.00     0.040 A 
HETATM   28  C   UNL     1       6.911  23.684  53.001  1.00  0.00     0.010 A 
BRANCH  25  29
HETATM   29  O   UNL     1       8.251  23.203  56.923  1.00  0.00    -0.353 OA
HETATM   30  C   UNL     1       8.856  24.314  57.572  1.00  0.00     0.210 C 
ENDBRANCH  25  29
BRANCH  26  31
HETATM   31  O   UNL     1       9.260  21.671  55.053  1.00  0.00    -0.353 OA
HETATM   32  C   UNL     1       8.919  20.293  55.009  1.00  0.00     0.210 C 
ENDBRANCH  26  31
ENDBRANCH  22  23
ENDBRANCH  21  22
ENDBRANCH  18  21
ENDBRANCH   1  17
TORSDOF 8
ENDMDL
MODEL 5
REMARK VINA RESULT:      -9.1      1.973      3.697
REMARK  8 active torsions:
REMARK  status: ('A' for Active; 'I' for Inactive)
REMARK    1  A    between atoms: C_5  and  S_6 
REMARK    2  A    between atoms: S_6  and  C_7 
REMARK    3  A    between atoms: C_7  and  C_8 
REMARK       I    between atoms: C_8  and  N_9 
REMARK    4  A    between atoms: N_9  and  C_10 
REMARK    5  A    between atoms: C_10  and  C_11 
REMARK    6  A    between atoms: C_11  and  C_12 
REMARK    7  A    between atoms: C_14  and  O_15 
REMARK    8  A    between atoms: C_17  and  O_18 
ROOT
HETATM    1  C   UNL     1       6.503  28.991  56.811  1.00  0.00     0.185 C 
ENDROOT
BRANCH   1   2
HETATM    2  S   UNL     1       5.315  27.621  56.693  1.00  0.00    -0.080 SA
BRANCH   2   3
HETATM    3  C   UNL     1       5.164  27.468  54.975  1.00  0.00     0.197 A 
HETATM    4  N   UNL     1       5.749  26.511  54.162  1.00  0.00    -0.271 N 
HETATM    5  C   UNL     1       5.224  26.789  52.900  1.00  0.00     0.165 A 
HETATM    6  C   UNL     1       6.668  25.446  54.388  1.00  0.00     0.053 A 
HETATM    7  C   UNL     1       5.545  25.973  51.774  1.00  0.00    -0.013 A 
HETATM    8  N   UNL     1       4.452  27.855  52.960  1.00  0.00    -0.128 NA
HETATM    9  C   UNL     1       4.965  26.229  50.405  1.00  0.00     0.052 C 
HETATM   10  C   UNL     1       6.390  24.939  51.958  1.00  0.00     0.024 A 
HETATM   11  C   UNL     1       6.984  24.652  53.268  1.00  0.00    -0.008 A 
HETATM   12  C   UNL     1       7.878  23.580  53.399  1.00  0.00     0.014 A 
HETATM   13  C   UNL     1       8.463  23.302  54.632  1.00  0.00     0.001 A 
HETATM   14  C   UNL     1       8.160  24.094  55.736  1.00  0.00     0.002 A 
HETATM   15  C   UNL     1       7.267  25.165  55.619  1.00  0.00     0.031 A 
HETATM   16  N   UNL     1       4.417  28.279  54.256  1.00  0.00    -0.122 NA
ENDBRANCH   2   3
ENDBRANCH   1   2
BRANCH   1  17
HETATM   17  C   UNL     1       7.481  28.725  57.940  1.00  0.00     0.227 C 
HETATM   18  N   UNL     1       7.658  29.668  58.919  1.00  0.00    -0.360 N 
HETATM   19  H   UNL     1       8.396  29.401  59.562  1.00  0.00     0.162 HD
HETATM   20  O   UNL     1       8.115  27.671  58.020  1.00  0.00    -0.273 OA
BRANCH  18  21
HETATM   21  C   UNL     1       7.304  31.075  58.843  1.00  0.00     0.127 C 
BRANCH  21  22
HETATM   22  C   UNL     1       7.594  31.813  60.151  1.00  0.00     0.058 C 
BRANCH  22  23
HETATM   23  C   UNL     1       6.315  32.202  60.854  1.00  0.00    -0.054 A 
HETATM   24  C   UNL     1       6.270  32.259  62.256  1.00  0.00     0.046 A 
HETATM   25  C   UNL     1       5.078  32.568  62.923  1.00  0.00     0.102 A 
HETATM   26  C   UNL     1       3.916  32.851  62.180  1.00  0.00     0.101 A 
HETATM   27  C   UNL     1       3.966  32.804  60.783  1.00  0.00     0.040 A 
HETATM   28  C   UNL     1       5.156  32.476  60.125  1.00  0.00     0.010 A 
BRANCH  25  29
HETATM   29  O   UNL     1       4.956  32.630  64.290  1.00  0.00    -0.353 OA
HETATM   30  C   UNL     1       5.917  33.404  64.996  1.00  0.00     0.210 C 
ENDBRANCH  25  29
BRANCH  26  31
HETATM   31  O   UNL     1       2.793  33.151  62.908  1.00  0.00    -0.353 OA
HETATM   32  C   UNL     1       2.195  34.423  62.704  1.00  0.00     0.210 C 
ENDBRANCH  26  31
ENDBRANCH  22  23
ENDBRANCH  21  22
ENDBRANCH  18  21
ENDBRANCH   1  17
TORSDOF 8
ENDMDL
MODEL 6
REMARK VINA RESULT:      -9.1      3.385     10.316
REMARK  8 active torsions:
REMARK  status: ('A' for Active; 'I' for Inactive)
REMARK    1  A    between atoms: C_5  and  S_6 
REMARK    2  A    between atoms: S_6  and  C_7 
REMARK    3  A    between atoms: C_7  and  C_8 
REMARK       I    between atoms: C_8  and  N_9 
REMARK    4  A    between atoms: N_9  and  C_10 
REMARK    5  A    between atoms: C_10  and  C_11 
REMARK    6  A    between atoms: C_11  and  C_12 
REMARK    7  A    between atoms: C_14  and  O_15 
REMARK    8  A    between atoms: C_17  and  O_18 
ROOT
HETATM    1  C   UNL     1       7.152  28.303  56.112  1.00  0.00     0.185 C 
ENDROOT
BRANCH   1   2
HETATM    2  S   UNL     1       6.334  29.862  56.563  1.00  0.00    -0.080 SA
BRANCH   2   3
HETATM    3  C   UNL     1       7.161  30.249  58.034  1.00  0.00     0.197 A 
HETATM    4  N   UNL     1       6.804  31.203  58.973  1.00  0.00    -0.271 N 
HETATM    5  C   UNL     1       7.744  31.031  59.988  1.00  0.00     0.165 A 
HETATM    6  C   UNL     1       5.774  32.186  59.044  1.00  0.00     0.053 A 
HETATM    7  C   UNL     1       7.682  31.804  61.187  1.00  0.00    -0.013 A 
HETATM    8  N   UNL     1       8.613  30.102  59.643  1.00  0.00    -0.128 NA
HETATM    9  C   UNL     1       8.664  31.614  62.316  1.00  0.00     0.052 C 
HETATM   10  C   UNL     1       6.704  32.723  61.300  1.00  0.00     0.024 A 
HETATM   11  C   UNL     1       5.728  32.949  60.228  1.00  0.00    -0.008 A 
HETATM   12  C   UNL     1       4.747  33.937  60.386  1.00  0.00     0.014 A 
HETATM   13  C   UNL     1       3.822  34.174  59.372  1.00  0.00     0.001 A 
HETATM   14  C   UNL     1       3.875  33.429  58.197  1.00  0.00     0.002 A 
HETATM   15  C   UNL     1       4.848  32.437  58.029  1.00  0.00     0.031 A 
HETATM   16  N   UNL     1       8.248  29.616  58.422  1.00  0.00    -0.122 NA
ENDBRANCH   2   3
ENDBRANCH   1   2
BRANCH   1  17
HETATM   17  C   UNL     1       8.144  28.551  54.991  1.00  0.00     0.227 C 
HETATM   18  N   UNL     1       7.899  28.038  53.743  1.00  0.00    -0.360 N 
HETATM   19  H   UNL     1       8.676  28.205  53.115  1.00  0.00     0.162 HD
HETATM   20  O   UNL     1       9.163  29.223  55.158  1.00  0.00    -0.273 OA
BRANCH  18  21
HETATM   21  C   UNL     1       6.983  26.959  53.414  1.00  0.00     0.127 C 
BRANCH  21  22
HETATM   22  C   UNL     1       7.695  25.786  52.738  1.00  0.00     0.058 C 
BRANCH  22  23
HETATM   23  C   UNL     1       7.677  24.557  53.614  1.00  0.00    -0.054 A 
HETATM   24  C   UNL     1       7.672  23.278  53.036  1.00  0.00     0.046 A 
HETATM   25  C   UNL     1       7.603  22.129  53.834  1.00  0.00     0.102 A 
HETATM   26  C   UNL     1       7.566  22.256  55.236  1.00  0.00     0.101 A 
HETATM   27  C   UNL     1       7.582  23.531  55.811  1.00  0.00     0.040 A 
HETATM   28  C   UNL     1       7.631  24.674  55.005  1.00  0.00     0.010 A 
BRANCH  25  29
HETATM   29  O   UNL     1       7.582  20.848  53.339  1.00  0.00    -0.353 OA
HETATM   30  C   UNL     1       8.800  20.330  52.820  1.00  0.00     0.210 C 
ENDBRANCH  25  29
BRANCH  26  31
HETATM   31  O   UNL     1       7.507  21.084  55.947  1.00  0.00    -0.353 OA
HETATM   32  C   UNL     1       8.681  20.666  56.628  1.00  0.00     0.210 C 
ENDBRANCH  26  31
ENDBRANCH  22  23
ENDBRANCH  21  22
ENDBRANCH  18  21
ENDBRANCH   1  17
TORSDOF 8
ENDMDL
MODEL 7
REMARK VINA RESULT:      -9.0      4.060      9.476
REMARK  8 active torsions:
REMARK  status: ('A' for Active; 'I' for Inactive)
REMARK    1  A    between atoms: C_5  and  S_6 
REMARK    2  A    between atoms: S_6  and  C_7 
REMARK    3  A    between atoms: C_7  and  C_8 
REMARK       I    between atoms: C_8  and  N_9 
REMARK    4  A    between atoms: N_9  and  C_10 
REMARK    5  A    between atoms: C_10  and  C_11 
REMARK    6  A    between atoms: C_11  and  C_12 
REMARK    7  A    between atoms: C_14  and  O_15 
REMARK    8  A    between atoms: C_17  and  O_18 
ROOT
HETATM    1  C   UNL     1       4.493  27.846  54.606  1.00  0.00     0.185 C 
ENDROOT
BRANCH   1   2
HETATM    2  S   UNL     1       6.133  28.595  54.833  1.00  0.00    -0.080 SA
BRANCH   2   3
HETATM    3  C   UNL     1       5.870  29.522  56.271  1.00  0.00     0.197 A 
HETATM    4  N   UNL     1       6.832  30.078  57.100  1.00  0.00    -0.271 N 
HETATM    5  C   UNL     1       6.084  30.788  58.037  1.00  0.00     0.165 A 
HETATM    6  C   UNL     1       8.256  30.037  57.131  1.00  0.00     0.053 A 
HETATM    7  C   UNL     1       6.722  31.565  59.052  1.00  0.00    -0.013 A 
HETATM    8  N   UNL     1       4.797  30.610  57.815  1.00  0.00    -0.128 NA
HETATM    9  C   UNL     1       5.938  32.372  60.058  1.00  0.00     0.052 C 
HETATM   10  C   UNL     1       8.068  31.571  59.094  1.00  0.00     0.024 A 
HETATM   11  C   UNL     1       8.875  30.799  58.142  1.00  0.00    -0.008 A 
HETATM   12  C   UNL     1      10.272  30.820  58.247  1.00  0.00     0.014 A 
HETATM   13  C   UNL     1      11.052  30.080  57.361  1.00  0.00     0.001 A 
HETATM   14  C   UNL     1      10.440  29.318  56.370  1.00  0.00     0.002 A 
HETATM   15  C   UNL     1       9.047  29.292  56.253  1.00  0.00     0.031 A 
HETATM   16  N   UNL     1       4.666  29.818  56.712  1.00  0.00    -0.122 NA
ENDBRANCH   2   3
ENDBRANCH   1   2
BRANCH   1  17
HETATM   17  C   UNL     1       4.000  28.111  53.195  1.00  0.00     0.227 C 
HETATM   18  N   UNL     1       4.446  27.327  52.163  1.00  0.00    -0.360 N 
HETATM   19  H   UNL     1       4.106  27.663  51.269  1.00  0.00     0.162 HD
HETATM   20  O   UNL     1       3.188  29.003  52.945  1.00  0.00    -0.273 OA
BRANCH  18  21
HETATM   21  C   UNL     1       5.630  26.484  52.162  1.00  0.00     0.127 C 
BRANCH  21  22
HETATM   22  C   UNL     1       5.284  25.006  52.352  1.00  0.00     0.058 C 
BRANCH  22  23
HETATM   23  C   UNL     1       6.198  24.356  53.363  1.00  0.00    -0.054 A 
HETATM   24  C   UNL     1       6.123  24.718  54.717  1.00  0.00     0.046 A 
HETATM   25  C   UNL     1       6.998  24.163  55.659  1.00  0.00     0.102 A 
HETATM   26  C   UNL     1       7.948  23.208  55.248  1.00  0.00     0.101 A 
HETATM   27  C   UNL     1       8.015  22.841  53.900  1.00  0.00     0.040 A 
HETATM   28  C   UNL     1       7.149  23.415  52.964  1.00  0.00     0.010 A 
BRANCH  25  29
HETATM   29  O   UNL     1       6.992  24.478  56.996  1.00  0.00    -0.353 OA
HETATM   30  C   UNL     1       7.378  25.797  57.356  1.00  0.00     0.210 C 
ENDBRANCH  25  29
BRANCH  26  31
HETATM   31  O   UNL     1       8.764  22.706  56.231  1.00  0.00    -0.353 OA
HETATM   32  C   UNL     1       8.535  21.372  56.659  1.00  0.00     0.210 C 
ENDBRANCH  26  31
ENDBRANCH  22  23
ENDBRANCH  21  22
ENDBRANCH  18  21
ENDBRANCH   1  17
TORSDOF 8
ENDMDL
MODEL 8
REMARK VINA RESULT:      -8.6      3.671      9.753
REMARK  8 active torsions:
REMARK  status: ('A' for Active; 'I' for Inactive)
REMARK    1  A    between atoms: C_5  and  S_6 
REMARK    2  A    between atoms: S_6  and  C_7 
REMARK    3  A    between atoms: C_7  and  C_8 
REMARK       I    between atoms: C_8  and  N_9 
REMARK    4  A    between atoms: N_9  and  C_10 
REMARK    5  A    between atoms: C_10  and  C_11 
REMARK    6  A    between atoms: C_11  and  C_12 
REMARK    7  A    between atoms: C_14  and  O_15 
REMARK    8  A    between atoms: C_17  and  O_18 
ROOT
HETATM    1  C   UNL     1       4.899  28.946  57.315  1.00  0.00     0.185 C 
ENDROOT
BRANCH   1   2
HETATM    2  S   UNL     1       5.167  30.696  56.908  1.00  0.00    -0.080 SA
BRANCH   2   3
HETATM    3  C   UNL     1       6.027  31.228  58.314  1.00  0.00     0.197 A 
HETATM    4  N   UNL     1       7.392  31.160  58.539  1.00  0.00    -0.271 N 
HETATM    5  C   UNL     1       7.553  31.807  59.764  1.00  0.00     0.165 A 
HETATM    6  C   UNL     1       8.489  30.611  57.816  1.00  0.00     0.053 A 
HETATM    7  C   UNL     1       8.851  32.001  60.328  1.00  0.00    -0.013 A 
HETATM    8  N   UNL     1       6.378  32.164  60.242  1.00  0.00    -0.128 NA
HETATM    9  C   UNL     1       9.058  32.728  61.634  1.00  0.00     0.052 C 
HETATM   10  C   UNL     1       9.914  31.518  59.656  1.00  0.00     0.024 A 
HETATM   11  C   UNL     1       9.764  30.800  58.386  1.00  0.00    -0.008 A 
HETATM   12  C   UNL     1      10.901  30.295  57.742  1.00  0.00     0.014 A 
HETATM   13  C   UNL     1      10.776  29.597  56.542  1.00  0.00     0.001 A 
HETATM   14  C   UNL     1       9.515  29.400  55.985  1.00  0.00     0.002 A 
HETATM   15  C   UNL     1       8.373  29.902  56.617  1.00  0.00     0.031 A 
HETATM   16  N   UNL     1       5.426  31.800  59.336  1.00  0.00    -0.122 NA
ENDBRANCH   2   3
ENDBRANCH   1   2
BRANCH   1  17
HETATM   17  C   UNL     1       4.730  28.143  56.039  1.00  0.00     0.227 C 
HETATM   18  N   UNL     1       5.484  27.014  55.844  1.00  0.00    -0.360 N 
HETATM   19  H   UNL     1       5.334  26.624  54.920  1.00  0.00     0.162 HD
HETATM   20  O   UNL     1       3.917  28.461  55.170  1.00  0.00    -0.273 OA
BRANCH  18  21
HETATM   21  C   UNL     1       6.711  26.660  56.536  1.00  0.00     0.127 C 
BRANCH  21  22
HETATM   22  C   UNL     1       6.665  25.239  57.099  1.00  0.00     0.058 C 
BRANCH  22  23
HETATM   23  C   UNL     1       7.386  24.269  56.194  1.00  0.00    -0.054 A 
HETATM   24  C   UNL     1       7.451  24.507  54.812  1.00  0.00     0.046 A 
HETATM   25  C   UNL     1       8.072  23.591  53.954  1.00  0.00     0.102 A 
HETATM   26  C   UNL     1       8.663  22.429  54.485  1.00  0.00     0.101 A 
HETATM   27  C   UNL     1       8.606  22.197  55.863  1.00  0.00     0.040 A 
HETATM   28  C   UNL     1       7.967  23.109  56.711  1.00  0.00     0.010 A 
BRANCH  25  29
HETATM   29  O   UNL     1       8.163  23.752  52.593  1.00  0.00    -0.353 OA
HETATM   30  C   UNL     1       7.599  24.933  52.037  1.00  0.00     0.210 C 
ENDBRANCH  25  29
BRANCH  26  31
HETATM   31  O   UNL     1       9.257  21.586  53.580  1.00  0.00    -0.353 OA
HETATM   32  C   UNL     1       8.508  20.467  53.131  1.00  0.00     0.210 C 
ENDBRANCH  26  31
ENDBRANCH  22  23
ENDBRANCH  21  22
ENDBRANCH  18  21
ENDBRANCH   1  17
TORSDOF 8
ENDMDL
MODEL 9
REMARK VINA RESULT:      -8.5      3.411     10.633
REMARK  8 active torsions:
REMARK  status: ('A' for Active; 'I' for Inactive)
REMARK    1  A    between atoms: C_5  and  S_6 
REMARK    2  A    between atoms: S_6  and  C_7 
REMARK    3  A    between atoms: C_7  and  C_8 
REMARK       I    between atoms: C_8  and  N_9 
REMARK    4  A    between atoms: N_9  and  C_10 
REMARK    5  A    between atoms: C_10  and  C_11 
REMARK    6  A    between atoms: C_11  and  C_12 
REMARK    7  A    between atoms: C_14  and  O_15 
REMARK    8  A    between atoms: C_17  and  O_18 
ROOT
HETATM    1  C   UNL     1       5.475  29.168  57.615  1.00  0.00     0.185 C 
ENDROOT
BRANCH   1   2
HETATM    2  S   UNL     1       6.016  30.802  57.036  1.00  0.00    -0.080 SA
BRANCH   2   3
HETATM    3  C   UNL     1       5.332  31.823  58.256  1.00  0.00     0.197 A 
HETATM    4  N   UNL     1       5.908  32.195  59.460  1.00  0.00    -0.271 N 
HETATM    5  C   UNL     1       4.983  33.087  60.001  1.00  0.00     0.165 A 
HETATM    6  C   UNL     1       7.120  31.853  60.126  1.00  0.00     0.053 A 
HETATM    7  C   UNL     1       5.240  33.751  61.239  1.00  0.00    -0.013 A 
HETATM    8  N   UNL     1       3.931  33.178  59.214  1.00  0.00    -0.128 NA
HETATM    9  C   UNL     1       4.275  34.748  61.832  1.00  0.00     0.052 C 
HETATM   10  C   UNL     1       6.391  33.472  61.882  1.00  0.00     0.024 A 
HETATM   11  C   UNL     1       7.359  32.508  61.350  1.00  0.00    -0.008 A 
HETATM   12  C   UNL     1       8.528  32.234  62.073  1.00  0.00     0.014 A 
HETATM   13  C   UNL     1       9.452  31.310  61.590  1.00  0.00     0.001 A 
HETATM   14  C   UNL     1       9.209  30.654  60.386  1.00  0.00     0.002 A 
HETATM   15  C   UNL     1       8.048  30.921  59.653  1.00  0.00     0.031 A 
HETATM   16  N   UNL     1       4.150  32.386  58.125  1.00  0.00    -0.122 NA
ENDBRANCH   2   3
ENDBRANCH   1   2
BRANCH   1  17
HETATM   17  C   UNL     1       4.932  28.365  56.448  1.00  0.00     0.227 C 
HETATM   18  N   UNL     1       5.616  27.260  56.009  1.00  0.00    -0.360 N 
HETATM   19  H   UNL     1       5.191  26.868  55.176  1.00  0.00     0.162 HD
HETATM   20  O   UNL     1       3.876  28.660  55.887  1.00  0.00    -0.273 OA
BRANCH  18  21
HETATM   21  C   UNL     1       7.010  26.942  56.271  1.00  0.00     0.127 C 
BRANCH  21  22
HETATM   22  C   UNL     1       7.165  25.634  57.048  1.00  0.00     0.058 C 
BRANCH  22  23
HETATM   23  C   UNL     1       7.699  24.533  56.165  1.00  0.00    -0.054 A 
HETATM   24  C   UNL     1       7.707  24.689  54.769  1.00  0.00     0.046 A 
HETATM   25  C   UNL     1       8.151  23.656  53.934  1.00  0.00     0.102 A 
HETATM   26  C   UNL     1       8.623  22.456  54.500  1.00  0.00     0.101 A 
HETATM   27  C   UNL     1       8.624  22.306  55.891  1.00  0.00     0.040 A 
HETATM   28  C   UNL     1       8.160  23.336  56.717  1.00  0.00     0.010 A 
BRANCH  25  29
HETATM   29  O   UNL     1       8.176  23.733  52.563  1.00  0.00    -0.353 OA
HETATM   30  C   UNL     1       7.737  24.948  51.970  1.00  0.00     0.210 C 
ENDBRANCH  25  29
BRANCH  26  31
HETATM   31  O   UNL     1       9.047  21.497  53.615  1.00  0.00    -0.353 OA
HETATM   32  C   UNL     1       8.116  20.497  53.230  1.00  0.00     0.210 C 
ENDBRANCH  26  31
ENDBRANCH  22  23
ENDBRANCH  21  22
ENDBRANCH  18  21
ENDBRANCH   1  17
TORSDOF 8
ENDMDL
MODEL 10
REMARK VINA RESULT:      -8.5      3.486     10.028
REMARK  8 active torsions:
REMARK  status: ('A' for Active; 'I' for Inactive)
REMARK    1  A    between atoms: C_5  and  S_6 
REMARK    2  A    between atoms: S_6  and  C_7 
REMARK    3  A    between atoms: C_7  and  C_8 
REMARK       I    between atoms: C_8  and  N_9 
REMARK    4  A    between atoms: N_9  and  C_10 
REMARK    5  A    between atoms: C_10  and  C_11 
REMARK    6  A    between atoms: C_11  and  C_12 
REMARK    7  A    between atoms: C_14  and  O_15 
REMARK    8  A    between atoms: C_17  and  O_18 
ROOT
HETATM    1  C   UNL     1       4.055  31.216  58.930  1.00  0.00     0.185 C 
ENDROOT
BRANCH   1   2
HETATM    2  S   UNL     1       4.387  32.993  59.109  1.00  0.00    -0.080 SA
BRANCH   2   3
HETATM    3  C   UNL     1       4.827  33.075  60.782  1.00  0.00     0.197 A 
HETATM    4  N   UNL     1       6.072  32.827  61.336  1.00  0.00    -0.271 N 
HETATM    5  C   UNL     1       5.894  33.129  62.686  1.00  0.00     0.165 A 
HETATM    6  C   UNL     1       7.318  32.376  60.812  1.00  0.00     0.053 A 
HETATM    7  C   UNL     1       6.983  33.054  63.606  1.00  0.00    -0.013 A 
HETATM    8  N   UNL     1       4.639  33.462  62.911  1.00  0.00    -0.128 NA
HETATM    9  C   UNL     1       6.828  33.409  65.064  1.00  0.00     0.052 C 
HETATM   10  C   UNL     1       8.183  32.658  63.139  1.00  0.00     0.024 A 
HETATM   11  C   UNL     1       8.384  32.298  61.731  1.00  0.00    -0.008 A 
HETATM   12  C   UNL     1       9.646  31.867  61.303  1.00  0.00     0.014 A 
HETATM   13  C   UNL     1       9.850  31.506  59.973  1.00  0.00     0.001 A 
HETATM   14  C   UNL     1       8.794  31.572  59.068  1.00  0.00     0.002 A 
HETATM   15  C   UNL     1       7.530  32.004  59.482  1.00  0.00     0.031 A 
HETATM   16  N   UNL     1       3.974  33.426  61.720  1.00  0.00    -0.122 NA
ENDBRANCH   2   3
ENDBRANCH   1   2
BRANCH   1  17
HETATM   17  C   UNL     1       3.498  30.936  57.546  1.00  0.00     0.227 C 
HETATM   18  N   UNL     1       3.852  29.783  56.895  1.00  0.00    -0.360 N 
HETATM   19  H   UNL     1       3.480  29.761  55.952  1.00  0.00     0.162 HD
HETATM   20  O   UNL     1       2.715  31.706  56.989  1.00  0.00    -0.273 OA
BRANCH  18  21
HETATM   21  C   UNL     1       4.995  28.935  57.190  1.00  0.00     0.127 C 
BRANCH  21  22
HETATM   22  C   UNL     1       5.834  28.645  55.944  1.00  0.00     0.058 C 
BRANCH  22  23
HETATM   23  C   UNL     1       6.204  27.184  55.862  1.00  0.00    -0.054 A 
HETATM   24  C   UNL     1       7.025  26.721  54.821  1.00  0.00     0.046 A 
HETATM   25  C   UNL     1       7.335  25.361  54.702  1.00  0.00     0.102 A 
HETATM   26  C   UNL     1       6.841  24.448  55.653  1.00  0.00     0.101 A 
HETATM   27  C   UNL     1       6.032  24.912  56.696  1.00  0.00     0.040 A 
HETATM   28  C   UNL     1       5.712  26.270  56.796  1.00  0.00     0.010 A 
BRANCH  25  29
HETATM   29  O   UNL     1       8.120  24.835  53.705  1.00  0.00    -0.353 OA
HETATM   30  C   UNL     1       7.822  25.221  52.370  1.00  0.00     0.210 C 
ENDBRANCH  25  29
BRANCH  26  31
HETATM   31  O   UNL     1       7.196  23.135  55.471  1.00  0.00    -0.353 OA
HETATM   32  C   UNL     1       8.139  22.575  56.373  1.00  0.00     0.210 C 
ENDBRANCH  26  31
ENDBRANCH  22  23
ENDBRANCH  21  22
ENDBRANCH  18  21
ENDBRANCH   1  17
TORSDOF 8
ENDMDL
