MODEL 1
REMARK VINA RESULT:      -9.8      0.000      0.000
REMARK  7 active torsions:
REMARK  status: ('A' for Active; 'I' for Inactive)
REMARK    1  A    between atoms: C_2  and  N_3 
REMARK    2  A    between atoms: C_2  and  C_12 
REMARK       I    between atoms: N_3  and  C_4 
REMARK    3  A    between atoms: C_4  and  C_5 
REMARK    4  A    between atoms: N_17  and  C_19 
REMARK    5  A    between atoms: C_19  and  C_20 
REMARK    6  A    between atoms: C_22  and  C_23 
REMARK    7  A    between atoms: C_23  and  N_24 
ROOT
HETATM    1  C   UNL     1       6.456  32.415  60.371  1.00  0.00     0.152 A 
HETATM    2  N   UNL     1       6.685  31.684  59.223  1.00  0.00    -0.317 N 
HETATM    3  C   UNL     1       8.016  31.344  59.256  1.00  0.00     0.131 A 
HETATM    4  C   UNL     1       8.725  30.471  58.290  1.00  0.00     0.108 C 
HETATM    5  C   UNL     1       7.974  29.161  58.103  1.00  0.00     0.243 C 
HETATM    6  N   UNL     1       6.818  29.270  57.112  1.00  0.00    -0.065 N 
HETATM    7  H   UNL     1       7.230  29.076  56.189  1.00  0.00     0.280 HD
HETATM    8  C   UNL     1       6.182  30.651  56.960  1.00  0.00     0.255 C 
HETATM    9  C   UNL     1       5.685  31.266  58.268  1.00  0.00     0.159 C 
HETATM   10  N   UNL     1       8.555  31.836  60.346  1.00  0.00    -0.135 NA
HETATM   11  N   UNL     1       7.587  32.494  61.044  1.00  0.00    -0.133 NA
ENDROOT
BRANCH   6  12
HETATM   12  C   UNL     1       5.786  28.161  57.320  1.00  0.00     0.280 C 
BRANCH  12  13
HETATM   13  C   UNL     1       6.215  26.841  56.735  1.00  0.00     0.009 A 
HETATM   14  S   UNL     1       7.226  26.793  55.347  1.00  0.00    -0.096 SA
HETATM   15  C   UNL     1       7.202  25.080  55.284  1.00  0.00     0.009 A 
HETATM   16  C   UNL     1       6.464  24.555  56.327  1.00  0.00     0.017 A 
HETATM   17  C   UNL     1       5.909  25.565  57.170  1.00  0.00     0.017 A 
BRANCH  15  18
HETATM   18  C   UNL     1       7.904  24.344  54.177  1.00  0.00     0.280 C 
BRANCH  18  19
HETATM   19  N   UNL     1       7.854  22.834  54.302  1.00  0.00    -0.067 N 
HETATM   20  H   UNL     1       6.938  22.607  54.710  1.00  0.00     0.280 HD
HETATM   21  C   UNL     1       7.952  22.130  52.967  1.00  0.00     0.235 C 
HETATM   22  C   UNL     1       7.819  20.627  53.166  1.00  0.00     0.028 C 
HETATM   23  C   UNL     1       8.852  20.094  54.149  1.00  0.00     0.003 C 
HETATM   24  C   UNL     1       8.780  20.845  55.471  1.00  0.00     0.028 C 
HETATM   25  C   UNL     1       8.912  22.347  55.273  1.00  0.00     0.235 C 
ENDBRANCH  18  19
ENDBRANCH  15  18
ENDBRANCH  12  13
ENDBRANCH   6  12
BRANCH   1  26
HETATM   26  C   UNL     1       5.132  32.955  60.835  1.00  0.00     0.152 C 
HETATM   27  C   UNL     1       4.539  33.915  59.808  1.00  0.00     0.040 C 
BRANCH  26  28
HETATM   28  N   UNL     1       5.367  33.637  62.098  1.00  0.00    -0.349 N 
HETATM   29  C   UNL     1       5.140  33.027  63.306  1.00  0.00     0.222 C 
HETATM   30  O   UNL     1       4.582  31.935  63.392  1.00  0.00    -0.273 OA
HETATM   31  H   UNL     1       5.969  34.454  62.063  1.00  0.00     0.163 HD
BRANCH  29  32
HETATM   32  C   UNL     1       5.686  33.782  64.518  1.00  0.00     0.082 C 
HETATM   33  C   UNL     1       6.008  35.240  64.173  1.00  0.00     0.040 C 
HETATM   34  C   UNL     1       4.747  36.081  63.992  1.00  0.00     0.168 C 
HETATM   35  O   UNL     1       3.855  35.966  65.101  1.00  0.00    -0.391 OA
HETATM   36  C   UNL     1       3.474  34.620  65.380  1.00  0.00     0.168 C 
HETATM   37  C   UNL     1       4.687  33.747  65.679  1.00  0.00     0.040 C 
ENDBRANCH  29  32
ENDBRANCH  26  28
ENDBRANCH   1  26
TORSDOF 7
ENDMDL
MODEL 2
REMARK VINA RESULT:      -9.7      4.139     11.305
REMARK  7 active torsions:
REMARK  status: ('A' for Active; 'I' for Inactive)
REMARK    1  A    between atoms: C_2  and  N_3 
REMARK    2  A    between atoms: C_2  and  C_12 
REMARK       I    between atoms: N_3  and  C_4 
REMARK    3  A    between atoms: C_4  and  C_5 
REMARK    4  A    between atoms: N_17  and  C_19 
REMARK    5  A    between atoms: C_19  and  C_20 
REMARK    6  A    between atoms: C_22  and  C_23 
REMARK    7  A    between atoms: C_23  and  N_24 
ROOT
HETATM    1  C   UNL     1       7.853  29.011  55.609  1.00  0.00     0.152 A 
HETATM    2  N   UNL     1       8.421  29.400  56.805  1.00  0.00    -0.317 N 
HETATM    3  C   UNL     1       9.750  29.616  56.535  1.00  0.00     0.131 A 
HETATM    4  C   UNL     1      10.765  30.146  57.478  1.00  0.00     0.108 C 
HETATM    5  C   UNL     1      10.269  31.426  58.133  1.00  0.00     0.243 C 
HETATM    6  N   UNL     1       9.341  31.172  59.319  1.00  0.00    -0.065 N 
HETATM    7  H   UNL     1       9.960  31.085  60.136  1.00  0.00     0.280 HD
HETATM    8  C   UNL     1       8.556  29.861  59.298  1.00  0.00     0.255 C 
HETATM    9  C   UNL     1       7.713  29.648  58.041  1.00  0.00     0.159 C 
HETATM   10  N   UNL     1       9.973  29.373  55.266  1.00  0.00    -0.135 NA
HETATM   11  N   UNL     1       8.795  29.005  54.687  1.00  0.00    -0.133 NA
ENDROOT
BRANCH   6  12
HETATM   12  C   UNL     1       8.461  32.386  59.621  1.00  0.00     0.280 C 
BRANCH  12  13
HETATM   13  C   UNL     1       7.916  32.383  61.025  1.00  0.00     0.009 A 
HETATM   14  S   UNL     1       6.224  32.496  61.301  1.00  0.00    -0.096 SA
HETATM   15  C   UNL     1       6.416  32.490  63.004  1.00  0.00     0.009 A 
HETATM   16  C   UNL     1       7.747  32.367  63.354  1.00  0.00     0.017 A 
HETATM   17  C   UNL     1       8.607  32.290  62.217  1.00  0.00     0.017 A 
BRANCH  15  18
HETATM   18  C   UNL     1       5.225  32.635  63.910  1.00  0.00     0.280 C 
BRANCH  18  19
HETATM   19  N   UNL     1       5.130  33.977  64.608  1.00  0.00    -0.067 N 
HETATM   20  H   UNL     1       6.032  34.448  64.455  1.00  0.00     0.280 HD
HETATM   21  C   UNL     1       4.045  34.862  64.037  1.00  0.00     0.235 C 
HETATM   22  C   UNL     1       4.061  36.214  64.735  1.00  0.00     0.028 C 
HETATM   23  C   UNL     1       3.922  36.073  66.244  1.00  0.00     0.003 C 
HETATM   24  C   UNL     1       4.987  35.139  66.802  1.00  0.00     0.028 C 
HETATM   25  C   UNL     1       4.972  33.787  66.104  1.00  0.00     0.235 C 
ENDBRANCH  18  19
ENDBRANCH  15  18
ENDBRANCH  12  13
ENDBRANCH   6  12
BRANCH   1  26
HETATM   26  C   UNL     1       6.397  28.728  55.363  1.00  0.00     0.152 C 
HETATM   27  C   UNL     1       5.512  29.775  56.031  1.00  0.00     0.040 C 
BRANCH  26  28
HETATM   28  N   UNL     1       6.122  27.405  55.902  1.00  0.00    -0.349 N 
HETATM   29  C   UNL     1       6.269  26.269  55.147  1.00  0.00     0.222 C 
HETATM   30  O   UNL     1       6.490  26.310  53.938  1.00  0.00    -0.273 OA
HETATM   31  H   UNL     1       6.102  27.327  56.913  1.00  0.00     0.163 HD
BRANCH  29  32
HETATM   32  C   UNL     1       6.198  24.961  55.936  1.00  0.00     0.082 C 
HETATM   33  C   UNL     1       6.961  23.837  55.229  1.00  0.00     0.040 C 
HETATM   34  C   UNL     1       8.473  24.018  55.323  1.00  0.00     0.168 C 
HETATM   35  O   UNL     1       8.914  24.217  56.666  1.00  0.00    -0.391 OA
HETATM   36  C   UNL     1       8.277  25.319  57.310  1.00  0.00     0.168 C 
HETATM   37  C   UNL     1       6.764  25.145  57.348  1.00  0.00     0.040 C 
ENDBRANCH  29  32
ENDBRANCH  26  28
ENDBRANCH   1  26
TORSDOF 7
ENDMDL
MODEL 3
REMARK VINA RESULT:      -9.2      2.890      4.459
REMARK  7 active torsions:
REMARK  status: ('A' for Active; 'I' for Inactive)
REMARK    1  A    between atoms: C_2  and  N_3 
REMARK    2  A    between atoms: C_2  and  C_12 
REMARK       I    between atoms: N_3  and  C_4 
REMARK    3  A    between atoms: C_4  and  C_5 
REMARK    4  A    between atoms: N_17  and  C_19 
REMARK    5  A    between atoms: C_19  and  C_20 
REMARK    6  A    between atoms: C_22  and  C_23 
REMARK    7  A    between atoms: C_23  and  N_24 
ROOT
HETATM    1  C   UNL     1       6.597  30.690  57.489  1.00  0.00     0.152 A 
HETATM    2  N   UNL     1       5.704  29.998  56.694  1.00  0.00    -0.317 N 
HETATM    3  C   UNL     1       4.659  30.861  56.468  1.00  0.00     0.131 A 
HETATM    4  C   UNL     1       3.493  30.618  55.585  1.00  0.00     0.108 C 
HETATM    5  C   UNL     1       3.951  30.163  54.208  1.00  0.00     0.243 C 
HETATM    6  N   UNL     1       4.273  28.671  54.146  1.00  0.00    -0.065 N 
HETATM    7  H   UNL     1       3.382  28.209  53.918  1.00  0.00     0.280 HD
HETATM    8  C   UNL     1       4.714  28.017  55.455  1.00  0.00     0.255 C 
HETATM    9  C   UNL     1       5.914  28.687  56.125  1.00  0.00     0.159 C 
HETATM   10  N   UNL     1       4.900  31.994  57.083  1.00  0.00    -0.135 NA
HETATM   11  N   UNL     1       6.106  31.893  57.711  1.00  0.00    -0.133 NA
ENDROOT
BRANCH   6  12
HETATM   12  C   UNL     1       5.199  28.338  52.975  1.00  0.00     0.280 C 
BRANCH  12  13
HETATM   13  C   UNL     1       5.590  26.884  52.929  1.00  0.00     0.009 A 
HETATM   14  S   UNL     1       7.205  26.408  53.266  1.00  0.00    -0.096 SA
HETATM   15  C   UNL     1       6.870  24.754  52.968  1.00  0.00     0.009 A 
HETATM   16  C   UNL     1       5.538  24.566  52.652  1.00  0.00     0.017 A 
HETATM   17  C   UNL     1       4.799  25.788  52.644  1.00  0.00     0.017 A 
BRANCH  15  18
HETATM   18  C   UNL     1       7.963  23.724  53.040  1.00  0.00     0.280 C 
BRANCH  18  19
HETATM   19  N   UNL     1       7.830  22.752  54.195  1.00  0.00    -0.067 N 
HETATM   20  H   UNL     1       6.844  22.779  54.484  1.00  0.00     0.280 HD
HETATM   21  C   UNL     1       8.160  21.328  53.807  1.00  0.00     0.235 C 
HETATM   22  C   UNL     1       7.931  20.403  54.993  1.00  0.00     0.028 C 
HETATM   23  C   UNL     1       8.730  20.842  56.213  1.00  0.00     0.003 C 
HETATM   24  C   UNL     1       8.430  22.293  56.564  1.00  0.00     0.028 C 
HETATM   25  C   UNL     1       8.657  23.218  55.378  1.00  0.00     0.235 C 
ENDBRANCH  18  19
ENDBRANCH  15  18
ENDBRANCH  12  13
ENDBRANCH   6  12
BRANCH   1  26
HETATM   26  C   UNL     1       7.941  30.203  57.952  1.00  0.00     0.152 C 
HETATM   27  C   UNL     1       7.958  28.684  58.094  1.00  0.00     0.040 C 
BRANCH  26  28
HETATM   28  N   UNL     1       8.209  30.841  59.232  1.00  0.00    -0.349 N 
HETATM   29  C   UNL     1       9.168  31.812  59.372  1.00  0.00     0.222 C 
HETATM   30  O   UNL     1       9.957  32.087  58.470  1.00  0.00    -0.273 OA
HETATM   31  H   UNL     1       7.482  30.758  59.935  1.00  0.00     0.163 HD
BRANCH  29  32
HETATM   32  C   UNL     1       9.135  32.556  60.708  1.00  0.00     0.082 C 
HETATM   33  C   UNL     1       7.705  32.944  61.098  1.00  0.00     0.040 C 
HETATM   34  C   UNL     1       6.883  31.739  61.546  1.00  0.00     0.168 C 
HETATM   35  O   UNL     1       7.540  30.980  62.561  1.00  0.00    -0.391 OA
HETATM   36  C   UNL     1       8.839  30.534  62.178  1.00  0.00     0.168 C 
HETATM   37  C   UNL     1       9.749  31.704  61.823  1.00  0.00     0.040 C 
ENDBRANCH  29  32
ENDBRANCH  26  28
ENDBRANCH   1  26
TORSDOF 7
ENDMDL
MODEL 4
REMARK VINA RESULT:      -9.2      1.867      2.243
REMARK  7 active torsions:
REMARK  status: ('A' for Active; 'I' for Inactive)
REMARK    1  A    between atoms: C_2  and  N_3 
REMARK    2  A    between atoms: C_2  and  C_12 
REMARK       I    between atoms: N_3  and  C_4 
REMARK    3  A    between atoms: C_4  and  C_5 
REMARK    4  A    between atoms: N_17  and  C_19 
REMARK    5  A    between atoms: C_19  and  C_20 
REMARK    6  A    between atoms: C_22  and  C_23 
REMARK    7  A    between atoms: C_23  and  N_24 
ROOT
HETATM    1  C   UNL     1       3.922  33.359  58.918  1.00  0.00     0.152 A 
HETATM    2  N   UNL     1       3.976  32.305  58.028  1.00  0.00    -0.317 N 
HETATM    3  C   UNL     1       4.648  32.779  56.927  1.00  0.00     0.131 A 
HETATM    4  C   UNL     1       5.050  31.994  55.735  1.00  0.00     0.108 C 
HETATM    5  C   UNL     1       5.791  30.732  56.152  1.00  0.00     0.243 C 
HETATM    6  N   UNL     1       4.856  29.593  56.553  1.00  0.00    -0.065 N 
HETATM    7  H   UNL     1       4.648  29.090  55.679  1.00  0.00     0.280 HD
HETATM    8  C   UNL     1       3.484  29.998  57.090  1.00  0.00     0.255 C 
HETATM    9  C   UNL     1       3.528  30.955  58.282  1.00  0.00     0.159 C 
HETATM   10  N   UNL     1       4.975  34.032  57.134  1.00  0.00    -0.135 NA
HETATM   11  N   UNL     1       4.532  34.392  58.372  1.00  0.00    -0.133 NA
ENDROOT
BRANCH   6  12
HETATM   12  C   UNL     1       5.561  28.565  57.438  1.00  0.00     0.280 C 
BRANCH  12  13
HETATM   13  C   UNL     1       5.844  27.269  56.724  1.00  0.00     0.009 A 
HETATM   14  S   UNL     1       7.304  27.064  55.842  1.00  0.00    -0.096 SA
HETATM   15  C   UNL     1       6.870  25.489  55.324  1.00  0.00     0.009 A 
HETATM   16  C   UNL     1       5.647  25.115  55.847  1.00  0.00     0.017 A 
HETATM   17  C   UNL     1       5.065  26.131  56.663  1.00  0.00     0.017 A 
BRANCH  15  18
HETATM   18  C   UNL     1       7.764  24.713  54.398  1.00  0.00     0.280 C 
BRANCH  18  19
HETATM   19  N   UNL     1       7.542  23.214  54.427  1.00  0.00    -0.067 N 
HETATM   20  H   UNL     1       6.524  23.073  54.469  1.00  0.00     0.280 HD
HETATM   21  C   UNL     1       8.054  22.519  53.185  1.00  0.00     0.235 C 
HETATM   22  C   UNL     1       7.727  21.034  53.252  1.00  0.00     0.028 C 
HETATM   23  C   UNL     1       8.286  20.391  54.515  1.00  0.00     0.003 C 
HETATM   24  C   UNL     1       7.807  21.129  55.757  1.00  0.00     0.028 C 
HETATM   25  C   UNL     1       8.131  22.614  55.689  1.00  0.00     0.235 C 
ENDBRANCH  18  19
ENDBRANCH  15  18
ENDBRANCH  12  13
ENDBRANCH   6  12
BRANCH   1  26
HETATM   26  C   UNL     1       3.350  33.324  60.307  1.00  0.00     0.152 C 
HETATM   27  C   UNL     1       2.076  34.158  60.400  1.00  0.00     0.040 C 
BRANCH  26  28
HETATM   28  N   UNL     1       4.371  33.846  61.203  1.00  0.00    -0.349 N 
HETATM   29  C   UNL     1       4.807  33.140  62.295  1.00  0.00     0.222 C 
HETATM   30  O   UNL     1       4.258  32.105  62.668  1.00  0.00    -0.273 OA
HETATM   31  H   UNL     1       4.946  34.598  60.838  1.00  0.00     0.163 HD
BRANCH  29  32
HETATM   32  C   UNL     1       6.058  33.709  62.967  1.00  0.00     0.082 C 
HETATM   33  C   UNL     1       6.005  35.238  63.047  1.00  0.00     0.040 C 
HETATM   34  C   UNL     1       5.004  35.726  64.091  1.00  0.00     0.168 C 
HETATM   35  O   UNL     1       5.211  35.119  65.367  1.00  0.00    -0.391 OA
HETATM   36  C   UNL     1       5.173  33.693  65.324  1.00  0.00     0.168 C 
HETATM   37  C   UNL     1       6.229  33.135  64.378  1.00  0.00     0.040 C 
ENDBRANCH  29  32
ENDBRANCH  26  28
ENDBRANCH   1  26
TORSDOF 7
ENDMDL
MODEL 5
REMARK VINA RESULT:      -9.1      2.311      3.968
REMARK  7 active torsions:
REMARK  status: ('A' for Active; 'I' for Inactive)
REMARK    1  A    between atoms: C_2  and  N_3 
REMARK    2  A    between atoms: C_2  and  C_12 
REMARK       I    between atoms: N_3  and  C_4 
REMARK    3  A    between atoms: C_4  and  C_5 
REMARK    4  A    between atoms: N_17  and  C_19 
REMARK    5  A    between atoms: C_19  and  C_20 
REMARK    6  A    between atoms: C_22  and  C_23 
REMARK    7  A    between atoms: C_23  and  N_24 
ROOT
HETATM    1  C   UNL     1       3.554  33.416  59.272  1.00  0.00     0.152 A 
HETATM    2  N   UNL     1       3.692  32.457  58.289  1.00  0.00    -0.317 N 
HETATM    3  C   UNL     1       3.400  33.090  57.105  1.00  0.00     0.131 A 
HETATM    4  C   UNL     1       3.503  32.506  55.746  1.00  0.00     0.108 C 
HETATM    5  C   UNL     1       4.870  31.870  55.541  1.00  0.00     0.243 C 
HETATM    6  N   UNL     1       4.968  30.461  56.123  1.00  0.00    -0.065 N 
HETATM    7  H   UNL     1       4.648  29.833  55.373  1.00  0.00     0.280 HD
HETATM    8  C   UNL     1       4.044  30.146  57.299  1.00  0.00     0.255 C 
HETATM    9  C   UNL     1       4.173  31.108  58.480  1.00  0.00     0.159 C 
HETATM   10  N   UNL     1       3.104  34.343  57.353  1.00  0.00    -0.135 NA
HETATM   11  N   UNL     1       3.207  34.550  58.697  1.00  0.00    -0.133 NA
ENDROOT
BRANCH   6  12
HETATM   12  C   UNL     1       6.419  30.054  56.383  1.00  0.00     0.280 C 
BRANCH  12  13
HETATM   13  C   UNL     1       6.728  28.653  55.925  1.00  0.00     0.009 A 
HETATM   14  S   UNL     1       6.673  27.344  57.035  1.00  0.00    -0.096 SA
HETATM   15  C   UNL     1       7.167  26.207  55.851  1.00  0.00     0.009 A 
HETATM   16  C   UNL     1       7.336  26.814  54.621  1.00  0.00     0.017 A 
HETATM   17  C   UNL     1       7.070  28.216  54.660  1.00  0.00     0.017 A 
BRANCH  15  18
HETATM   18  C   UNL     1       7.387  24.765  56.216  1.00  0.00     0.280 C 
BRANCH  18  19
HETATM   19  N   UNL     1       8.013  23.931  55.116  1.00  0.00    -0.067 N 
HETATM   20  H   UNL     1       8.698  24.538  54.646  1.00  0.00     0.280 HD
HETATM   21  C   UNL     1       8.751  22.721  55.643  1.00  0.00     0.235 C 
HETATM   22  C   UNL     1       9.414  21.979  54.491  1.00  0.00     0.028 C 
HETATM   23  C   UNL     1       8.406  21.587  53.419  1.00  0.00     0.003 C 
HETATM   24  C   UNL     1       7.631  22.804  52.932  1.00  0.00     0.028 C 
HETATM   25  C   UNL     1       6.971  23.548  54.084  1.00  0.00     0.235 C 
ENDBRANCH  18  19
ENDBRANCH  15  18
ENDBRANCH  12  13
ENDBRANCH   6  12
BRANCH   1  26
HETATM   26  C   UNL     1       3.837  33.238  60.737  1.00  0.00     0.152 C 
HETATM   27  C   UNL     1       2.994  34.189  61.581  1.00  0.00     0.040 C 
BRANCH  26  28
HETATM   28  N   UNL     1       5.255  33.500  60.933  1.00  0.00    -0.349 N 
HETATM   29  C   UNL     1       6.014  32.767  61.811  1.00  0.00     0.222 C 
HETATM   30  O   UNL     1       5.514  31.959  62.591  1.00  0.00    -0.273 OA
HETATM   31  H   UNL     1       5.719  34.031  60.204  1.00  0.00     0.163 HD
BRANCH  29  32
HETATM   32  C   UNL     1       7.522  32.993  61.699  1.00  0.00     0.082 C 
HETATM   33  C   UNL     1       8.287  32.220  62.777  1.00  0.00     0.040 C 
HETATM   34  C   UNL     1       8.311  30.718  62.502  1.00  0.00     0.168 C 
HETATM   35  O   UNL     1       8.768  30.416  61.184  1.00  0.00    -0.391 OA
HETATM   36  C   UNL     1       8.007  31.059  60.163  1.00  0.00     0.168 C 
HETATM   37  C   UNL     1       8.035  32.574  60.317  1.00  0.00     0.040 C 
ENDBRANCH  29  32
ENDBRANCH  26  28
ENDBRANCH   1  26
TORSDOF 7
ENDMDL
MODEL 6
REMARK VINA RESULT:      -9.1      3.818     12.042
REMARK  7 active torsions:
REMARK  status: ('A' for Active; 'I' for Inactive)
REMARK    1  A    between atoms: C_2  and  N_3 
REMARK    2  A    between atoms: C_2  and  C_12 
REMARK       I    between atoms: N_3  and  C_4 
REMARK    3  A    between atoms: C_4  and  C_5 
REMARK    4  A    between atoms: N_17  and  C_19 
REMARK    5  A    between atoms: C_19  and  C_20 
REMARK    6  A    between atoms: C_22  and  C_23 
REMARK    7  A    between atoms: C_23  and  N_24 
ROOT
HETATM    1  C   UNL     1       7.195  29.124  57.429  1.00  0.00     0.152 A 
HETATM    2  N   UNL     1       7.241  30.280  58.182  1.00  0.00    -0.317 N 
HETATM    3  C   UNL     1       6.099  30.976  57.869  1.00  0.00     0.131 A 
HETATM    4  C   UNL     1       5.640  32.241  58.493  1.00  0.00     0.108 C 
HETATM    5  C   UNL     1       5.639  32.117  60.010  1.00  0.00     0.243 C 
HETATM    6  N   UNL     1       7.017  32.344  60.630  1.00  0.00    -0.065 N 
HETATM    7  H   UNL     1       7.080  33.359  60.789  1.00  0.00     0.280 HD
HETATM    8  C   UNL     1       8.221  32.024  59.745  1.00  0.00     0.255 C 
HETATM    9  C   UNL     1       8.233  30.602  59.183  1.00  0.00     0.159 C 
HETATM   10  N   UNL     1       5.411  30.292  56.987  1.00  0.00    -0.135 NA
HETATM   11  N   UNL     1       6.085  29.138  56.718  1.00  0.00    -0.133 NA
ENDROOT
BRANCH   6  12
HETATM   12  C   UNL     1       7.121  31.722  62.023  1.00  0.00     0.280 C 
BRANCH  12  13
HETATM   13  C   UNL     1       6.855  32.709  63.129  1.00  0.00     0.009 A 
HETATM   14  S   UNL     1       5.348  33.527  63.221  1.00  0.00    -0.096 SA
HETATM   15  C   UNL     1       5.827  34.433  64.595  1.00  0.00     0.009 A 
HETATM   16  C   UNL     1       7.103  34.089  64.996  1.00  0.00     0.017 A 
HETATM   17  C   UNL     1       7.688  33.087  64.164  1.00  0.00     0.017 A 
BRANCH  15  18
HETATM   18  C   UNL     1       4.910  35.466  65.191  1.00  0.00     0.280 C 
BRANCH  18  19
HETATM   19  N   UNL     1       4.723  36.702  64.335  1.00  0.00    -0.067 N 
HETATM   20  H   UNL     1       4.419  37.451  64.971  1.00  0.00     0.280 HD
HETATM   21  C   UNL     1       6.002  37.155  63.668  1.00  0.00     0.235 C 
HETATM   22  C   UNL     1       5.753  38.440  62.891  1.00  0.00     0.028 C 
HETATM   23  C   UNL     1       4.629  38.277  61.877  1.00  0.00     0.003 C 
HETATM   24  C   UNL     1       3.360  37.771  62.551  1.00  0.00     0.028 C 
HETATM   25  C   UNL     1       3.610  36.488  63.329  1.00  0.00     0.235 C 
ENDBRANCH  18  19
ENDBRANCH  15  18
ENDBRANCH  12  13
ENDBRANCH   6  12
BRANCH   1  26
HETATM   26  C   UNL     1       8.184  27.993  57.469  1.00  0.00     0.152 C 
HETATM   27  C   UNL     1       9.520  28.408  56.863  1.00  0.00     0.040 C 
BRANCH  26  28
HETATM   28  N   UNL     1       7.602  26.889  56.720  1.00  0.00    -0.349 N 
HETATM   29  C   UNL     1       7.790  25.582  57.092  1.00  0.00     0.222 C 
HETATM   30  O   UNL     1       8.579  25.260  57.977  1.00  0.00    -0.273 OA
HETATM   31  H   UNL     1       6.830  27.122  56.104  1.00  0.00     0.163 HD
BRANCH  29  32
HETATM   32  C   UNL     1       6.899  24.575  56.362  1.00  0.00     0.082 C 
HETATM   33  C   UNL     1       6.516  25.075  54.965  1.00  0.00     0.040 C 
HETATM   34  C   UNL     1       7.689  25.015  53.990  1.00  0.00     0.168 C 
HETATM   35  O   UNL     1       8.304  23.728  53.960  1.00  0.00    -0.391 OA
HETATM   36  C   UNL     1       8.749  23.287  55.242  1.00  0.00     0.168 C 
HETATM   37  C   UNL     1       7.598  23.217  56.238  1.00  0.00     0.040 C 
ENDBRANCH  29  32
ENDBRANCH  26  28
ENDBRANCH   1  26
TORSDOF 7
ENDMDL
MODEL 7
REMARK VINA RESULT:      -9.0      4.427     10.525
REMARK  7 active torsions:
REMARK  status: ('A' for Active; 'I' for Inactive)
REMARK    1  A    between atoms: C_2  and  N_3 
REMARK    2  A    between atoms: C_2  and  C_12 
REMARK       I    between atoms: N_3  and  C_4 
REMARK    3  A    between atoms: C_4  and  C_5 
REMARK    4  A    between atoms: N_17  and  C_19 
REMARK    5  A    between atoms: C_19  and  C_20 
REMARK    6  A    between atoms: C_22  and  C_23 
REMARK    7  A    between atoms: C_23  and  N_24 
ROOT
HETATM    1  C   UNL     1       7.769  29.059  55.597  1.00  0.00     0.152 A 
HETATM    2  N   UNL     1       8.356  29.405  56.797  1.00  0.00    -0.317 N 
HETATM    3  C   UNL     1       9.697  29.547  56.531  1.00  0.00     0.131 A 
HETATM    4  C   UNL     1      10.738  30.011  57.480  1.00  0.00     0.108 C 
HETATM    5  C   UNL     1      10.314  31.313  58.143  1.00  0.00     0.243 C 
HETATM    6  N   UNL     1       9.371  31.103  59.326  1.00  0.00    -0.065 N 
HETATM    7  H   UNL     1       9.982  30.975  60.143  1.00  0.00     0.280 HD
HETATM    8  C   UNL     1       8.513  29.839  59.293  1.00  0.00     0.255 C 
HETATM    9  C   UNL     1       7.661  29.684  58.033  1.00  0.00     0.159 C 
HETATM   10  N   UNL     1       9.908  29.302  55.260  1.00  0.00    -0.135 NA
HETATM   11  N   UNL     1       8.712  29.006  54.677  1.00  0.00    -0.133 NA
ENDROOT
BRANCH   6  12
HETATM   12  C   UNL     1       8.561  32.363  59.635  1.00  0.00     0.280 C 
BRANCH  12  13
HETATM   13  C   UNL     1       8.023  32.385  61.042  1.00  0.00     0.009 A 
HETATM   14  S   UNL     1       6.340  32.585  61.325  1.00  0.00    -0.096 SA
HETATM   15  C   UNL     1       6.538  32.566  63.027  1.00  0.00     0.009 A 
HETATM   16  C   UNL     1       7.862  32.374  63.371  1.00  0.00     0.017 A 
HETATM   17  C   UNL     1       8.713  32.255  62.231  1.00  0.00     0.017 A 
BRANCH  15  18
HETATM   18  C   UNL     1       5.359  32.770  63.939  1.00  0.00     0.280 C 
BRANCH  18  19
HETATM   19  N   UNL     1       5.393  34.067  64.721  1.00  0.00    -0.067 N 
HETATM   20  H   UNL     1       6.382  34.340  64.790  1.00  0.00     0.280 HD
HETATM   21  C   UNL     1       4.650  35.189  64.032  1.00  0.00     0.235 C 
HETATM   22  C   UNL     1       4.792  36.473  64.836  1.00  0.00     0.028 C 
HETATM   23  C   UNL     1       4.314  36.295  66.271  1.00  0.00     0.003 C 
HETATM   24  C   UNL     1       5.030  35.130  66.940  1.00  0.00     0.028 C 
HETATM   25  C   UNL     1       4.890  33.847  66.135  1.00  0.00     0.235 C 
ENDBRANCH  18  19
ENDBRANCH  15  18
ENDBRANCH  12  13
ENDBRANCH   6  12
BRANCH   1  26
HETATM   26  C   UNL     1       6.301  28.862  55.346  1.00  0.00     0.152 C 
HETATM   27  C   UNL     1       6.064  27.952  54.145  1.00  0.00     0.040 C 
BRANCH  26  28
HETATM   28  N   UNL     1       5.727  30.179  55.112  1.00  0.00    -0.349 N 
HETATM   29  C   UNL     1       4.806  30.731  55.967  1.00  0.00     0.222 C 
HETATM   30  O   UNL     1       4.299  30.090  56.885  1.00  0.00    -0.273 OA
HETATM   31  H   UNL     1       6.235  30.783  54.475  1.00  0.00     0.163 HD
BRANCH  29  32
HETATM   32  C   UNL     1       4.512  32.211  55.721  1.00  0.00     0.082 C 
HETATM   33  C   UNL     1       4.629  32.567  54.235  1.00  0.00     0.040 C 
HETATM   34  C   UNL     1       3.465  32.015  53.416  1.00  0.00     0.168 C 
HETATM   35  O   UNL     1       2.197  32.375  53.966  1.00  0.00    -0.391 OA
HETATM   36  C   UNL     1       2.037  31.969  55.324  1.00  0.00     0.168 C 
HETATM   37  C   UNL     1       3.110  32.579  56.218  1.00  0.00     0.040 C 
ENDBRANCH  29  32
ENDBRANCH  26  28
ENDBRANCH   1  26
TORSDOF 7
ENDMDL
MODEL 8
REMARK VINA RESULT:      -8.8      1.748      2.388
REMARK  7 active torsions:
REMARK  status: ('A' for Active; 'I' for Inactive)
REMARK    1  A    between atoms: C_2  and  N_3 
REMARK    2  A    between atoms: C_2  and  C_12 
REMARK       I    between atoms: N_3  and  C_4 
REMARK    3  A    between atoms: C_4  and  C_5 
REMARK    4  A    between atoms: N_17  and  C_19 
REMARK    5  A    between atoms: C_19  and  C_20 
REMARK    6  A    between atoms: C_22  and  C_23 
REMARK    7  A    between atoms: C_23  and  N_24 
ROOT
HETATM    1  C   UNL     1       5.998  32.189  58.788  1.00  0.00     0.152 A 
HETATM    2  N   UNL     1       6.521  31.196  57.985  1.00  0.00    -0.317 N 
HETATM    3  C   UNL     1       7.655  30.757  58.624  1.00  0.00     0.131 A 
HETATM    4  C   UNL     1       8.519  29.625  58.207  1.00  0.00     0.108 C 
HETATM    5  C   UNL     1       7.682  28.379  57.960  1.00  0.00     0.243 C 
HETATM    6  N   UNL     1       7.034  28.357  56.577  1.00  0.00    -0.065 N 
HETATM    7  H   UNL     1       7.730  27.921  55.957  1.00  0.00     0.280 HD
HETATM    8  C   UNL     1       6.757  29.716  55.936  1.00  0.00     0.255 C 
HETATM    9  C   UNL     1       5.909  30.658  56.791  1.00  0.00     0.159 C 
HETATM   10  N   UNL     1       7.810  31.437  59.735  1.00  0.00    -0.135 NA
HETATM   11  N   UNL     1       6.777  32.321  59.843  1.00  0.00    -0.133 NA
ENDROOT
BRANCH   6  12
HETATM   12  C   UNL     1       5.826  27.421  56.531  1.00  0.00     0.280 C 
BRANCH  12  13
HETATM   13  C   UNL     1       5.956  26.344  55.486  1.00  0.00     0.009 A 
HETATM   14  S   UNL     1       7.439  25.502  55.285  1.00  0.00    -0.096 SA
HETATM   15  C   UNL     1       6.834  24.575  53.976  1.00  0.00     0.009 A 
HETATM   16  C   UNL     1       5.511  24.880  53.722  1.00  0.00     0.017 A 
HETATM   17  C   UNL     1       5.001  25.885  54.599  1.00  0.00     0.017 A 
BRANCH  15  18
HETATM   18  C   UNL     1       7.722  23.604  53.248  1.00  0.00     0.280 C 
BRANCH  18  19
HETATM   19  N   UNL     1       8.286  22.501  54.120  1.00  0.00    -0.067 N 
HETATM   20  H   UNL     1       9.256  22.768  54.336  1.00  0.00     0.280 HD
HETATM   21  C   UNL     1       7.546  22.349  55.430  1.00  0.00     0.235 C 
HETATM   22  C   UNL     1       8.215  21.278  56.280  1.00  0.00     0.028 C 
HETATM   23  C   UNL     1       8.309  19.949  55.542  1.00  0.00     0.003 C 
HETATM   24  C   UNL     1       9.009  20.122  54.201  1.00  0.00     0.028 C 
HETATM   25  C   UNL     1       8.342  21.194  53.352  1.00  0.00     0.235 C 
ENDBRANCH  18  19
ENDBRANCH  15  18
ENDBRANCH  12  13
ENDBRANCH   6  12
BRANCH   1  26
HETATM   26  C   UNL     1       4.713  32.935  58.561  1.00  0.00     0.152 C 
HETATM   27  C   UNL     1       4.668  33.540  57.161  1.00  0.00     0.040 C 
BRANCH  26  28
HETATM   28  N   UNL     1       4.640  33.978  59.573  1.00  0.00    -0.349 N 
HETATM   29  C   UNL     1       3.466  34.288  60.212  1.00  0.00     0.222 C 
HETATM   30  O   UNL     1       2.386  33.817  59.861  1.00  0.00    -0.273 OA
HETATM   31  H   UNL     1       5.520  34.260  59.992  1.00  0.00     0.163 HD
BRANCH  29  32
HETATM   32  C   UNL     1       3.620  35.211  61.421  1.00  0.00     0.082 C 
HETATM   33  C   UNL     1       2.358  35.210  62.291  1.00  0.00     0.040 C 
HETATM   34  C   UNL     1       2.201  33.911  63.077  1.00  0.00     0.168 C 
HETATM   35  O   UNL     1       3.376  33.580  63.817  1.00  0.00    -0.391 OA
HETATM   36  C   UNL     1       4.546  33.488  63.006  1.00  0.00     0.168 C 
HETATM   37  C   UNL     1       4.822  34.796  62.275  1.00  0.00     0.040 C 
ENDBRANCH  29  32
ENDBRANCH  26  28
ENDBRANCH   1  26
TORSDOF 7
ENDMDL
MODEL 9
REMARK VINA RESULT:      -8.6      8.939     11.255
REMARK  7 active torsions:
REMARK  status: ('A' for Active; 'I' for Inactive)
REMARK    1  A    between atoms: C_2  and  N_3 
REMARK    2  A    between atoms: C_2  and  C_12 
REMARK       I    between atoms: N_3  and  C_4 
REMARK    3  A    between atoms: C_4  and  C_5 
REMARK    4  A    between atoms: N_17  and  C_19 
REMARK    5  A    between atoms: C_19  and  C_20 
REMARK    6  A    between atoms: C_22  and  C_23 
REMARK    7  A    between atoms: C_23  and  N_24 
ROOT
HETATM    1  C   UNL     1       3.359  30.709  48.024  1.00  0.00     0.152 A 
HETATM    2  N   UNL     1       3.345  29.653  48.912  1.00  0.00    -0.317 N 
HETATM    3  C   UNL     1       3.150  28.526  48.151  1.00  0.00     0.131 A 
HETATM    4  C   UNL     1       3.159  27.125  48.636  1.00  0.00     0.108 C 
HETATM    5  C   UNL     1       4.412  26.851  49.454  1.00  0.00     0.243 C 
HETATM    6  N   UNL     1       4.295  27.321  50.903  1.00  0.00    -0.065 N 
HETATM    7  H   UNL     1       3.881  26.529  51.414  1.00  0.00     0.280 HD
HETATM    8  C   UNL     1       3.337  28.482  51.165  1.00  0.00     0.255 C 
HETATM    9  C   UNL     1       3.615  29.732  50.330  1.00  0.00     0.159 C 
HETATM   10  N   UNL     1       3.050  28.874  46.891  1.00  0.00    -0.135 NA
HETATM   11  N   UNL     1       3.187  30.228  46.809  1.00  0.00    -0.133 NA
ENDROOT
BRANCH   6  12
HETATM   12  C   UNL     1       5.668  27.527  51.544  1.00  0.00     0.280 C 
BRANCH  12  13
HETATM   13  C   UNL     1       5.930  26.582  52.688  1.00  0.00     0.009 A 
HETATM   14  S   UNL     1       7.524  26.032  53.013  1.00  0.00    -0.096 SA
HETATM   15  C   UNL     1       7.008  25.036  54.309  1.00  0.00     0.009 A 
HETATM   16  C   UNL     1       5.646  25.151  54.511  1.00  0.00     0.017 A 
HETATM   17  C   UNL     1       5.029  26.050  53.590  1.00  0.00     0.017 A 
BRANCH  15  18
HETATM   18  C   UNL     1       7.989  24.167  55.046  1.00  0.00     0.280 C 
BRANCH  18  19
HETATM   19  N   UNL     1       7.837  22.684  54.773  1.00  0.00    -0.067 N 
HETATM   20  H   UNL     1       6.834  22.475  54.856  1.00  0.00     0.280 HD
HETATM   21  C   UNL     1       8.277  22.295  53.379  1.00  0.00     0.235 C 
HETATM   22  C   UNL     1       8.024  20.811  53.154  1.00  0.00     0.028 C 
HETATM   23  C   UNL     1       8.712  19.955  54.209  1.00  0.00     0.003 C 
HETATM   24  C   UNL     1       8.303  20.389  55.610  1.00  0.00     0.028 C 
HETATM   25  C   UNL     1       8.554  21.873  55.835  1.00  0.00     0.235 C 
ENDBRANCH  18  19
ENDBRANCH  15  18
ENDBRANCH  12  13
ENDBRANCH   6  12
BRANCH   1  26
HETATM   26  C   UNL     1       3.615  32.152  48.357  1.00  0.00     0.152 C 
HETATM   27  C   UNL     1       2.448  33.033  47.925  1.00  0.00     0.040 C 
BRANCH  26  28
HETATM   28  N   UNL     1       4.835  32.540  47.664  1.00  0.00    -0.349 N 
HETATM   29  C   UNL     1       5.743  33.404  48.223  1.00  0.00     0.222 C 
HETATM   30  O   UNL     1       5.510  34.017  49.263  1.00  0.00    -0.273 OA
HETATM   31  H   UNL     1       5.128  31.939  46.901  1.00  0.00     0.163 HD
BRANCH  29  32
HETATM   32  C   UNL     1       7.079  33.494  47.484  1.00  0.00     0.082 C 
HETATM   33  C   UNL     1       6.875  33.632  45.972  1.00  0.00     0.040 C 
HETATM   34  C   UNL     1       6.363  35.017  45.583  1.00  0.00     0.168 C 
HETATM   35  O   UNL     1       7.169  36.064  46.125  1.00  0.00    -0.391 OA
HETATM   36  C   UNL     1       7.294  36.001  47.544  1.00  0.00     0.168 C 
HETATM   37  C   UNL     1       7.905  34.679  47.992  1.00  0.00     0.040 C 
ENDBRANCH  29  32
ENDBRANCH  26  28
ENDBRANCH   1  26
TORSDOF 7
ENDMDL
MODEL 10
REMARK VINA RESULT:      -8.3      3.086      5.672
REMARK  7 active torsions:
REMARK  status: ('A' for Active; 'I' for Inactive)
REMARK    1  A    between atoms: C_2  and  N_3 
REMARK    2  A    between atoms: C_2  and  C_12 
REMARK       I    between atoms: N_3  and  C_4 
REMARK    3  A    between atoms: C_4  and  C_5 
REMARK    4  A    between atoms: N_17  and  C_19 
REMARK    5  A    between atoms: C_19  and  C_20 
REMARK    6  A    between atoms: C_22  and  C_23 
REMARK    7  A    between atoms: C_23  and  N_24 
ROOT
HETATM    1  C   UNL     1       3.719  34.661  63.420  1.00  0.00     0.152 A 
HETATM    2  N   UNL     1       4.328  33.591  62.796  1.00  0.00    -0.317 N 
HETATM    3  C   UNL     1       3.448  33.174  61.826  1.00  0.00     0.131 A 
HETATM    4  C   UNL     1       3.688  32.113  60.818  1.00  0.00     0.108 C 
HETATM    5  C   UNL     1       5.007  32.349  60.098  1.00  0.00     0.243 C 
HETATM    6  N   UNL     1       6.216  31.840  60.880  1.00  0.00    -0.065 N 
HETATM    7  H   UNL     1       6.327  30.856  60.600  1.00  0.00     0.280 HD
HETATM    8  C   UNL     1       6.067  31.785  62.400  1.00  0.00     0.255 C 
HETATM    9  C   UNL     1       5.669  33.113  63.045  1.00  0.00     0.159 C 
HETATM   10  N   UNL     1       2.382  33.936  61.861  1.00  0.00    -0.135 NA
HETATM   11  N   UNL     1       2.551  34.865  62.845  1.00  0.00    -0.133 NA
ENDROOT
BRANCH   6  12
HETATM   12  C   UNL     1       7.509  32.523  60.434  1.00  0.00     0.280 C 
BRANCH  12  13
HETATM   13  C   UNL     1       8.330  31.675  59.498  1.00  0.00     0.009 A 
HETATM   14  S   UNL     1       7.612  30.355  58.666  1.00  0.00    -0.096 SA
HETATM   15  C   UNL     1       9.091  29.907  57.924  1.00  0.00     0.009 A 
HETATM   16  C   UNL     1      10.106  30.774  58.279  1.00  0.00     0.017 A 
HETATM   17  C   UNL     1       9.666  31.798  59.171  1.00  0.00     0.017 A 
BRANCH  15  18
HETATM   18  C   UNL     1       9.169  28.693  57.041  1.00  0.00     0.280 C 
BRANCH  18  19
HETATM   19  N   UNL     1       7.879  27.903  56.949  1.00  0.00    -0.067 N 
HETATM   20  H   UNL     1       7.242  28.306  57.647  1.00  0.00     0.280 HD
HETATM   21  C   UNL     1       7.214  28.018  55.595  1.00  0.00     0.235 C 
HETATM   22  C   UNL     1       5.892  27.265  55.604  1.00  0.00     0.028 C 
HETATM   23  C   UNL     1       6.076  25.808  56.007  1.00  0.00     0.003 C 
HETATM   24  C   UNL     1       6.793  25.702  57.345  1.00  0.00     0.028 C 
HETATM   25  C   UNL     1       8.114  26.457  57.338  1.00  0.00     0.235 C 
ENDBRANCH  18  19
ENDBRANCH  15  18
ENDBRANCH  12  13
ENDBRANCH   6  12
BRANCH   1  26
HETATM   26  C   UNL     1       4.311  35.514  64.507  1.00  0.00     0.152 C 
HETATM   27  C   UNL     1       3.568  35.322  65.825  1.00  0.00     0.040 C 
BRANCH  26  28
HETATM   28  N   UNL     1       4.219  36.897  64.063  1.00  0.00    -0.349 N 
HETATM   29  C   UNL     1       5.266  37.532  63.445  1.00  0.00     0.222 C 
HETATM   30  O   UNL     1       6.385  37.028  63.371  1.00  0.00    -0.273 OA
HETATM   31  H   UNL     1       3.282  37.274  63.961  1.00  0.00     0.163 HD
BRANCH  29  32
HETATM   32  C   UNL     1       4.915  38.878  62.811  1.00  0.00     0.082 C 
HETATM   33  C   UNL     1       6.159  39.578  62.254  1.00  0.00     0.040 C 
HETATM   34  C   UNL     1       6.674  38.911  60.982  1.00  0.00     0.168 C 
HETATM   35  O   UNL     1       5.651  38.753  59.999  1.00  0.00    -0.391 OA
HETATM   36  C   UNL     1       4.521  38.023  60.476  1.00  0.00     0.168 C 
HETATM   37  C   UNL     1       3.890  38.701  61.686  1.00  0.00     0.040 C 
ENDBRANCH  29  32
ENDBRANCH  26  28
ENDBRANCH   1  26
TORSDOF 7
ENDMDL
