MODEL 1
REMARK VINA RESULT:      -9.0      0.000      0.000
REMARK  4 active torsions:
REMARK  status: ('A' for Active; 'I' for Inactive)
REMARK    1  A    between atoms: C_4  and  N_5 
REMARK    2  A    between atoms: N_5  and  C_6 
REMARK    3  A    between atoms: C_6  and  N_7 
REMARK       I    between atoms: N_7  and  C_8 
REMARK    4  A    between atoms: C_8  and  C_9 
ROOT
HETATM    1  N   UNL     1       6.981  26.355  53.691  1.00  0.00    -0.299 N 
HETATM    2  C   UNL     1       7.294  25.295  52.847  1.00  0.00     0.257 C 
HETATM    3  O   UNL     1       7.195  25.271  51.629  1.00  0.00    -0.267 OA
HETATM    4  H   UNL     1       6.875  26.116  54.674  1.00  0.00     0.171 HD
ENDROOT
BRANCH   1   5
HETATM    5  C   UNL     1       6.827  27.706  53.462  1.00  0.00     0.180 C 
HETATM    6  S   UNL     1       5.608  28.446  52.594  1.00  0.00    -0.040 SA
BRANCH   5   7
HETATM    7  N   UNL     1       7.803  28.518  53.991  1.00  0.00    -0.318 N 
HETATM    8  H   UNL     1       8.355  29.006  53.296  1.00  0.00     0.170 HD
BRANCH   7   9
HETATM    9  C   UNL     1       8.100  28.765  55.340  1.00  0.00     0.129 A 
HETATM   10  C   UNL     1       9.348  29.293  55.651  1.00  0.00     0.057 A 
HETATM   11  C   UNL     1       9.659  29.564  56.988  1.00  0.00    -0.057 A 
HETATM   12  C   UNL     1      10.995  30.121  57.378  1.00  0.00     0.048 C 
HETATM   13  C   UNL     1       8.703  29.292  57.965  1.00  0.00     0.026 A 
HETATM   14  C   UNL     1       7.488  28.762  57.569  1.00  0.00     0.119 A 
HETATM   15  N   UNL     1       7.173  28.484  56.285  1.00  0.00    -0.243 NA
ENDBRANCH   7   9
ENDBRANCH   5   7
ENDBRANCH   1   5
BRANCH   2  16
HETATM   16  C   UNL     1       7.673  24.057  53.578  1.00  0.00     0.033 A 
HETATM   17  C   UNL     1       7.835  22.867  52.863  1.00  0.00     0.023 A 
HETATM   18  C   UNL     1       8.144  21.681  53.540  1.00  0.00    -0.061 A 
HETATM   19  C   UNL     1       8.299  20.389  52.794  1.00  0.00     0.048 C 
HETATM   20  C   UNL     1       8.321  21.710  54.932  1.00  0.00     0.013 A 
HETATM   21  C   UNL     1       8.188  22.905  55.653  1.00  0.00    -0.061 A 
HETATM   22  C   UNL     1       8.397  22.940  57.138  1.00  0.00     0.048 C 
HETATM   23  C   UNL     1       7.858  24.079  54.967  1.00  0.00     0.023 A 
ENDBRANCH   2  16
TORSDOF 4
ENDMDL
MODEL 2
REMARK VINA RESULT:      -9.0      0.064      1.884
REMARK  4 active torsions:
REMARK  status: ('A' for Active; 'I' for Inactive)
REMARK    1  A    between atoms: C_4  and  N_5 
REMARK    2  A    between atoms: N_5  and  C_6 
REMARK    3  A    between atoms: C_6  and  N_7 
REMARK       I    between atoms: N_7  and  C_8 
REMARK    4  A    between atoms: C_8  and  C_9 
ROOT
HETATM    1  N   UNL     1       6.916  26.370  53.684  1.00  0.00    -0.299 N 
HETATM    2  C   UNL     1       7.221  25.314  52.833  1.00  0.00     0.257 C 
HETATM    3  O   UNL     1       7.116  25.297  51.615  1.00  0.00    -0.267 OA
HETATM    4  H   UNL     1       6.814  26.127  54.666  1.00  0.00     0.171 HD
ENDROOT
BRANCH   1   5
HETATM    5  C   UNL     1       6.765  27.723  53.463  1.00  0.00     0.180 C 
HETATM    6  S   UNL     1       5.534  28.472  52.617  1.00  0.00    -0.040 SA
BRANCH   5   7
HETATM    7  N   UNL     1       7.753  28.529  53.978  1.00  0.00    -0.318 N 
HETATM    8  H   UNL     1       8.295  29.017  53.276  1.00  0.00     0.170 HD
BRANCH   7   9
HETATM    9  C   UNL     1       8.073  28.769  55.323  1.00  0.00     0.129 A 
HETATM   10  C   UNL     1       9.336  29.269  55.617  1.00  0.00     0.057 A 
HETATM   11  C   UNL     1       9.672  29.533  56.950  1.00  0.00    -0.057 A 
HETATM   12  C   UNL     1      11.025  30.061  57.322  1.00  0.00     0.048 C 
HETATM   13  C   UNL     1       8.723  29.282  57.940  1.00  0.00     0.026 A 
HETATM   14  C   UNL     1       7.492  28.779  57.560  1.00  0.00     0.119 A 
HETATM   15  N   UNL     1       7.153  28.508  56.281  1.00  0.00    -0.243 NA
ENDBRANCH   7   9
ENDBRANCH   5   7
ENDBRANCH   1   5
BRANCH   2  16
HETATM   16  C   UNL     1       7.601  24.071  53.556  1.00  0.00     0.033 A 
HETATM   17  C   UNL     1       7.777  24.117  54.942  1.00  0.00     0.023 A 
HETATM   18  C   UNL     1       8.183  22.970  55.634  1.00  0.00    -0.061 A 
HETATM   19  C   UNL     1       8.401  23.005  57.118  1.00  0.00     0.048 C 
HETATM   20  C   UNL     1       8.374  21.773  54.927  1.00  0.00     0.013 A 
HETATM   21  C   UNL     1       8.172  21.711  53.542  1.00  0.00    -0.061 A 
HETATM   22  C   UNL     1       8.358  20.427  52.789  1.00  0.00     0.048 C 
HETATM   23  C   UNL     1       7.788  22.870  52.859  1.00  0.00     0.023 A 
ENDBRANCH   2  16
TORSDOF 4
ENDMDL
MODEL 3
REMARK VINA RESULT:      -8.8      2.338      3.158
REMARK  4 active torsions:
REMARK  status: ('A' for Active; 'I' for Inactive)
REMARK    1  A    between atoms: C_4  and  N_5 
REMARK    2  A    between atoms: N_5  and  C_6 
REMARK    3  A    between atoms: C_6  and  N_7 
REMARK       I    between atoms: N_7  and  C_8 
REMARK    4  A    between atoms: C_8  and  C_9 
ROOT
HETATM    1  N   UNL     1       7.182  26.630  56.406  1.00  0.00    -0.299 N 
HETATM    2  C   UNL     1       7.825  25.572  57.039  1.00  0.00     0.257 C 
HETATM    3  O   UNL     1       8.323  25.577  58.156  1.00  0.00    -0.267 OA
HETATM    4  H   UNL     1       7.066  26.534  55.400  1.00  0.00     0.171 HD
ENDROOT
BRANCH   1   5
HETATM    5  C   UNL     1       6.616  27.791  56.888  1.00  0.00     0.180 C 
HETATM    6  S   UNL     1       5.264  28.571  56.296  1.00  0.00    -0.040 SA
BRANCH   5   7
HETATM    7  N   UNL     1       7.258  28.373  57.957  1.00  0.00    -0.318 N 
HETATM    8  H   UNL     1       6.892  28.092  58.859  1.00  0.00     0.170 HD
BRANCH   7   9
HETATM    9  C   UNL     1       8.344  29.261  57.948  1.00  0.00     0.129 A 
HETATM   10  C   UNL     1       8.424  30.209  58.962  1.00  0.00     0.057 A 
HETATM   11  C   UNL     1       9.507  31.094  58.984  1.00  0.00    -0.057 A 
HETATM   12  C   UNL     1       9.634  32.143  60.047  1.00  0.00     0.048 C 
HETATM   13  C   UNL     1      10.472  30.993  57.983  1.00  0.00     0.026 A 
HETATM   14  C   UNL     1      10.312  30.025  57.008  1.00  0.00     0.119 A 
HETATM   15  N   UNL     1       9.268  29.168  56.965  1.00  0.00    -0.243 NA
ENDBRANCH   7   9
ENDBRANCH   5   7
ENDBRANCH   1   5
BRANCH   2  16
HETATM   16  C   UNL     1       7.988  24.379  56.166  1.00  0.00     0.033 A 
HETATM   17  C   UNL     1       7.842  24.523  54.784  1.00  0.00     0.023 A 
HETATM   18  C   UNL     1       7.943  23.404  53.950  1.00  0.00    -0.061 A 
HETATM   19  C   UNL     1       7.765  23.532  52.466  1.00  0.00     0.048 C 
HETATM   20  C   UNL     1       8.225  22.149  54.514  1.00  0.00     0.013 A 
HETATM   21  C   UNL     1       8.401  22.002  55.896  1.00  0.00    -0.061 A 
HETATM   22  C   UNL     1       8.722  20.665  56.497  1.00  0.00     0.048 C 
HETATM   23  C   UNL     1       8.277  23.125  56.721  1.00  0.00     0.023 A 
ENDBRANCH   2  16
TORSDOF 4
ENDMDL
MODEL 4
REMARK VINA RESULT:      -8.5      3.441      6.163
REMARK  4 active torsions:
REMARK  status: ('A' for Active; 'I' for Inactive)
REMARK    1  A    between atoms: C_4  and  N_5 
REMARK    2  A    between atoms: N_5  and  C_6 
REMARK    3  A    between atoms: C_6  and  N_7 
REMARK       I    between atoms: N_7  and  C_8 
REMARK    4  A    between atoms: C_8  and  C_9 
ROOT
HETATM    1  N   UNL     1       6.051  25.657  52.750  1.00  0.00    -0.299 N 
HETATM    2  C   UNL     1       7.387  25.275  52.693  1.00  0.00     0.257 C 
HETATM    3  O   UNL     1       8.267  25.780  52.011  1.00  0.00    -0.267 OA
HETATM    4  H   UNL     1       5.417  24.975  53.161  1.00  0.00     0.171 HD
ENDROOT
BRANCH   1   5
HETATM    5  C   UNL     1       5.405  26.823  52.396  1.00  0.00     0.180 C 
HETATM    6  S   UNL     1       4.175  27.584  53.230  1.00  0.00    -0.040 SA
BRANCH   5   7
HETATM    7  N   UNL     1       5.811  27.397  51.213  1.00  0.00    -0.318 N 
HETATM    8  H   UNL     1       6.689  27.896  51.278  1.00  0.00     0.170 HD
BRANCH   7   9
HETATM    9  C   UNL     1       5.183  27.354  49.959  1.00  0.00     0.129 A 
HETATM   10  C   UNL     1       4.464  26.212  49.625  1.00  0.00     0.057 A 
HETATM   11  C   UNL     1       3.814  26.154  48.387  1.00  0.00    -0.057 A 
HETATM   12  C   UNL     1       3.036  24.942  47.972  1.00  0.00     0.048 C 
HETATM   13  C   UNL     1       3.913  27.248  47.528  1.00  0.00     0.026 A 
HETATM   14  C   UNL     1       4.655  28.342  47.938  1.00  0.00     0.119 A 
HETATM   15  N   UNL     1       5.296  28.413  49.124  1.00  0.00    -0.243 NA
ENDBRANCH   7   9
ENDBRANCH   5   7
ENDBRANCH   1   5
BRANCH   2  16
HETATM   16  C   UNL     1       7.679  24.049  53.482  1.00  0.00     0.033 A 
HETATM   17  C   UNL     1       7.827  24.150  54.868  1.00  0.00     0.023 A 
HETATM   18  C   UNL     1       8.151  23.016  55.621  1.00  0.00    -0.061 A 
HETATM   19  C   UNL     1       8.338  23.108  57.107  1.00  0.00     0.048 C 
HETATM   20  C   UNL     1       8.290  21.778  54.975  1.00  0.00     0.013 A 
HETATM   21  C   UNL     1       8.116  21.663  53.589  1.00  0.00    -0.061 A 
HETATM   22  C   UNL     1       8.245  20.336  52.900  1.00  0.00     0.048 C 
HETATM   23  C   UNL     1       7.813  22.808  52.845  1.00  0.00     0.023 A 
ENDBRANCH   2  16
TORSDOF 4
ENDMDL
MODEL 5
REMARK VINA RESULT:      -8.3      3.373      5.853
REMARK  4 active torsions:
REMARK  status: ('A' for Active; 'I' for Inactive)
REMARK    1  A    between atoms: C_4  and  N_5 
REMARK    2  A    between atoms: N_5  and  C_6 
REMARK    3  A    between atoms: C_6  and  N_7 
REMARK       I    between atoms: N_7  and  C_8 
REMARK    4  A    between atoms: C_8  and  C_9 
ROOT
HETATM    1  N   UNL     1       5.894  25.759  52.882  1.00  0.00    -0.299 N 
HETATM    2  C   UNL     1       7.053  25.120  52.454  1.00  0.00     0.257 C 
HETATM    3  O   UNL     1       7.638  25.292  51.394  1.00  0.00    -0.267 OA
HETATM    4  H   UNL     1       5.409  25.313  53.657  1.00  0.00     0.171 HD
ENDROOT
BRANCH   1   5
HETATM    5  C   UNL     1       5.283  26.930  52.487  1.00  0.00     0.180 C 
HETATM    6  S   UNL     1       4.081  27.758  53.298  1.00  0.00    -0.040 SA
BRANCH   5   7
HETATM    7  N   UNL     1       5.700  27.449  51.284  1.00  0.00    -0.318 N 
HETATM    8  H   UNL     1       6.606  27.900  51.322  1.00  0.00     0.170 HD
BRANCH   7   9
HETATM    9  C   UNL     1       5.052  27.405  50.040  1.00  0.00     0.129 A 
HETATM   10  C   UNL     1       4.432  26.219  49.665  1.00  0.00     0.057 A 
HETATM   11  C   UNL     1       3.763  26.159  48.437  1.00  0.00    -0.057 A 
HETATM   12  C   UNL     1       3.090  24.900  47.979  1.00  0.00     0.048 C 
HETATM   13  C   UNL     1       3.743  27.295  47.630  1.00  0.00     0.026 A 
HETATM   14  C   UNL     1       4.390  28.433  48.078  1.00  0.00     0.119 A 
HETATM   15  N   UNL     1       5.049  28.508  49.255  1.00  0.00    -0.243 NA
ENDBRANCH   7   9
ENDBRANCH   5   7
ENDBRANCH   1   5
BRANCH   2  16
HETATM   16  C   UNL     1       7.507  24.048  53.379  1.00  0.00     0.033 A 
HETATM   17  C   UNL     1       7.727  22.763  52.876  1.00  0.00     0.023 A 
HETATM   18  C   UNL     1       8.106  21.730  53.740  1.00  0.00    -0.061 A 
HETATM   19  C   UNL     1       8.324  20.338  53.224  1.00  0.00     0.048 C 
HETATM   20  C   UNL     1       8.296  22.008  55.103  1.00  0.00     0.013 A 
HETATM   21  C   UNL     1       8.105  23.300  55.610  1.00  0.00    -0.061 A 
HETATM   22  C   UNL     1       8.327  23.602  57.063  1.00  0.00     0.048 C 
HETATM   23  C   UNL     1       7.705  24.319  54.739  1.00  0.00     0.023 A 
ENDBRANCH   2  16
TORSDOF 4
ENDMDL
MODEL 6
REMARK VINA RESULT:      -8.2      1.506      2.685
REMARK  4 active torsions:
REMARK  status: ('A' for Active; 'I' for Inactive)
REMARK    1  A    between atoms: C_4  and  N_5 
REMARK    2  A    between atoms: N_5  and  C_6 
REMARK    3  A    between atoms: C_6  and  N_7 
REMARK       I    between atoms: N_7  and  C_8 
REMARK    4  A    between atoms: C_8  and  C_9 
ROOT
HETATM    1  N   UNL     1       6.042  25.395  54.693  1.00  0.00    -0.299 N 
HETATM    2  C   UNL     1       7.223  24.978  54.089  1.00  0.00     0.257 C 
HETATM    3  O   UNL     1       7.905  25.609  53.294  1.00  0.00    -0.267 OA
HETATM    4  H   UNL     1       5.481  24.658  55.113  1.00  0.00     0.171 HD
ENDROOT
BRANCH   1   5
HETATM    5  C   UNL     1       5.489  26.644  54.880  1.00  0.00     0.180 C 
HETATM    6  S   UNL     1       4.748  27.598  53.727  1.00  0.00    -0.040 SA
BRANCH   5   7
HETATM    7  N   UNL     1       5.585  27.158  56.152  1.00  0.00    -0.318 N 
HETATM    8  H   UNL     1       4.798  26.934  56.748  1.00  0.00     0.170 HD
BRANCH   7   9
HETATM    9  C   UNL     1       6.626  27.913  56.714  1.00  0.00     0.129 A 
HETATM   10  C   UNL     1       6.297  29.076  57.400  1.00  0.00     0.057 A 
HETATM   11  C   UNL     1       7.316  29.834  57.985  1.00  0.00    -0.057 A 
HETATM   12  C   UNL     1       7.016  31.104  58.724  1.00  0.00     0.048 C 
HETATM   13  C   UNL     1       8.633  29.395  57.858  1.00  0.00     0.026 A 
HETATM   14  C   UNL     1       8.873  28.229  57.153  1.00  0.00     0.119 A 
HETATM   15  N   UNL     1       7.903  27.488  56.574  1.00  0.00    -0.243 NA
ENDBRANCH   7   9
ENDBRANCH   5   7
ENDBRANCH   1   5
BRANCH   2  16
HETATM   16  C   UNL     1       7.574  23.567  54.401  1.00  0.00     0.033 A 
HETATM   17  C   UNL     1       7.711  23.179  55.736  1.00  0.00     0.023 A 
HETATM   18  C   UNL     1       8.089  21.868  56.048  1.00  0.00    -0.061 A 
HETATM   19  C   UNL     1       8.265  21.438  57.475  1.00  0.00     0.048 C 
HETATM   20  C   UNL     1       8.291  20.946  55.010  1.00  0.00     0.013 A 
HETATM   21  C   UNL     1       8.128  21.319  53.669  1.00  0.00    -0.061 A 
HETATM   22  C   UNL     1       8.326  20.328  52.560  1.00  0.00     0.048 C 
HETATM   23  C   UNL     1       7.772  22.639  53.370  1.00  0.00     0.023 A 
ENDBRANCH   2  16
TORSDOF 4
ENDMDL
MODEL 7
REMARK VINA RESULT:      -8.1      3.410      5.033
REMARK  4 active torsions:
REMARK  status: ('A' for Active; 'I' for Inactive)
REMARK    1  A    between atoms: C_4  and  N_5 
REMARK    2  A    between atoms: N_5  and  C_6 
REMARK    3  A    between atoms: C_6  and  N_7 
REMARK       I    between atoms: N_7  and  C_8 
REMARK    4  A    between atoms: C_8  and  C_9 
ROOT
HETATM    1  N   UNL     1       5.867  25.451  53.749  1.00  0.00    -0.299 N 
HETATM    2  C   UNL     1       7.205  25.157  53.507  1.00  0.00     0.257 C 
HETATM    3  O   UNL     1       8.002  25.833  52.872  1.00  0.00    -0.267 OA
HETATM    4  H   UNL     1       5.296  24.669  54.062  1.00  0.00     0.171 HD
ENDROOT
BRANCH   1   5
HETATM    5  C   UNL     1       5.153  26.629  53.694  1.00  0.00     0.180 C 
HETATM    6  S   UNL     1       5.075  27.813  54.869  1.00  0.00    -0.040 SA
BRANCH   5   7
HETATM    7  N   UNL     1       4.411  26.827  52.553  1.00  0.00    -0.318 N 
HETATM    8  H   UNL     1       3.463  26.478  52.612  1.00  0.00     0.170 HD
BRANCH   7   9
HETATM    9  C   UNL     1       4.793  27.460  51.360  1.00  0.00     0.129 A 
HETATM   10  C   UNL     1       4.630  26.765  50.168  1.00  0.00     0.057 A 
HETATM   11  C   UNL     1       4.986  27.384  48.964  1.00  0.00    -0.057 A 
HETATM   12  C   UNL     1       4.843  26.673  47.652  1.00  0.00     0.048 C 
HETATM   13  C   UNL     1       5.495  28.681  49.004  1.00  0.00     0.026 A 
HETATM   14  C   UNL     1       5.629  29.298  50.235  1.00  0.00     0.119 A 
HETATM   15  N   UNL     1       5.300  28.714  51.408  1.00  0.00    -0.243 NA
ENDBRANCH   7   9
ENDBRANCH   5   7
ENDBRANCH   1   5
BRANCH   2  16
HETATM   16  C   UNL     1       7.608  23.814  54.001  1.00  0.00     0.033 A 
HETATM   17  C   UNL     1       7.808  22.782  53.081  1.00  0.00     0.023 A 
HETATM   18  C   UNL     1       8.140  21.499  53.530  1.00  0.00    -0.061 A 
HETATM   19  C   UNL     1       8.336  20.371  52.560  1.00  0.00     0.048 C 
HETATM   20  C   UNL     1       8.303  21.273  54.906  1.00  0.00     0.013 A 
HETATM   21  C   UNL     1       8.131  22.309  55.834  1.00  0.00    -0.061 A 
HETATM   22  C   UNL     1       8.324  22.073  57.303  1.00  0.00     0.048 C 
HETATM   23  C   UNL     1       7.779  23.582  55.373  1.00  0.00     0.023 A 
ENDBRANCH   2  16
TORSDOF 4
ENDMDL
MODEL 8
REMARK VINA RESULT:      -7.9      1.810      2.374
REMARK  4 active torsions:
REMARK  status: ('A' for Active; 'I' for Inactive)
REMARK    1  A    between atoms: C_4  and  N_5 
REMARK    2  A    between atoms: N_5  and  C_6 
REMARK    3  A    between atoms: C_6  and  N_7 
REMARK       I    between atoms: N_7  and  C_8 
REMARK    4  A    between atoms: C_8  and  C_9 
ROOT
HETATM    1  N   UNL     1       7.018  25.688  55.323  1.00  0.00    -0.299 N 
HETATM    2  C   UNL     1       6.766  24.789  54.292  1.00  0.00     0.257 C 
HETATM    3  O   UNL     1       6.078  24.983  53.300  1.00  0.00    -0.267 OA
HETATM    4  H   UNL     1       7.386  25.281  56.179  1.00  0.00     0.171 HD
ENDROOT
BRANCH   1   5
HETATM    5  C   UNL     1       6.911  27.061  55.401  1.00  0.00     0.180 C 
HETATM    6  S   UNL     1       7.397  28.174  54.256  1.00  0.00    -0.040 SA
BRANCH   5   7
HETATM    7  N   UNL     1       6.364  27.554  56.563  1.00  0.00    -0.318 N 
HETATM    8  H   UNL     1       5.582  27.014  56.912  1.00  0.00     0.170 HD
BRANCH   7   9
HETATM    9  C   UNL     1       6.766  28.668  57.315  1.00  0.00     0.129 A 
HETATM   10  C   UNL     1       5.983  29.815  57.257  1.00  0.00     0.057 A 
HETATM   11  C   UNL     1       6.355  30.932  58.013  1.00  0.00    -0.057 A 
HETATM   12  C   UNL     1       5.553  32.199  57.976  1.00  0.00     0.048 C 
HETATM   13  C   UNL     1       7.503  30.855  58.801  1.00  0.00     0.026 A 
HETATM   14  C   UNL     1       8.227  29.677  58.795  1.00  0.00     0.119 A 
HETATM   15  N   UNL     1       7.890  28.591  58.065  1.00  0.00    -0.243 NA
ENDBRANCH   7   9
ENDBRANCH   5   7
ENDBRANCH   1   5
BRANCH   2  16
HETATM   16  C   UNL     1       7.327  23.436  54.545  1.00  0.00     0.033 A 
HETATM   17  C   UNL     1       7.605  22.600  53.460  1.00  0.00     0.023 A 
HETATM   18  C   UNL     1       8.087  21.305  53.680  1.00  0.00    -0.061 A 
HETATM   19  C   UNL     1       8.368  20.384  52.529  1.00  0.00     0.048 C 
HETATM   20  C   UNL     1       8.321  20.872  54.995  1.00  0.00     0.013 A 
HETATM   21  C   UNL     1       8.072  21.714  56.087  1.00  0.00    -0.061 A 
HETATM   22  C   UNL     1       8.340  21.259  57.491  1.00  0.00     0.048 C 
HETATM   23  C   UNL     1       7.570  22.999  55.854  1.00  0.00     0.023 A 
ENDBRANCH   2  16
TORSDOF 4
ENDMDL
MODEL 9
REMARK VINA RESULT:      -7.9      2.301      7.359
REMARK  4 active torsions:
REMARK  status: ('A' for Active; 'I' for Inactive)
REMARK    1  A    between atoms: C_4  and  N_5 
REMARK    2  A    between atoms: N_5  and  C_6 
REMARK    3  A    between atoms: C_6  and  N_7 
REMARK       I    between atoms: N_7  and  C_8 
REMARK    4  A    between atoms: C_8  and  C_9 
ROOT
HETATM    1  N   UNL     1       6.710  26.631  55.650  1.00  0.00    -0.299 N 
HETATM    2  C   UNL     1       7.639  26.930  56.642  1.00  0.00     0.257 C 
HETATM    3  O   UNL     1       8.457  26.167  57.135  1.00  0.00    -0.267 OA
HETATM    4  H   UNL     1       5.948  27.298  55.548  1.00  0.00     0.171 HD
ENDROOT
BRANCH   1   5
HETATM    5  C   UNL     1       6.639  25.612  54.724  1.00  0.00     0.180 C 
HETATM    6  S   UNL     1       5.333  25.219  53.760  1.00  0.00    -0.040 SA
BRANCH   5   7
HETATM    7  N   UNL     1       7.763  24.828  54.609  1.00  0.00    -0.318 N 
HETATM    8  H   UNL     1       8.600  25.341  54.360  1.00  0.00     0.170 HD
BRANCH   7   9
HETATM    9  C   UNL     1       7.890  23.445  54.813  1.00  0.00     0.129 A 
HETATM   10  C   UNL     1       8.070  22.632  53.701  1.00  0.00     0.057 A 
HETATM   11  C   UNL     1       8.218  21.252  53.883  1.00  0.00    -0.057 A 
HETATM   12  C   UNL     1       8.402  20.329  52.716  1.00  0.00     0.048 C 
HETATM   13  C   UNL     1       8.178  20.740  55.179  1.00  0.00     0.026 A 
HETATM   14  C   UNL     1       7.989  21.621  56.229  1.00  0.00     0.119 A 
HETATM   15  N   UNL     1       7.835  22.954  56.073  1.00  0.00    -0.243 NA
ENDBRANCH   7   9
ENDBRANCH   5   7
ENDBRANCH   1   5
BRANCH   2  16
HETATM   16  C   UNL     1       7.488  28.303  57.191  1.00  0.00     0.033 A 
HETATM   17  C   UNL     1       8.621  28.981  57.648  1.00  0.00     0.023 A 
HETATM   18  C   UNL     1       8.493  30.255  58.214  1.00  0.00    -0.061 A 
HETATM   19  C   UNL     1       9.694  30.990  58.732  1.00  0.00     0.048 C 
HETATM   20  C   UNL     1       7.225  30.852  58.282  1.00  0.00     0.013 A 
HETATM   21  C   UNL     1       6.088  30.191  57.800  1.00  0.00    -0.061 A 
HETATM   22  C   UNL     1       4.735  30.837  57.856  1.00  0.00     0.048 C 
HETATM   23  C   UNL     1       6.226  28.909  57.257  1.00  0.00     0.023 A 
ENDBRANCH   2  16
TORSDOF 4
ENDMDL
MODEL 10
REMARK VINA RESULT:      -7.8      1.985      6.903
REMARK  4 active torsions:
REMARK  status: ('A' for Active; 'I' for Inactive)
REMARK    1  A    between atoms: C_4  and  N_5 
REMARK    2  A    between atoms: N_5  and  C_6 
REMARK    3  A    between atoms: C_6  and  N_7 
REMARK       I    between atoms: N_7  and  C_8 
REMARK    4  A    between atoms: C_8  and  C_9 
ROOT
HETATM    1  N   UNL     1       6.279  27.501  55.719  1.00  0.00    -0.299 N 
HETATM    2  C   UNL     1       7.051  27.253  56.849  1.00  0.00     0.257 C 
HETATM    3  O   UNL     1       7.085  26.220  57.503  1.00  0.00    -0.267 OA
HETATM    4  H   UNL     1       6.178  28.480  55.464  1.00  0.00     0.171 HD
ENDROOT
BRANCH   1   5
HETATM    5  C   UNL     1       5.647  26.661  54.827  1.00  0.00     0.180 C 
HETATM    6  S   UNL     1       4.742  27.106  53.496  1.00  0.00    -0.040 SA
BRANCH   5   7
HETATM    7  N   UNL     1       5.762  25.315  55.086  1.00  0.00    -0.318 N 
HETATM    8  H   UNL     1       5.095  24.967  55.764  1.00  0.00     0.170 HD
BRANCH   7   9
HETATM    9  C   UNL     1       6.651  24.388  54.520  1.00  0.00     0.129 A 
HETATM   10  C   UNL     1       7.062  23.313  55.300  1.00  0.00     0.057 A 
HETATM   11  C   UNL     1       7.933  22.366  54.751  1.00  0.00    -0.057 A 
HETATM   12  C   UNL     1       8.418  21.196  55.554  1.00  0.00     0.048 C 
HETATM   13  C   UNL     1       8.360  22.535  53.435  1.00  0.00     0.026 A 
HETATM   14  C   UNL     1       7.906  23.636  52.731  1.00  0.00     0.119 A 
HETATM   15  N   UNL     1       7.073  24.566  53.247  1.00  0.00    -0.243 NA
ENDBRANCH   7   9
ENDBRANCH   5   7
ENDBRANCH   1   5
BRANCH   2  16
HETATM   16  C   UNL     1       7.799  28.448  57.321  1.00  0.00     0.033 A 
HETATM   17  C   UNL     1       9.157  28.567  57.010  1.00  0.00     0.023 A 
HETATM   18  C   UNL     1       9.890  29.659  57.486  1.00  0.00    -0.061 A 
HETATM   19  C   UNL     1      11.354  29.793  57.183  1.00  0.00     0.048 C 
HETATM   20  C   UNL     1       9.240  30.645  58.245  1.00  0.00     0.013 A 
HETATM   21  C   UNL     1       7.874  30.548  58.538  1.00  0.00    -0.061 A 
HETATM   22  C   UNL     1       7.174  31.611  59.333  1.00  0.00     0.048 C 
HETATM   23  C   UNL     1       7.157  29.440  58.073  1.00  0.00     0.023 A 
ENDBRANCH   2  16
TORSDOF 4
ENDMDL
