MODEL 1
REMARK VINA RESULT:      -9.7      0.000      0.000
REMARK  8 active torsions:
REMARK  status: ('A' for Active; 'I' for Inactive)
REMARK    1  A    between atoms: C_4  and  C_5 
REMARK    2  A    between atoms: C_5  and  N_6 
REMARK    3  A    between atoms: C_11  and  C_12 
REMARK       I    between atoms: C_12  and  N_13 
REMARK    4  A    between atoms: C_15  and  N_16 
REMARK       I    between atoms: N_16  and  C_17 
REMARK    5  A    between atoms: C_17  and  C_18 
REMARK    6  A    between atoms: C_18  and  C_19 
REMARK    7  A    between atoms: C_19  and  S_20 
REMARK    8  A    between atoms: S_20  and  C_21 
ROOT
HETATM    1  N   UNL     1       8.520  31.837  61.107  1.00  0.00    -0.063 N 
HETATM    2  H   UNL     1       9.317  32.299  61.554  1.00  0.00     0.280 HD
HETATM    3  C   UNL     1       9.123  30.866  60.096  1.00  0.00     0.282 C 
HETATM    4  C   UNL     1       8.123  30.469  59.067  1.00  0.00     0.018 C 
HETATM    5  C   UNL     1       6.922  31.104  58.827  1.00  0.00    -0.023 C 
HETATM    6  C   UNL     1       6.146  30.417  57.815  1.00  0.00     0.073 C 
HETATM    7  C   UNL     1       6.914  29.435  57.199  1.00  0.00     0.093 C 
HETATM    8  S   UNL     1       8.394  29.183  58.005  1.00  0.00    -0.074 SA
HETATM    9  C   UNL     1       6.519  32.326  59.609  1.00  0.00     0.068 C 
HETATM   10  C   UNL     1       7.706  32.917  60.399  1.00  0.00     0.240 C 
ENDROOT
BRANCH   7  11
HETATM   11  N   UNL     1       6.612  28.743  56.034  1.00  0.00    -0.320 N 
HETATM   12  C   UNL     1       5.721  27.692  55.895  1.00  0.00     0.223 C 
HETATM   13  O   UNL     1       4.890  27.317  56.715  1.00  0.00    -0.273 OA
HETATM   14  H   UNL     1       7.133  29.013  55.203  1.00  0.00     0.169 HD
BRANCH  12  15
HETATM   15  C   UNL     1       5.841  26.995  54.551  1.00  0.00     0.113 C 
BRANCH  15  16
HETATM   16  C   UNL     1       7.288  26.796  54.118  1.00  0.00     0.088 C 
BRANCH  16  17
HETATM   17  S   UNL     1       7.409  25.542  52.790  1.00  0.00    -0.130 SA
BRANCH  17  18
HETATM   18  C   UNL     1       7.652  24.007  53.674  1.00  0.00     0.000 A 
HETATM   19  C   UNL     1       7.542  23.853  55.059  1.00  0.00     0.020 A 
HETATM   20  C   UNL     1       7.758  22.605  55.657  1.00  0.00     0.025 A 
HETATM   21  C   UNL     1       8.085  21.503  54.873  1.00  0.00     0.034 A 
HETATM   22 CL   UNL     1       8.348  19.973  55.610  1.00  0.00    -0.084 Cl
HETATM   23  C   UNL     1       8.200  21.638  53.493  1.00  0.00     0.025 A 
HETATM   24  C   UNL     1       7.986  22.885  52.899  1.00  0.00     0.020 A 
ENDBRANCH  17  18
ENDBRANCH  16  17
ENDBRANCH  15  16
ENDBRANCH  12  15
ENDBRANCH   7  11
BRANCH   6  25
HETATM   25  C   UNL     1       4.771  30.769  57.464  1.00  0.00     0.252 C 
HETATM   26  N   UNL     1       3.789  30.075  58.108  1.00  0.00    -0.366 N 
HETATM   27  H   UNL     1       3.970  29.534  58.944  1.00  0.00     0.159 HD
HETATM   28  H   UNL     1       2.842  30.413  57.983  1.00  0.00     0.159 HD
HETATM   29  O   UNL     1       4.495  31.690  56.704  1.00  0.00    -0.268 OA
ENDBRANCH   6  25
BRANCH   1  30
HETATM   30  C   UNL     1       7.740  31.177  62.223  1.00  0.00     0.273 C 
BRANCH  30  31
HETATM   31  C   UNL     1       7.061  32.121  63.175  1.00  0.00    -0.033 A 
HETATM   32  C   UNL     1       5.662  32.194  63.269  1.00  0.00     0.009 A 
HETATM   33  C   UNL     1       5.062  33.078  64.169  1.00  0.00     0.001 A 
HETATM   34  C   UNL     1       5.848  33.880  64.993  1.00  0.00     0.000 A 
HETATM   35  C   UNL     1       7.236  33.803  64.921  1.00  0.00     0.001 A 
HETATM   36  C   UNL     1       7.839  32.930  64.017  1.00  0.00     0.009 A 
ENDBRANCH  30  31
ENDBRANCH   1  30
TORSDOF 8
ENDMDL
MODEL 2
REMARK VINA RESULT:      -9.2      3.948     10.859
REMARK  8 active torsions:
REMARK  status: ('A' for Active; 'I' for Inactive)
REMARK    1  A    between atoms: C_4  and  C_5 
REMARK    2  A    between atoms: C_5  and  N_6 
REMARK    3  A    between atoms: C_11  and  C_12 
REMARK       I    between atoms: C_12  and  N_13 
REMARK    4  A    between atoms: C_15  and  N_16 
REMARK       I    between atoms: N_16  and  C_17 
REMARK    5  A    between atoms: C_17  and  C_18 
REMARK    6  A    between atoms: C_18  and  C_19 
REMARK    7  A    between atoms: C_19  and  S_20 
REMARK    8  A    between atoms: S_20  and  C_21 
ROOT
HETATM    1  N   UNL     1       6.109  26.497  54.331  1.00  0.00    -0.063 N 
HETATM    2  H   UNL     1       5.848  26.182  53.391  1.00  0.00     0.280 HD
HETATM    3  C   UNL     1       5.024  27.484  54.750  1.00  0.00     0.282 C 
HETATM    4  C   UNL     1       5.489  28.357  55.862  1.00  0.00     0.018 C 
HETATM    5  C   UNL     1       6.799  28.513  56.267  1.00  0.00    -0.023 C 
HETATM    6  C   UNL     1       6.901  29.370  57.429  1.00  0.00     0.073 C 
HETATM    7  C   UNL     1       5.680  29.984  57.689  1.00  0.00     0.093 C 
HETATM    8  S   UNL     1       4.424  29.331  56.741  1.00  0.00    -0.074 SA
HETATM    9  C   UNL     1       7.920  27.796  55.563  1.00  0.00     0.068 C 
HETATM   10  C   UNL     1       7.461  27.197  54.216  1.00  0.00     0.240 C 
ENDROOT
BRANCH   7  11
HETATM   11  N   UNL     1       5.442  31.045  58.551  1.00  0.00    -0.320 N 
HETATM   12  C   UNL     1       5.502  32.395  58.250  1.00  0.00     0.223 C 
HETATM   13  O   UNL     1       5.570  32.898  57.133  1.00  0.00    -0.273 OA
HETATM   14  H   UNL     1       5.242  30.802  59.519  1.00  0.00     0.169 HD
BRANCH  12  15
HETATM   15  C   UNL     1       5.458  33.276  59.486  1.00  0.00     0.113 C 
BRANCH  15  16
HETATM   16  C   UNL     1       6.005  32.579  60.725  1.00  0.00     0.088 C 
BRANCH  16  17
HETATM   17  S   UNL     1       4.691  32.336  61.976  1.00  0.00    -0.130 SA
BRANCH  17  18
HETATM   18  C   UNL     1       5.435  32.916  63.495  1.00  0.00     0.000 A 
HETATM   19  C   UNL     1       6.807  32.921  63.765  1.00  0.00     0.020 A 
HETATM   20  C   UNL     1       7.291  33.391  64.992  1.00  0.00     0.025 A 
HETATM   21  C   UNL     1       6.405  33.861  65.957  1.00  0.00     0.034 A 
HETATM   22 CL   UNL     1       7.003  34.439  67.461  1.00  0.00    -0.084 Cl
HETATM   23  C   UNL     1       5.037  33.862  65.706  1.00  0.00     0.025 A 
HETATM   24  C   UNL     1       4.557  33.391  64.482  1.00  0.00     0.020 A 
ENDBRANCH  17  18
ENDBRANCH  16  17
ENDBRANCH  15  16
ENDBRANCH  12  15
ENDBRANCH   7  11
BRANCH   6  25
HETATM   25  C   UNL     1       8.142  29.594  58.171  1.00  0.00     0.252 C 
HETATM   26  N   UNL     1       9.242  29.901  57.424  1.00  0.00    -0.366 N 
HETATM   27  H   UNL     1       9.173  30.201  56.460  1.00  0.00     0.159 HD
HETATM   28  H   UNL     1      10.063  30.202  57.935  1.00  0.00     0.159 HD
HETATM   29  O   UNL     1       8.192  29.596  59.395  1.00  0.00    -0.268 OA
ENDBRANCH   6  25
BRANCH   1  30
HETATM   30  C   UNL     1       6.185  25.249  55.183  1.00  0.00     0.273 C 
BRANCH  30  31
HETATM   31  C   UNL     1       7.124  24.187  54.680  1.00  0.00    -0.033 A 
HETATM   32  C   UNL     1       8.119  23.634  55.501  1.00  0.00     0.009 A 
HETATM   33  C   UNL     1       8.970  22.644  55.006  1.00  0.00     0.001 A 
HETATM   34  C   UNL     1       8.825  22.184  53.698  1.00  0.00     0.000 A 
HETATM   35  C   UNL     1       7.830  22.713  52.881  1.00  0.00     0.001 A 
HETATM   36  C   UNL     1       6.985  23.709  53.367  1.00  0.00     0.009 A 
ENDBRANCH  30  31
ENDBRANCH   1  30
TORSDOF 8
ENDMDL
MODEL 3
REMARK VINA RESULT:      -9.0      8.033     11.643
REMARK  8 active torsions:
REMARK  status: ('A' for Active; 'I' for Inactive)
REMARK    1  A    between atoms: C_4  and  C_5 
REMARK    2  A    between atoms: C_5  and  N_6 
REMARK    3  A    between atoms: C_11  and  C_12 
REMARK       I    between atoms: C_12  and  N_13 
REMARK    4  A    between atoms: C_15  and  N_16 
REMARK       I    between atoms: N_16  and  C_17 
REMARK    5  A    between atoms: C_17  and  C_18 
REMARK    6  A    between atoms: C_18  and  C_19 
REMARK    7  A    between atoms: C_19  and  S_20 
REMARK    8  A    between atoms: S_20  and  C_21 
ROOT
HETATM    1  N   UNL     1       5.992  25.660  53.695  1.00  0.00    -0.063 N 
HETATM    2  H   UNL     1       5.937  25.538  54.710  1.00  0.00     0.280 HD
HETATM    3  C   UNL     1       5.854  27.160  53.453  1.00  0.00     0.282 C 
HETATM    4  C   UNL     1       5.457  27.445  52.047  1.00  0.00     0.018 C 
HETATM    5  C   UNL     1       4.959  26.523  51.150  1.00  0.00    -0.023 C 
HETATM    6  C   UNL     1       4.750  27.108  49.841  1.00  0.00     0.073 C 
HETATM    7  C   UNL     1       4.895  28.490  49.899  1.00  0.00     0.093 C 
HETATM    8  S   UNL     1       5.525  29.004  51.396  1.00  0.00    -0.074 SA
HETATM    9  C   UNL     1       4.742  25.088  51.551  1.00  0.00     0.068 C 
HETATM   10  C   UNL     1       4.816  24.904  53.082  1.00  0.00     0.240 C 
ENDROOT
BRANCH   7  11
HETATM   11  N   UNL     1       4.537  29.411  48.925  1.00  0.00    -0.320 N 
HETATM   12  C   UNL     1       3.255  29.719  48.499  1.00  0.00     0.223 C 
HETATM   13  O   UNL     1       2.202  29.396  49.038  1.00  0.00    -0.273 OA
HETATM   14  H   UNL     1       5.302  29.880  48.445  1.00  0.00     0.169 HD
BRANCH  12  15
HETATM   15  C   UNL     1       3.243  30.562  47.236  1.00  0.00     0.113 C 
BRANCH  15  16
HETATM   16  C   UNL     1       4.566  30.513  46.482  1.00  0.00     0.088 C 
BRANCH  16  17
HETATM   17  S   UNL     1       4.765  31.981  45.408  1.00  0.00    -0.130 SA
BRANCH  17  18
HETATM   18  C   UNL     1       6.005  32.959  46.246  1.00  0.00     0.000 A 
HETATM   19  C   UNL     1       6.075  33.151  47.629  1.00  0.00     0.020 A 
HETATM   20  C   UNL     1       7.086  33.943  48.189  1.00  0.00     0.025 A 
HETATM   21  C   UNL     1       8.033  34.546  47.368  1.00  0.00     0.034 A 
HETATM   22 CL   UNL     1       9.273  35.516  48.058  1.00  0.00    -0.084 Cl
HETATM   23  C   UNL     1       7.978  34.368  45.990  1.00  0.00     0.025 A 
HETATM   24  C   UNL     1       6.968  33.579  45.434  1.00  0.00     0.020 A 
ENDBRANCH  17  18
ENDBRANCH  16  17
ENDBRANCH  15  16
ENDBRANCH  12  15
ENDBRANCH   7  11
BRANCH   6  25
HETATM   25  C   UNL     1       4.377  26.339  48.655  1.00  0.00     0.252 C 
HETATM   26  N   UNL     1       3.192  25.665  48.723  1.00  0.00    -0.366 N 
HETATM   27  H   UNL     1       2.496  25.869  49.429  1.00  0.00     0.159 HD
HETATM   28  H   UNL     1       2.856  25.256  47.859  1.00  0.00     0.159 HD
HETATM   29  O   UNL     1       5.032  26.355  47.620  1.00  0.00    -0.268 OA
ENDBRANCH   6  25
BRANCH   1  30
HETATM   30  C   UNL     1       7.324  25.077  53.276  1.00  0.00     0.273 C 
BRANCH  30  31
HETATM   31  C   UNL     1       7.571  23.662  53.720  1.00  0.00    -0.033 A 
HETATM   32  C   UNL     1       7.492  23.288  55.071  1.00  0.00     0.009 A 
HETATM   33  C   UNL     1       7.720  21.963  55.449  1.00  0.00     0.001 A 
HETATM   34  C   UNL     1       8.009  20.999  54.486  1.00  0.00     0.000 A 
HETATM   35  C   UNL     1       8.073  21.355  53.142  1.00  0.00     0.001 A 
HETATM   36  C   UNL     1       7.856  22.677  52.760  1.00  0.00     0.009 A 
ENDBRANCH  30  31
ENDBRANCH   1  30
TORSDOF 8
ENDMDL
MODEL 4
REMARK VINA RESULT:      -9.0      2.318      3.552
REMARK  8 active torsions:
REMARK  status: ('A' for Active; 'I' for Inactive)
REMARK    1  A    between atoms: C_4  and  C_5 
REMARK    2  A    between atoms: C_5  and  N_6 
REMARK    3  A    between atoms: C_11  and  C_12 
REMARK       I    between atoms: C_12  and  N_13 
REMARK    4  A    between atoms: C_15  and  N_16 
REMARK       I    between atoms: N_16  and  C_17 
REMARK    5  A    between atoms: C_17  and  C_18 
REMARK    6  A    between atoms: C_18  and  C_19 
REMARK    7  A    between atoms: C_19  and  S_20 
REMARK    8  A    between atoms: S_20  and  C_21 
ROOT
HETATM    1  N   UNL     1       6.963  33.592  63.624  1.00  0.00    -0.063 N 
HETATM    2  H   UNL     1       7.328  34.209  64.356  1.00  0.00     0.280 HD
HETATM    3  C   UNL     1       8.120  32.671  63.250  1.00  0.00     0.282 C 
HETATM    4  C   UNL     1       7.902  32.047  61.916  1.00  0.00     0.018 C 
HETATM    5  C   UNL     1       6.975  32.456  60.979  1.00  0.00    -0.023 C 
HETATM    6  C   UNL     1       6.963  31.585  59.822  1.00  0.00     0.073 C 
HETATM    7  C   UNL     1       8.039  30.705  59.866  1.00  0.00     0.093 C 
HETATM    8  S   UNL     1       8.845  30.756  61.366  1.00  0.00    -0.074 SA
HETATM    9  C   UNL     1       6.085  33.642  61.235  1.00  0.00     0.068 C 
HETATM   10  C   UNL     1       6.570  34.474  62.442  1.00  0.00     0.240 C 
ENDROOT
BRANCH   7  11
HETATM   11  N   UNL     1       8.504  29.898  58.837  1.00  0.00    -0.320 N 
HETATM   12  C   UNL     1       9.471  30.215  57.899  1.00  0.00     0.223 C 
HETATM   13  O   UNL     1      10.237  31.173  57.925  1.00  0.00    -0.273 OA
HETATM   14  H   UNL     1       8.054  28.990  58.739  1.00  0.00     0.169 HD
BRANCH  12  15
HETATM   15  C   UNL     1       9.536  29.214  56.759  1.00  0.00     0.113 C 
BRANCH  15  16
HETATM   16  C   UNL     1       8.512  28.095  56.900  1.00  0.00     0.088 C 
BRANCH  16  17
HETATM   17  S   UNL     1       7.280  28.157  55.547  1.00  0.00    -0.130 SA
BRANCH  17  18
HETATM   18  C   UNL     1       7.479  26.586  54.717  1.00  0.00     0.000 A 
HETATM   19  C   UNL     1       7.584  26.418  53.333  1.00  0.00     0.020 A 
HETATM   20  C   UNL     1       7.731  25.140  52.779  1.00  0.00     0.025 A 
HETATM   21  C   UNL     1       7.775  24.023  53.606  1.00  0.00     0.034 A 
HETATM   22 CL   UNL     1       7.958  22.456  52.923  1.00  0.00    -0.084 Cl
HETATM   23  C   UNL     1       7.671  24.170  54.985  1.00  0.00     0.025 A 
HETATM   24  C   UNL     1       7.522  25.447  55.535  1.00  0.00     0.020 A 
ENDBRANCH  17  18
ENDBRANCH  16  17
ENDBRANCH  15  16
ENDBRANCH  12  15
ENDBRANCH   7  11
BRANCH   6  25
HETATM   25  C   UNL     1       5.983  31.680  58.741  1.00  0.00     0.252 C 
HETATM   26  N   UNL     1       4.823  30.984  58.918  1.00  0.00    -0.366 N 
HETATM   27  H   UNL     1       4.539  30.629  59.822  1.00  0.00     0.159 HD
HETATM   28  H   UNL     1       4.084  31.163  58.249  1.00  0.00     0.159 HD
HETATM   29  O   UNL     1       6.139  32.406  57.766  1.00  0.00    -0.268 OA
ENDBRANCH   6  25
BRANCH   1  30
HETATM   30  C   UNL     1       5.770  32.886  64.230  1.00  0.00     0.273 C 
BRANCH  30  31
HETATM   31  C   UNL     1       4.933  33.725  65.156  1.00  0.00    -0.033 A 
HETATM   32  C   UNL     1       5.359  34.038  66.456  1.00  0.00     0.009 A 
HETATM   33  C   UNL     1       4.561  34.825  67.288  1.00  0.00     0.001 A 
HETATM   34  C   UNL     1       3.343  35.320  66.828  1.00  0.00     0.000 A 
HETATM   35  C   UNL     1       2.918  35.030  65.535  1.00  0.00     0.001 A 
HETATM   36  C   UNL     1       3.706  34.237  64.703  1.00  0.00     0.009 A 
ENDBRANCH  30  31
ENDBRANCH   1  30
TORSDOF 8
ENDMDL
MODEL 5
REMARK VINA RESULT:      -8.9      4.244     10.878
REMARK  8 active torsions:
REMARK  status: ('A' for Active; 'I' for Inactive)
REMARK    1  A    between atoms: C_4  and  C_5 
REMARK    2  A    between atoms: C_5  and  N_6 
REMARK    3  A    between atoms: C_11  and  C_12 
REMARK       I    between atoms: C_12  and  N_13 
REMARK    4  A    between atoms: C_15  and  N_16 
REMARK       I    between atoms: N_16  and  C_17 
REMARK    5  A    between atoms: C_17  and  C_18 
REMARK    6  A    between atoms: C_18  and  C_19 
REMARK    7  A    between atoms: C_19  and  S_20 
REMARK    8  A    between atoms: S_20  and  C_21 
ROOT
HETATM    1  N   UNL     1       5.113  27.025  54.753  1.00  0.00    -0.063 N 
HETATM    2  H   UNL     1       4.324  26.814  54.134  1.00  0.00     0.280 HD
HETATM    3  C   UNL     1       4.613  28.115  55.697  1.00  0.00     0.282 C 
HETATM    4  C   UNL     1       5.748  28.839  56.332  1.00  0.00     0.018 C 
HETATM    5  C   UNL     1       7.064  28.793  55.919  1.00  0.00    -0.023 C 
HETATM    6  C   UNL     1       7.930  29.545  56.802  1.00  0.00     0.073 C 
HETATM    7  C   UNL     1       7.175  30.295  57.699  1.00  0.00     0.093 C 
HETATM    8  S   UNL     1       5.523  29.882  57.644  1.00  0.00    -0.074 SA
HETATM    9  C   UNL     1       7.471  27.985  54.716  1.00  0.00     0.068 C 
HETATM   10  C   UNL     1       6.249  27.547  53.879  1.00  0.00     0.240 C 
ENDROOT
BRANCH   7  11
HETATM   11  N   UNL     1       7.625  31.315  58.524  1.00  0.00    -0.320 N 
HETATM   12  C   UNL     1       8.330  31.181  59.709  1.00  0.00     0.223 C 
HETATM   13  O   UNL     1       8.862  30.163  60.138  1.00  0.00    -0.273 OA
HETATM   14  H   UNL     1       7.374  32.262  58.248  1.00  0.00     0.169 HD
BRANCH  12  15
HETATM   15  C   UNL     1       8.420  32.480  60.490  1.00  0.00     0.113 C 
BRANCH  15  16
HETATM   16  C   UNL     1       7.090  32.885  61.114  1.00  0.00     0.088 C 
BRANCH  16  17
HETATM   17  S   UNL     1       6.582  31.693  62.407  1.00  0.00    -0.130 SA
BRANCH  17  18
HETATM   18  C   UNL     1       6.322  32.715  63.851  1.00  0.00     0.000 A 
HETATM   19  C   UNL     1       7.333  33.179  64.698  1.00  0.00     0.020 A 
HETATM   20  C   UNL     1       7.024  33.972  65.810  1.00  0.00     0.025 A 
HETATM   21  C   UNL     1       5.701  34.306  66.082  1.00  0.00     0.034 A 
HETATM   22 CL   UNL     1       5.325  35.280  67.447  1.00  0.00    -0.084 Cl
HETATM   23  C   UNL     1       4.682  33.852  65.251  1.00  0.00     0.025 A 
HETATM   24  C   UNL     1       4.993  33.060  64.143  1.00  0.00     0.020 A 
ENDBRANCH  17  18
ENDBRANCH  16  17
ENDBRANCH  15  16
ENDBRANCH  12  15
ENDBRANCH   7  11
BRANCH   6  25
HETATM   25  C   UNL     1       9.388  29.550  56.704  1.00  0.00     0.252 C 
HETATM   26  N   UNL     1      10.017  28.384  57.030  1.00  0.00    -0.366 N 
HETATM   27  H   UNL     1       9.522  27.504  57.095  1.00  0.00     0.159 HD
HETATM   28  H   UNL     1      11.008  28.333  56.822  1.00  0.00     0.159 HD
HETATM   29  O   UNL     1      10.021  30.506  56.272  1.00  0.00    -0.268 OA
ENDBRANCH   6  25
BRANCH   1  30
HETATM   30  C   UNL     1       5.470  25.721  55.433  1.00  0.00     0.273 C 
BRANCH  30  31
HETATM   31  C   UNL     1       6.369  24.813  54.643  1.00  0.00    -0.033 A 
HETATM   32  C   UNL     1       6.114  24.511  53.296  1.00  0.00     0.009 A 
HETATM   33  C   UNL     1       6.973  23.669  52.588  1.00  0.00     0.001 A 
HETATM   34  C   UNL     1       8.101  23.136  53.208  1.00  0.00     0.000 A 
HETATM   35  C   UNL     1       8.374  23.441  54.538  1.00  0.00     0.001 A 
HETATM   36  C   UNL     1       7.514  24.274  55.252  1.00  0.00     0.009 A 
ENDBRANCH  30  31
ENDBRANCH   1  30
TORSDOF 8
ENDMDL
MODEL 6
REMARK VINA RESULT:      -8.8      3.416      9.807
REMARK  8 active torsions:
REMARK  status: ('A' for Active; 'I' for Inactive)
REMARK    1  A    between atoms: C_4  and  C_5 
REMARK    2  A    between atoms: C_5  and  N_6 
REMARK    3  A    between atoms: C_11  and  C_12 
REMARK       I    between atoms: C_12  and  N_13 
REMARK    4  A    between atoms: C_15  and  N_16 
REMARK       I    between atoms: N_16  and  C_17 
REMARK    5  A    between atoms: C_17  and  C_18 
REMARK    6  A    between atoms: C_18  and  C_19 
REMARK    7  A    between atoms: C_19  and  S_20 
REMARK    8  A    between atoms: S_20  and  C_21 
ROOT
HETATM    1  N   UNL     1       7.494  24.458  57.060  1.00  0.00    -0.063 N 
HETATM    2  H   UNL     1       7.599  23.749  57.792  1.00  0.00     0.280 HD
HETATM    3  C   UNL     1       7.596  25.803  57.775  1.00  0.00     0.282 C 
HETATM    4  C   UNL     1       7.014  26.897  56.950  1.00  0.00     0.018 C 
HETATM    5  C   UNL     1       6.201  26.728  55.848  1.00  0.00    -0.023 C 
HETATM    6  C   UNL     1       5.875  27.993  55.224  1.00  0.00     0.073 C 
HETATM    7  C   UNL     1       6.282  29.051  56.031  1.00  0.00     0.093 C 
HETATM    8  S   UNL     1       7.252  28.527  57.329  1.00  0.00    -0.074 SA
HETATM    9  C   UNL     1       5.798  25.353  55.385  1.00  0.00     0.068 C 
HETATM   10  C   UNL     1       6.108  24.277  56.447  1.00  0.00     0.240 C 
ENDROOT
BRANCH   7  11
HETATM   11  N   UNL     1       5.932  30.388  55.899  1.00  0.00    -0.320 N 
HETATM   12  C   UNL     1       4.653  30.917  55.877  1.00  0.00     0.223 C 
HETATM   13  O   UNL     1       3.612  30.342  56.175  1.00  0.00    -0.273 OA
HETATM   14  H   UNL     1       6.700  31.042  55.763  1.00  0.00     0.169 HD
BRANCH  12  15
HETATM   15  C   UNL     1       4.627  32.372  55.444  1.00  0.00     0.113 C 
BRANCH  15  16
HETATM   16  C   UNL     1       5.029  33.327  56.561  1.00  0.00     0.088 C 
BRANCH  16  17
HETATM   17  S   UNL     1       4.039  33.025  58.071  1.00  0.00    -0.130 SA
BRANCH  17  18
HETATM   18  C   UNL     1       5.268  32.842  59.357  1.00  0.00     0.000 A 
HETATM   19  C   UNL     1       5.193  33.426  60.626  1.00  0.00     0.020 A 
HETATM   20  C   UNL     1       6.214  33.225  61.564  1.00  0.00     0.025 A 
HETATM   21  C   UNL     1       7.315  32.439  61.238  1.00  0.00     0.034 A 
HETATM   22 CL   UNL     1       8.565  32.194  62.392  1.00  0.00    -0.084 Cl
HETATM   23  C   UNL     1       7.406  31.852  59.981  1.00  0.00     0.025 A 
HETATM   24  C   UNL     1       6.387  32.055  59.046  1.00  0.00     0.020 A 
ENDBRANCH  17  18
ENDBRANCH  16  17
ENDBRANCH  15  16
ENDBRANCH  12  15
ENDBRANCH   7  11
BRANCH   6  25
HETATM   25  C   UNL     1       5.160  28.115  53.955  1.00  0.00     0.252 C 
HETATM   26  N   UNL     1       3.806  27.951  54.009  1.00  0.00    -0.366 N 
HETATM   27  H   UNL     1       3.292  27.989  54.880  1.00  0.00     0.159 HD
HETATM   28  H   UNL     1       3.291  28.181  53.167  1.00  0.00     0.159 HD
HETATM   29  O   UNL     1       5.713  28.434  52.909  1.00  0.00    -0.268 OA
ENDBRANCH   6  25
BRANCH   1  30
HETATM   30  C   UNL     1       8.598  24.194  56.060  1.00  0.00     0.273 C 
BRANCH  30  31
HETATM   31  C   UNL     1       8.477  22.903  55.300  1.00  0.00    -0.033 A 
HETATM   32  C   UNL     1       8.530  21.658  55.946  1.00  0.00     0.009 A 
HETATM   33  C   UNL     1       8.407  20.477  55.211  1.00  0.00     0.001 A 
HETATM   34  C   UNL     1       8.212  20.526  53.832  1.00  0.00     0.000 A 
HETATM   35  C   UNL     1       8.140  21.755  53.183  1.00  0.00     0.001 A 
HETATM   36  C   UNL     1       8.272  22.937  53.911  1.00  0.00     0.009 A 
ENDBRANCH  30  31
ENDBRANCH   1  30
TORSDOF 8
ENDMDL
MODEL 7
REMARK VINA RESULT:      -8.8      5.735     10.807
REMARK  8 active torsions:
REMARK  status: ('A' for Active; 'I' for Inactive)
REMARK    1  A    between atoms: C_4  and  C_5 
REMARK    2  A    between atoms: C_5  and  N_6 
REMARK    3  A    between atoms: C_11  and  C_12 
REMARK       I    between atoms: C_12  and  N_13 
REMARK    4  A    between atoms: C_15  and  N_16 
REMARK       I    between atoms: N_16  and  C_17 
REMARK    5  A    between atoms: C_17  and  C_18 
REMARK    6  A    between atoms: C_18  and  C_19 
REMARK    7  A    between atoms: C_19  and  S_20 
REMARK    8  A    between atoms: S_20  and  C_21 
ROOT
HETATM    1  N   UNL     1       3.511  28.395  48.258  1.00  0.00    -0.063 N 
HETATM    2  H   UNL     1       3.546  28.921  47.380  1.00  0.00     0.280 HD
HETATM    3  C   UNL     1       3.965  29.371  49.340  1.00  0.00     0.282 C 
HETATM    4  C   UNL     1       4.404  28.651  50.566  1.00  0.00     0.018 C 
HETATM    5  C   UNL     1       4.686  27.302  50.649  1.00  0.00    -0.023 C 
HETATM    6  C   UNL     1       5.005  26.904  52.004  1.00  0.00     0.073 C 
HETATM    7  C   UNL     1       5.160  28.024  52.815  1.00  0.00     0.093 C 
HETATM    8  S   UNL     1       4.667  29.454  52.030  1.00  0.00    -0.074 SA
HETATM    9  C   UNL     1       4.593  26.414  49.437  1.00  0.00     0.068 C 
HETATM   10  C   UNL     1       4.493  27.233  48.132  1.00  0.00     0.240 C 
ENDROOT
BRANCH   7  11
HETATM   11  N   UNL     1       5.701  28.065  54.092  1.00  0.00    -0.320 N 
HETATM   12  C   UNL     1       7.015  27.813  54.451  1.00  0.00     0.223 C 
HETATM   13  O   UNL     1       7.978  27.713  53.699  1.00  0.00    -0.273 OA
HETATM   14  H   UNL     1       5.051  28.262  54.850  1.00  0.00     0.169 HD
BRANCH  12  15
HETATM   15  C   UNL     1       7.198  27.675  55.952  1.00  0.00     0.113 C 
BRANCH  15  16
HETATM   16  C   UNL     1       6.756  26.315  56.477  1.00  0.00     0.088 C 
BRANCH  16  17
HETATM   17  S   UNL     1       8.171  25.394  57.186  1.00  0.00    -0.130 SA
BRANCH  17  18
HETATM   18  C   UNL     1       8.236  23.895  56.213  1.00  0.00     0.000 A 
HETATM   19  C   UNL     1       8.354  22.604  56.736  1.00  0.00     0.020 A 
HETATM   20  C   UNL     1       8.402  21.492  55.886  1.00  0.00     0.025 A 
HETATM   21  C   UNL     1       8.330  21.665  54.507  1.00  0.00     0.034 A 
HETATM   22 CL   UNL     1       8.388  20.298  53.467  1.00  0.00    -0.084 Cl
HETATM   23  C   UNL     1       8.214  22.942  53.969  1.00  0.00     0.025 A 
HETATM   24  C   UNL     1       8.168  24.050  54.820  1.00  0.00     0.020 A 
ENDBRANCH  17  18
ENDBRANCH  16  17
ENDBRANCH  15  16
ENDBRANCH  12  15
ENDBRANCH   7  11
BRANCH   6  25
HETATM   25  C   UNL     1       5.197  25.517  52.422  1.00  0.00     0.252 C 
HETATM   26  N   UNL     1       4.215  24.984  53.206  1.00  0.00    -0.366 N 
HETATM   27  H   UNL     1       3.303  25.413  53.295  1.00  0.00     0.159 HD
HETATM   28  H   UNL     1       4.264  23.986  53.374  1.00  0.00     0.159 HD
HETATM   29  O   UNL     1       6.131  24.828  52.031  1.00  0.00    -0.268 OA
ENDBRANCH   6  25
BRANCH   1  30
HETATM   30  C   UNL     1       2.082  27.919  48.403  1.00  0.00     0.273 C 
BRANCH  30  31
HETATM   31  C   UNL     1       1.162  28.308  47.279  1.00  0.00    -0.033 A 
HETATM   32  C   UNL     1       0.394  27.355  46.592  1.00  0.00     0.009 A 
HETATM   33  C   UNL     1      -0.458  27.750  45.558  1.00  0.00     0.001 A 
HETATM   34  C   UNL     1      -0.564  29.095  45.212  1.00  0.00     0.000 A 
HETATM   35  C   UNL     1       0.180  30.051  45.898  1.00  0.00     0.001 A 
HETATM   36  C   UNL     1       1.038  29.661  46.925  1.00  0.00     0.009 A 
ENDBRANCH  30  31
ENDBRANCH   1  30
TORSDOF 8
ENDMDL
MODEL 8
REMARK VINA RESULT:      -8.6      3.819     10.571
REMARK  8 active torsions:
REMARK  status: ('A' for Active; 'I' for Inactive)
REMARK    1  A    between atoms: C_4  and  C_5 
REMARK    2  A    between atoms: C_5  and  N_6 
REMARK    3  A    between atoms: C_11  and  C_12 
REMARK       I    between atoms: C_12  and  N_13 
REMARK    4  A    between atoms: C_15  and  N_16 
REMARK       I    between atoms: N_16  and  C_17 
REMARK    5  A    between atoms: C_17  and  C_18 
REMARK    6  A    between atoms: C_18  and  C_19 
REMARK    7  A    between atoms: C_19  and  S_20 
REMARK    8  A    between atoms: S_20  and  C_21 
ROOT
HETATM    1  N   UNL     1       7.096  25.349  56.901  1.00  0.00    -0.063 N 
HETATM    2  H   UNL     1       7.475  24.497  57.325  1.00  0.00     0.280 HD
HETATM    3  C   UNL     1       7.743  26.506  57.656  1.00  0.00     0.282 C 
HETATM    4  C   UNL     1       6.967  27.764  57.480  1.00  0.00     0.018 C 
HETATM    5  C   UNL     1       5.680  27.854  56.991  1.00  0.00    -0.023 C 
HETATM    6  C   UNL     1       5.248  29.230  56.869  1.00  0.00     0.073 C 
HETATM    7  C   UNL     1       6.159  30.082  57.486  1.00  0.00     0.093 C 
HETATM    8  S   UNL     1       7.588  29.270  57.933  1.00  0.00    -0.074 SA
HETATM    9  C   UNL     1       4.910  26.620  56.602  1.00  0.00     0.068 C 
HETATM   10  C   UNL     1       5.586  25.334  57.125  1.00  0.00     0.240 C 
ENDROOT
BRANCH   7  11
HETATM   11  N   UNL     1       5.978  31.423  57.792  1.00  0.00    -0.320 N 
HETATM   12  C   UNL     1       5.022  31.965  58.634  1.00  0.00     0.223 C 
HETATM   13  O   UNL     1       4.301  31.357  59.418  1.00  0.00    -0.273 OA
HETATM   14  H   UNL     1       6.589  32.081  57.312  1.00  0.00     0.169 HD
BRANCH  12  15
HETATM   15  C   UNL     1       4.932  33.477  58.525  1.00  0.00     0.113 C 
BRANCH  15  16
HETATM   16  C   UNL     1       3.649  34.035  59.129  1.00  0.00     0.088 C 
BRANCH  16  17
HETATM   17  S   UNL     1       3.991  35.533  60.125  1.00  0.00    -0.130 SA
BRANCH  17  18
HETATM   18  C   UNL     1       4.754  34.893  61.610  1.00  0.00     0.000 A 
HETATM   19  C   UNL     1       4.656  33.572  62.057  1.00  0.00     0.020 A 
HETATM   20  C   UNL     1       5.289  33.171  63.241  1.00  0.00     0.025 A 
HETATM   21  C   UNL     1       6.025  34.089  63.983  1.00  0.00     0.034 A 
HETATM   22 CL   UNL     1       6.802  33.593  65.434  1.00  0.00    -0.084 Cl
HETATM   23  C   UNL     1       6.133  35.408  63.554  1.00  0.00     0.025 A 
HETATM   24  C   UNL     1       5.499  35.806  62.374  1.00  0.00     0.020 A 
ENDBRANCH  17  18
ENDBRANCH  16  17
ENDBRANCH  15  16
ENDBRANCH  12  15
ENDBRANCH   7  11
BRANCH   6  25
HETATM   25  C   UNL     1       3.993  29.638  56.239  1.00  0.00     0.252 C 
HETATM   26  N   UNL     1       2.931  29.820  57.075  1.00  0.00    -0.366 N 
HETATM   27  H   UNL     1       3.043  29.915  58.077  1.00  0.00     0.159 HD
HETATM   28  H   UNL     1       2.105  30.244  56.669  1.00  0.00     0.159 HD
HETATM   29  O   UNL     1       3.903  29.891  55.043  1.00  0.00    -0.268 OA
ENDBRANCH   6  25
BRANCH   1  30
HETATM   30  C   UNL     1       7.455  25.279  55.433  1.00  0.00     0.273 C 
BRANCH  30  31
HETATM   31  C   UNL     1       7.626  23.891  54.881  1.00  0.00    -0.033 A 
HETATM   32  C   UNL     1       7.652  22.763  55.716  1.00  0.00     0.009 A 
HETATM   33  C   UNL     1       7.805  21.487  55.171  1.00  0.00     0.001 A 
HETATM   34  C   UNL     1       7.915  21.322  53.792  1.00  0.00     0.000 A 
HETATM   35  C   UNL     1       7.874  22.432  52.953  1.00  0.00     0.001 A 
HETATM   36  C   UNL     1       7.731  23.709  53.493  1.00  0.00     0.009 A 
ENDBRANCH  30  31
ENDBRANCH   1  30
TORSDOF 8
ENDMDL
MODEL 9
REMARK VINA RESULT:      -8.6      6.256      9.853
REMARK  8 active torsions:
REMARK  status: ('A' for Active; 'I' for Inactive)
REMARK    1  A    between atoms: C_4  and  C_5 
REMARK    2  A    between atoms: C_5  and  N_6 
REMARK    3  A    between atoms: C_11  and  C_12 
REMARK       I    between atoms: C_12  and  N_13 
REMARK    4  A    between atoms: C_15  and  N_16 
REMARK       I    between atoms: N_16  and  C_17 
REMARK    5  A    between atoms: C_17  and  C_18 
REMARK    6  A    between atoms: C_18  and  C_19 
REMARK    7  A    between atoms: C_19  and  S_20 
REMARK    8  A    between atoms: S_20  and  C_21 
ROOT
HETATM    1  N   UNL     1       7.621  24.937  53.543  1.00  0.00    -0.063 N 
HETATM    2  H   UNL     1       8.506  24.500  53.268  1.00  0.00     0.280 HD
HETATM    3  C   UNL     1       7.069  25.578  52.273  1.00  0.00     0.282 C 
HETATM    4  C   UNL     1       6.053  26.619  52.593  1.00  0.00     0.018 C 
HETATM    5  C   UNL     1       5.845  27.184  53.835  1.00  0.00    -0.023 C 
HETATM    6  C   UNL     1       4.727  28.104  53.824  1.00  0.00     0.073 C 
HETATM    7  C   UNL     1       4.305  28.339  52.519  1.00  0.00     0.093 C 
HETATM    8  S   UNL     1       5.048  27.283  51.408  1.00  0.00    -0.074 SA
HETATM    9  C   UNL     1       6.690  26.792  55.018  1.00  0.00     0.068 C 
HETATM   10  C   UNL     1       7.944  26.000  54.589  1.00  0.00     0.240 C 
ENDROOT
BRANCH   7  11
HETATM   11  N   UNL     1       3.438  29.333  52.086  1.00  0.00    -0.320 N 
HETATM   12  C   UNL     1       3.780  30.571  51.568  1.00  0.00     0.223 C 
HETATM   13  O   UNL     1       4.893  30.936  51.206  1.00  0.00    -0.273 OA
HETATM   14  H   UNL     1       2.445  29.144  52.199  1.00  0.00     0.169 HD
BRANCH  12  15
HETATM   15  C   UNL     1       2.591  31.509  51.455  1.00  0.00     0.113 C 
BRANCH  15  16
HETATM   16  C   UNL     1       1.572  31.046  50.422  1.00  0.00     0.088 C 
BRANCH  16  17
HETATM   17  S   UNL     1       2.303  31.022  48.743  1.00  0.00    -0.130 SA
BRANCH  17  18
HETATM   18  C   UNL     1       2.422  29.282  48.354  1.00  0.00     0.000 A 
HETATM   19  C   UNL     1       1.345  28.392  48.320  1.00  0.00     0.020 A 
HETATM   20  C   UNL     1       1.545  27.041  48.009  1.00  0.00     0.025 A 
HETATM   21  C   UNL     1       2.824  26.573  47.727  1.00  0.00     0.034 A 
HETATM   22 CL   UNL     1       3.066  24.915  47.344  1.00  0.00    -0.084 Cl
HETATM   23  C   UNL     1       3.908  27.443  47.757  1.00  0.00     0.025 A 
HETATM   24  C   UNL     1       3.706  28.791  48.070  1.00  0.00     0.020 A 
ENDBRANCH  17  18
ENDBRANCH  16  17
ENDBRANCH  15  16
ENDBRANCH  12  15
ENDBRANCH   7  11
BRANCH   6  25
HETATM   25  C   UNL     1       4.177  28.733  55.024  1.00  0.00     0.252 C 
HETATM   26  N   UNL     1       3.911  27.900  56.072  1.00  0.00    -0.366 N 
HETATM   27  H   UNL     1       4.289  26.963  56.125  1.00  0.00     0.159 HD
HETATM   28  H   UNL     1       3.674  28.344  56.951  1.00  0.00     0.159 HD
HETATM   29  O   UNL     1       4.038  29.945  55.133  1.00  0.00    -0.268 OA
ENDBRANCH   6  25
BRANCH   1  30
HETATM   30  C   UNL     1       6.765  23.824  54.107  1.00  0.00     0.273 C 
BRANCH  30  31
HETATM   31  C   UNL     1       7.459  22.500  54.265  1.00  0.00    -0.033 A 
HETATM   32  C   UNL     1       7.670  21.925  55.528  1.00  0.00     0.009 A 
HETATM   33  C   UNL     1       8.312  20.689  55.640  1.00  0.00     0.001 A 
HETATM   34  C   UNL     1       8.731  20.010  54.498  1.00  0.00     0.000 A 
HETATM   35  C   UNL     1       8.512  20.564  53.240  1.00  0.00     0.001 A 
HETATM   36  C   UNL     1       7.880  21.801  53.123  1.00  0.00     0.009 A 
ENDBRANCH  30  31
ENDBRANCH   1  30
TORSDOF 8
ENDMDL
MODEL 10
REMARK VINA RESULT:      -8.3      7.522     11.039
REMARK  8 active torsions:
REMARK  status: ('A' for Active; 'I' for Inactive)
REMARK    1  A    between atoms: C_4  and  C_5 
REMARK    2  A    between atoms: C_5  and  N_6 
REMARK    3  A    between atoms: C_11  and  C_12 
REMARK       I    between atoms: C_12  and  N_13 
REMARK    4  A    between atoms: C_15  and  N_16 
REMARK       I    between atoms: N_16  and  C_17 
REMARK    5  A    between atoms: C_17  and  C_18 
REMARK    6  A    between atoms: C_18  and  C_19 
REMARK    7  A    between atoms: C_19  and  S_20 
REMARK    8  A    between atoms: S_20  and  C_21 
ROOT
HETATM    1  N   UNL     1       5.939  25.096  54.209  1.00  0.00    -0.063 N 
HETATM    2  H   UNL     1       5.791  24.689  55.137  1.00  0.00     0.280 HD
HETATM    3  C   UNL     1       5.816  26.604  54.397  1.00  0.00     0.282 C 
HETATM    4  C   UNL     1       5.550  27.289  53.102  1.00  0.00     0.018 C 
HETATM    5  C   UNL     1       5.143  26.673  51.936  1.00  0.00    -0.023 C 
HETATM    6  C   UNL     1       5.054  27.613  50.837  1.00  0.00     0.073 C 
HETATM    7  C   UNL     1       5.184  28.917  51.303  1.00  0.00     0.093 C 
HETATM    8  S   UNL     1       5.668  28.967  52.935  1.00  0.00    -0.074 SA
HETATM    9  C   UNL     1       4.899  25.189  51.886  1.00  0.00     0.068 C 
HETATM   10  C   UNL     1       4.831  24.572  53.300  1.00  0.00     0.240 C 
ENDROOT
BRANCH   7  11
HETATM   11  N   UNL     1       4.912  30.086  50.606  1.00  0.00    -0.320 N 
HETATM   12  C   UNL     1       3.665  30.594  50.283  1.00  0.00     0.223 C 
HETATM   13  O   UNL     1       2.582  30.225  50.725  1.00  0.00    -0.273 OA
HETATM   14  H   UNL     1       5.718  30.603  50.261  1.00  0.00     0.169 HD
BRANCH  12  15
HETATM   15  C   UNL     1       3.736  31.736  49.285  1.00  0.00     0.113 C 
BRANCH  15  16
HETATM   16  C   UNL     1       4.764  31.494  48.187  1.00  0.00     0.088 C 
BRANCH  16  17
HETATM   17  S   UNL     1       4.020  31.722  46.529  1.00  0.00    -0.130 SA
BRANCH  17  18
HETATM   18  C   UNL     1       2.670  30.551  46.503  1.00  0.00     0.000 A 
HETATM   19  C   UNL     1       2.737  29.238  46.978  1.00  0.00     0.020 A 
HETATM   20  C   UNL     1       1.621  28.395  46.906  1.00  0.00     0.025 A 
HETATM   21  C   UNL     1       0.430  28.861  46.360  1.00  0.00     0.034 A 
HETATM   22 CL   UNL     1      -0.939  27.825  46.274  1.00  0.00    -0.084 Cl
HETATM   23  C   UNL     1       0.344  30.164  45.880  1.00  0.00     0.025 A 
HETATM   24  C   UNL     1       1.460  31.003  45.951  1.00  0.00     0.020 A 
ENDBRANCH  17  18
ENDBRANCH  16  17
ENDBRANCH  15  16
ENDBRANCH  12  15
ENDBRANCH   7  11
BRANCH   6  25
HETATM   25  C   UNL     1       4.798  27.224  49.451  1.00  0.00     0.252 C 
HETATM   26  N   UNL     1       3.709  26.428  49.241  1.00  0.00    -0.366 N 
HETATM   27  H   UNL     1       2.984  26.311  49.937  1.00  0.00     0.159 HD
HETATM   28  H   UNL     1       3.440  26.279  48.276  1.00  0.00     0.159 HD
HETATM   29  O   UNL     1       5.457  27.648  48.510  1.00  0.00    -0.268 OA
ENDBRANCH   6  25
BRANCH   1  30
HETATM   30  C   UNL     1       7.308  24.629  53.763  1.00  0.00     0.273 C 
BRANCH  30  31
HETATM   31  C   UNL     1       7.592  23.170  53.988  1.00  0.00    -0.033 A 
HETATM   32  C   UNL     1       7.536  22.597  55.268  1.00  0.00     0.009 A 
HETATM   33  C   UNL     1       7.798  21.236  55.443  1.00  0.00     0.001 A 
HETATM   34  C   UNL     1       8.098  20.434  54.344  1.00  0.00     0.000 A 
HETATM   35  C   UNL     1       8.139  20.988  53.068  1.00  0.00     0.001 A 
HETATM   36  C   UNL     1       7.888  22.347  52.890  1.00  0.00     0.009 A 
ENDBRANCH  30  31
ENDBRANCH   1  30
TORSDOF 8
ENDMDL
