MODEL 1
REMARK VINA RESULT:      -9.6      0.000      0.000
REMARK  7 active torsions:
REMARK  status: ('A' for Active; 'I' for Inactive)
REMARK    1  A    between atoms: C_2  and  C_3 
REMARK    2  A    between atoms: C_2  and  C_20 
REMARK    3  A    between atoms: C_3  and  C_4 
REMARK       I    between atoms: C_4  and  N_5 
REMARK    4  A    between atoms: N_5  and  C_6 
REMARK    5  A    between atoms: C_13  and  C_14 
REMARK       I    between atoms: C_14  and  N_15 
REMARK    6  A    between atoms: C_20  and  C_21 
REMARK    7  A    between atoms: C_22  and  O_23 
ROOT
HETATM    1  C   UNL     1       7.161  26.045  57.426  1.00  0.00     0.222 C 
HETATM    2  N   UNL     1       7.072  27.368  57.024  1.00  0.00    -0.327 N 
HETATM    3  O   UNL     1       8.048  25.549  58.109  1.00  0.00    -0.273 OA
HETATM    4  H   UNL     1       6.303  27.601  56.410  1.00  0.00     0.169 HD
ENDROOT
BRANCH   2   5
HETATM    5  C   UNL     1       7.906  28.445  57.391  1.00  0.00     0.035 A 
HETATM    6  C   UNL     1       7.612  29.349  58.420  1.00  0.00     0.046 A 
HETATM    7  C   UNL     1       8.507  30.410  58.692  1.00  0.00     0.030 A 
HETATM    8  C   UNL     1       9.659  30.528  57.925  1.00  0.00     0.063 A 
HETATM    9  C   UNL     1       8.568  31.496  59.618  1.00  0.00     0.156 A 
HETATM   10  N   UNL     1      10.307  31.629  58.410  1.00  0.00    -0.277 N 
HETATM   11  C   UNL     1       9.985  29.645  56.895  1.00  0.00     0.034 A 
HETATM   12  H   UNL     1      11.185  32.017  58.084  1.00  0.00     0.189 HD
HETATM   13  N   UNL     1       9.683  32.238  59.430  1.00  0.00    -0.168 NA
HETATM   14  C   UNL     1       9.085  28.602  56.648  1.00  0.00     0.032 A 
BRANCH   9  15
HETATM   15  C   UNL     1       7.597  31.839  60.668  1.00  0.00     0.270 C 
HETATM   16  N   UNL     1       7.551  30.938  61.698  1.00  0.00    -0.365 N 
HETATM   17  H   UNL     1       8.160  30.130  61.664  1.00  0.00     0.159 HD
HETATM   18  H   UNL     1       6.909  31.086  62.461  1.00  0.00     0.159 HD
HETATM   19  O   UNL     1       6.877  32.828  60.658  1.00  0.00    -0.266 OA
ENDBRANCH   9  15
ENDBRANCH   2   5
BRANCH   1  20
HETATM   20  C   UNL     1       6.007  25.211  56.880  1.00  0.00     0.107 C 
BRANCH  20  21
HETATM   21  C   UNL     1       6.171  24.846  55.395  1.00  0.00    -0.006 C 
HETATM   22  C   UNL     1       5.707  25.952  54.441  1.00  0.00     0.011 C 
BRANCH  21  23
HETATM   23  C   UNL     1       7.589  24.320  55.062  1.00  0.00     0.046 C 
BRANCH  23  24
HETATM   24  C   UNL     1       7.863  22.917  54.542  1.00  0.00    -0.024 A 
HETATM   25  C   UNL     1       8.259  21.923  55.471  1.00  0.00     0.074 A 
HETATM   26  C   UNL     1       8.541  20.620  55.041  1.00  0.00     0.037 A 
HETATM   27  C   UNL     1       8.412  20.278  53.697  1.00  0.00     0.003 A 
HETATM   28  C   UNL     1       7.997  21.233  52.779  1.00  0.00     0.001 A 
HETATM   29  C   UNL     1       7.722  22.538  53.199  1.00  0.00     0.010 A 
BRANCH  25  30
HETATM   30  O   UNL     1       8.360  22.332  56.778  1.00  0.00    -0.355 OA
HETATM   31  C   UNL     1       8.413  21.315  57.772  1.00  0.00     0.210 C 
ENDBRANCH  25  30
ENDBRANCH  23  24
ENDBRANCH  21  23
ENDBRANCH  20  21
ENDBRANCH   1  20
TORSDOF 7
ENDMDL
MODEL 2
REMARK VINA RESULT:      -9.3      2.005      2.319
REMARK  7 active torsions:
REMARK  status: ('A' for Active; 'I' for Inactive)
REMARK    1  A    between atoms: C_2  and  C_3 
REMARK    2  A    between atoms: C_2  and  C_20 
REMARK    3  A    between atoms: C_3  and  C_4 
REMARK       I    between atoms: C_4  and  N_5 
REMARK    4  A    between atoms: N_5  and  C_6 
REMARK    5  A    between atoms: C_13  and  C_14 
REMARK       I    between atoms: C_14  and  N_15 
REMARK    6  A    between atoms: C_20  and  C_21 
REMARK    7  A    between atoms: C_22  and  O_23 
ROOT
HETATM    1  C   UNL     1       5.886  26.999  54.345  1.00  0.00     0.222 C 
HETATM    2  N   UNL     1       6.213  26.977  55.691  1.00  0.00    -0.327 N 
HETATM    3  O   UNL     1       6.101  27.911  53.557  1.00  0.00    -0.273 OA
HETATM    4  H   UNL     1       5.909  26.167  56.216  1.00  0.00     0.169 HD
ENDROOT
BRANCH   2   5
HETATM    5  C   UNL     1       6.949  27.934  56.421  1.00  0.00     0.035 A 
HETATM    6  C   UNL     1       6.398  29.107  56.956  1.00  0.00     0.046 A 
HETATM    7  C   UNL     1       7.230  30.013  57.652  1.00  0.00     0.030 A 
HETATM    8  C   UNL     1       8.581  29.716  57.785  1.00  0.00     0.063 A 
HETATM    9  C   UNL     1       7.061  31.264  58.319  1.00  0.00     0.156 A 
HETATM   10  N   UNL     1       9.115  30.761  58.485  1.00  0.00    -0.277 N 
HETATM   11  C   UNL     1       9.163  28.558  57.268  1.00  0.00     0.034 A 
HETATM   12  H   UNL     1      10.083  30.882  58.763  1.00  0.00     0.189 HD
HETATM   13  N   UNL     1       8.233  31.712  58.827  1.00  0.00    -0.168 NA
HETATM   14  C   UNL     1       8.317  27.675  56.586  1.00  0.00     0.032 A 
BRANCH   9  15
HETATM   15  C   UNL     1       5.820  32.036  58.483  1.00  0.00     0.270 C 
HETATM   16  N   UNL     1       4.954  31.507  59.402  1.00  0.00    -0.365 N 
HETATM   17  H   UNL     1       5.216  30.655  59.882  1.00  0.00     0.159 HD
HETATM   18  H   UNL     1       4.073  31.964  59.577  1.00  0.00     0.159 HD
HETATM   19  O   UNL     1       5.548  33.061  57.872  1.00  0.00    -0.266 OA
ENDBRANCH   9  15
ENDBRANCH   2   5
BRANCH   1  20
HETATM   20  C   UNL     1       5.161  25.726  53.920  1.00  0.00     0.107 C 
BRANCH  20  21
HETATM   21  C   UNL     1       5.906  24.940  52.827  1.00  0.00    -0.006 C 
HETATM   22  C   UNL     1       5.949  25.666  51.478  1.00  0.00     0.011 C 
BRANCH  21  23
HETATM   23  C   UNL     1       7.299  24.447  53.289  1.00  0.00     0.046 C 
BRANCH  23  24
HETATM   24  C   UNL     1       7.569  23.030  53.773  1.00  0.00    -0.024 A 
HETATM   25  C   UNL     1       7.542  22.781  55.167  1.00  0.00     0.074 A 
HETATM   26  C   UNL     1       7.802  21.498  55.666  1.00  0.00     0.037 A 
HETATM   27  C   UNL     1       8.067  20.444  54.795  1.00  0.00     0.003 A 
HETATM   28  C   UNL     1       8.069  20.666  53.425  1.00  0.00     0.001 A 
HETATM   29  C   UNL     1       7.819  21.945  52.920  1.00  0.00     0.010 A 
BRANCH  25  30
HETATM   30  O   UNL     1       7.269  23.866  55.964  1.00  0.00    -0.355 OA
HETATM   31  C   UNL     1       8.169  24.126  57.035  1.00  0.00     0.210 C 
ENDBRANCH  25  30
ENDBRANCH  23  24
ENDBRANCH  21  23
ENDBRANCH  20  21
ENDBRANCH   1  20
TORSDOF 7
ENDMDL
MODEL 3
REMARK VINA RESULT:      -9.2      2.425      3.470
REMARK  7 active torsions:
REMARK  status: ('A' for Active; 'I' for Inactive)
REMARK    1  A    between atoms: C_2  and  C_3 
REMARK    2  A    between atoms: C_2  and  C_20 
REMARK    3  A    between atoms: C_3  and  C_4 
REMARK       I    between atoms: C_4  and  N_5 
REMARK    4  A    between atoms: N_5  and  C_6 
REMARK    5  A    between atoms: C_13  and  C_14 
REMARK       I    between atoms: C_14  and  N_15 
REMARK    6  A    between atoms: C_20  and  C_21 
REMARK    7  A    between atoms: C_22  and  O_23 
ROOT
HETATM    1  C   UNL     1       5.050  26.261  53.922  1.00  0.00     0.222 C 
HETATM    2  N   UNL     1       5.784  26.266  55.097  1.00  0.00    -0.327 N 
HETATM    3  O   UNL     1       4.443  27.207  53.437  1.00  0.00    -0.273 OA
HETATM    4  H   UNL     1       6.176  25.379  55.387  1.00  0.00     0.169 HD
ENDROOT
BRANCH   2   5
HETATM    5  C   UNL     1       6.083  27.365  55.929  1.00  0.00     0.035 A 
HETATM    6  C   UNL     1       7.361  27.926  56.059  1.00  0.00     0.046 A 
HETATM    7  C   UNL     1       7.557  29.014  56.940  1.00  0.00     0.030 A 
HETATM    8  C   UNL     1       6.471  29.499  57.659  1.00  0.00     0.063 A 
HETATM    9  C   UNL     1       8.657  29.833  57.339  1.00  0.00     0.156 A 
HETATM   10  N   UNL     1       6.965  30.526  58.413  1.00  0.00    -0.277 N 
HETATM   11  C   UNL     1       5.186  28.968  57.552  1.00  0.00     0.034 A 
HETATM   12  H   UNL     1       6.452  31.110  59.064  1.00  0.00     0.189 HD
HETATM   13  N   UNL     1       8.276  30.759  58.248  1.00  0.00    -0.168 NA
HETATM   14  C   UNL     1       5.016  27.894  56.671  1.00  0.00     0.032 A 
BRANCH   9  15
HETATM   15  C   UNL     1      10.051  29.753  56.877  1.00  0.00     0.270 C 
HETATM   16  N   UNL     1      10.183  29.681  55.516  1.00  0.00    -0.365 N 
HETATM   17  H   UNL     1       9.346  29.684  54.947  1.00  0.00     0.159 HD
HETATM   18  H   UNL     1      11.102  29.617  55.108  1.00  0.00     0.159 HD
HETATM   19  O   UNL     1      11.032  29.748  57.610  1.00  0.00    -0.266 OA
ENDBRANCH   9  15
ENDBRANCH   2   5
BRANCH   1  20
HETATM   20  C   UNL     1       5.039  24.881  53.270  1.00  0.00     0.107 C 
BRANCH  20  21
HETATM   21  C   UNL     1       6.232  24.646  52.328  1.00  0.00    -0.006 C 
HETATM   22  C   UNL     1       6.473  25.801  51.349  1.00  0.00     0.011 C 
BRANCH  21  23
HETATM   23  C   UNL     1       7.516  24.221  53.084  1.00  0.00     0.046 C 
BRANCH  23  24
HETATM   24  C   UNL     1       7.713  22.840  53.690  1.00  0.00    -0.024 A 
HETATM   25  C   UNL     1       7.595  22.701  55.095  1.00  0.00     0.074 A 
HETATM   26  C   UNL     1       7.786  21.455  55.705  1.00  0.00     0.037 A 
HETATM   27  C   UNL     1       8.071  20.330  54.935  1.00  0.00     0.003 A 
HETATM   28  C   UNL     1       8.161  20.444  53.555  1.00  0.00     0.001 A 
HETATM   29  C   UNL     1       7.980  21.685  52.940  1.00  0.00     0.010 A 
BRANCH  25  30
HETATM   30  O   UNL     1       7.308  23.852  55.789  1.00  0.00    -0.355 OA
HETATM   31  C   UNL     1       8.109  24.137  56.929  1.00  0.00     0.210 C 
ENDBRANCH  25  30
ENDBRANCH  23  24
ENDBRANCH  21  23
ENDBRANCH  20  21
ENDBRANCH   1  20
TORSDOF 7
ENDMDL
MODEL 4
REMARK VINA RESULT:      -8.8      2.504      3.024
REMARK  7 active torsions:
REMARK  status: ('A' for Active; 'I' for Inactive)
REMARK    1  A    between atoms: C_2  and  C_3 
REMARK    2  A    between atoms: C_2  and  C_20 
REMARK    3  A    between atoms: C_3  and  C_4 
REMARK       I    between atoms: C_4  and  N_5 
REMARK    4  A    between atoms: N_5  and  C_6 
REMARK    5  A    between atoms: C_13  and  C_14 
REMARK       I    between atoms: C_14  and  N_15 
REMARK    6  A    between atoms: C_20  and  C_21 
REMARK    7  A    between atoms: C_22  and  O_23 
ROOT
HETATM    1  C   UNL     1       5.988  26.439  54.650  1.00  0.00     0.222 C 
HETATM    2  N   UNL     1       4.989  27.272  55.126  1.00  0.00    -0.327 N 
HETATM    3  O   UNL     1       7.180  26.706  54.564  1.00  0.00    -0.273 OA
HETATM    4  H   UNL     1       4.043  26.917  55.073  1.00  0.00     0.169 HD
ENDROOT
BRANCH   2   5
HETATM    5  C   UNL     1       5.128  28.549  55.710  1.00  0.00     0.035 A 
HETATM    6  C   UNL     1       6.050  28.853  56.720  1.00  0.00     0.046 A 
HETATM    7  C   UNL     1       6.091  30.162  57.254  1.00  0.00     0.030 A 
HETATM    8  C   UNL     1       5.209  31.115  56.760  1.00  0.00     0.063 A 
HETATM    9  C   UNL     1       6.853  30.846  58.249  1.00  0.00     0.156 A 
HETATM   10  N   UNL     1       5.479  32.257  57.461  1.00  0.00    -0.277 N 
HETATM   11  C   UNL     1       4.281  30.848  55.754  1.00  0.00     0.034 A 
HETATM   12  H   UNL     1       5.022  33.157  57.366  1.00  0.00     0.189 HD
HETATM   13  N   UNL     1       6.463  32.136  58.366  1.00  0.00    -0.168 NA
HETATM   14  C   UNL     1       4.262  29.547  55.239  1.00  0.00     0.032 A 
BRANCH   9  15
HETATM   15  C   UNL     1       7.935  30.304  59.085  1.00  0.00     0.270 C 
HETATM   16  N   UNL     1       7.820  30.613  60.413  1.00  0.00    -0.365 N 
HETATM   17  H   UNL     1       7.033  31.174  60.715  1.00  0.00     0.159 HD
HETATM   18  H   UNL     1       8.520  30.290  61.062  1.00  0.00     0.159 HD
HETATM   19  O   UNL     1       8.871  29.633  58.669  1.00  0.00    -0.266 OA
ENDBRANCH   9  15
ENDBRANCH   2   5
BRANCH   1  20
HETATM   20  C   UNL     1       5.431  25.098  54.183  1.00  0.00     0.107 C 
BRANCH  20  21
HETATM   21  C   UNL     1       6.089  24.583  52.893  1.00  0.00    -0.006 C 
HETATM   22  C   UNL     1       5.968  25.557  51.716  1.00  0.00     0.011 C 
BRANCH  21  23
HETATM   23  C   UNL     1       7.540  24.089  53.118  1.00  0.00     0.046 C 
BRANCH  23  24
HETATM   24  C   UNL     1       7.881  22.722  53.690  1.00  0.00    -0.024 A 
HETATM   25  C   UNL     1       8.137  22.621  55.080  1.00  0.00     0.074 A 
HETATM   26  C   UNL     1       8.475  21.388  55.654  1.00  0.00     0.037 A 
HETATM   27  C   UNL     1       8.538  20.240  54.868  1.00  0.00     0.003 A 
HETATM   28  C   UNL     1       8.262  20.317  53.510  1.00  0.00     0.001 A 
HETATM   29  C   UNL     1       7.933  21.545  52.929  1.00  0.00     0.010 A 
BRANCH  25  30
HETATM   30  O   UNL     1       8.051  23.793  55.791  1.00  0.00    -0.355 OA
HETATM   31  C   UNL     1       8.642  23.810  57.085  1.00  0.00     0.210 C 
ENDBRANCH  25  30
ENDBRANCH  23  24
ENDBRANCH  21  23
ENDBRANCH  20  21
ENDBRANCH   1  20
TORSDOF 7
ENDMDL
MODEL 5
REMARK VINA RESULT:      -8.8      1.871      3.865
REMARK  7 active torsions:
REMARK  status: ('A' for Active; 'I' for Inactive)
REMARK    1  A    between atoms: C_2  and  C_3 
REMARK    2  A    between atoms: C_2  and  C_20 
REMARK    3  A    between atoms: C_3  and  C_4 
REMARK       I    between atoms: C_4  and  N_5 
REMARK    4  A    between atoms: N_5  and  C_6 
REMARK    5  A    between atoms: C_13  and  C_14 
REMARK       I    between atoms: C_14  and  N_15 
REMARK    6  A    between atoms: C_20  and  C_21 
REMARK    7  A    between atoms: C_22  and  O_23 
ROOT
HETATM    1  C   UNL     1       7.588  25.897  57.502  1.00  0.00     0.222 C 
HETATM    2  N   UNL     1       7.686  27.109  56.839  1.00  0.00    -0.327 N 
HETATM    3  O   UNL     1       8.120  25.601  58.564  1.00  0.00    -0.273 OA
HETATM    4  H   UNL     1       7.231  27.168  55.937  1.00  0.00     0.169 HD
ENDROOT
BRANCH   2   5
HETATM    5  C   UNL     1       8.319  28.290  57.279  1.00  0.00     0.035 A 
HETATM    6  C   UNL     1       7.781  29.158  58.239  1.00  0.00     0.046 A 
HETATM    7  C   UNL     1       8.488  30.330  58.593  1.00  0.00     0.030 A 
HETATM    8  C   UNL     1       9.703  30.592  57.974  1.00  0.00     0.063 A 
HETATM    9  C   UNL     1       8.289  31.423  59.491  1.00  0.00     0.156 A 
HETATM   10  N   UNL     1      10.135  31.774  58.507  1.00  0.00    -0.277 N 
HETATM   11  C   UNL     1      10.270  29.750  57.017  1.00  0.00     0.034 A 
HETATM   12  H   UNL     1      10.990  32.271  58.284  1.00  0.00     0.189 HD
HETATM   13  N   UNL     1       9.312  32.305  59.425  1.00  0.00    -0.168 NA
HETATM   14  C   UNL     1       9.553  28.595  56.686  1.00  0.00     0.032 A 
BRANCH   9  15
HETATM   15  C   UNL     1       7.155  31.644  60.401  1.00  0.00     0.270 C 
HETATM   16  N   UNL     1       5.970  31.895  59.763  1.00  0.00    -0.365 N 
HETATM   17  H   UNL     1       5.958  31.914  58.751  1.00  0.00     0.159 HD
HETATM   18  H   UNL     1       5.139  32.067  60.306  1.00  0.00     0.159 HD
HETATM   19  O   UNL     1       7.224  31.616  61.623  1.00  0.00    -0.266 OA
ENDBRANCH   9  15
ENDBRANCH   2   5
BRANCH   1  20
HETATM   20  C   UNL     1       6.736  24.897  56.726  1.00  0.00     0.107 C 
BRANCH  20  21
HETATM   21  C   UNL     1       7.017  24.906  55.214  1.00  0.00    -0.006 C 
HETATM   22  C   UNL     1       8.068  23.878  54.783  1.00  0.00     0.011 C 
BRANCH  21  23
HETATM   23  C   UNL     1       5.723  24.835  54.365  1.00  0.00     0.046 C 
BRANCH  23  24
HETATM   24  C   UNL     1       5.413  25.797  53.228  1.00  0.00    -0.024 A 
HETATM   25  C   UNL     1       5.095  27.139  53.553  1.00  0.00     0.074 A 
HETATM   26  C   UNL     1       4.783  28.060  52.545  1.00  0.00     0.037 A 
HETATM   27  C   UNL     1       4.805  27.675  51.207  1.00  0.00     0.003 A 
HETATM   28  C   UNL     1       5.142  26.371  50.870  1.00  0.00     0.001 A 
HETATM   29  C   UNL     1       5.447  25.444  51.871  1.00  0.00     0.010 A 
BRANCH  25  30
HETATM   30  O   UNL     1       5.098  27.448  54.892  1.00  0.00    -0.355 OA
HETATM   31  C   UNL     1       4.286  28.541  55.305  1.00  0.00     0.210 C 
ENDBRANCH  25  30
ENDBRANCH  23  24
ENDBRANCH  21  23
ENDBRANCH  20  21
ENDBRANCH   1  20
TORSDOF 7
ENDMDL
MODEL 6
REMARK VINA RESULT:      -8.7      3.550      4.411
REMARK  7 active torsions:
REMARK  status: ('A' for Active; 'I' for Inactive)
REMARK    1  A    between atoms: C_2  and  C_3 
REMARK    2  A    between atoms: C_2  and  C_20 
REMARK    3  A    between atoms: C_3  and  C_4 
REMARK       I    between atoms: C_4  and  N_5 
REMARK    4  A    between atoms: N_5  and  C_6 
REMARK    5  A    between atoms: C_13  and  C_14 
REMARK       I    between atoms: C_14  and  N_15 
REMARK    6  A    between atoms: C_20  and  C_21 
REMARK    7  A    between atoms: C_22  and  O_23 
ROOT
HETATM    1  C   UNL     1       5.692  26.432  54.293  1.00  0.00     0.222 C 
HETATM    2  N   UNL     1       4.452  27.026  54.122  1.00  0.00    -0.327 N 
HETATM    3  O   UNL     1       6.730  26.993  54.621  1.00  0.00    -0.273 OA
HETATM    4  H   UNL     1       3.708  26.427  53.788  1.00  0.00     0.169 HD
ENDROOT
BRANCH   2   5
HETATM    5  C   UNL     1       4.086  28.362  54.387  1.00  0.00     0.035 A 
HETATM    6  C   UNL     1       4.073  28.932  55.667  1.00  0.00     0.046 A 
HETATM    7  C   UNL     1       3.666  30.277  55.826  1.00  0.00     0.030 A 
HETATM    8  C   UNL     1       3.284  30.999  54.702  1.00  0.00     0.063 A 
HETATM    9  C   UNL     1       3.521  31.189  56.916  1.00  0.00     0.156 A 
HETATM   10  N   UNL     1       2.944  32.239  55.166  1.00  0.00    -0.277 N 
HETATM   11  C   UNL     1       3.288  30.465  53.414  1.00  0.00     0.034 A 
HETATM   12  H   UNL     1       2.615  33.028  54.621  1.00  0.00     0.189 HD
HETATM   13  N   UNL     1       3.075  32.394  56.492  1.00  0.00    -0.168 NA
HETATM   14  C   UNL     1       3.698  29.133  53.282  1.00  0.00     0.032 A 
BRANCH   9  15
HETATM   15  C   UNL     1       3.796  30.940  58.339  1.00  0.00     0.270 C 
HETATM   16  N   UNL     1       5.121  30.753  58.625  1.00  0.00    -0.365 N 
HETATM   17  H   UNL     1       5.791  30.793  57.868  1.00  0.00     0.159 HD
HETATM   18  H   UNL     1       5.405  30.569  59.574  1.00  0.00     0.159 HD
HETATM   19  O   UNL     1       2.945  30.896  59.219  1.00  0.00    -0.266 OA
ENDBRANCH   9  15
ENDBRANCH   2   5
BRANCH   1  20
HETATM   20  C   UNL     1       5.651  24.939  53.982  1.00  0.00     0.107 C 
BRANCH  20  21
HETATM   21  C   UNL     1       6.394  24.568  52.688  1.00  0.00    -0.006 C 
HETATM   22  C   UNL     1       6.333  25.660  51.615  1.00  0.00     0.011 C 
BRANCH  21  23
HETATM   23  C   UNL     1       7.835  24.063  52.950  1.00  0.00     0.046 C 
BRANCH  23  24
HETATM   24  C   UNL     1       8.149  22.726  53.603  1.00  0.00    -0.024 A 
HETATM   25  C   UNL     1       8.569  22.722  54.955  1.00  0.00     0.074 A 
HETATM   26  C   UNL     1       8.890  21.518  55.598  1.00  0.00     0.037 A 
HETATM   27  C   UNL     1       8.775  20.306  54.921  1.00  0.00     0.003 A 
HETATM   28  C   UNL     1       8.337  20.291  53.604  1.00  0.00     0.001 A 
HETATM   29  C   UNL     1       8.024  21.489  52.954  1.00  0.00     0.010 A 
BRANCH  25  30
HETATM   30  O   UNL     1       8.655  23.952  55.560  1.00  0.00    -0.355 OA
HETATM   31  C   UNL     1       8.345  24.015  56.947  1.00  0.00     0.210 C 
ENDBRANCH  25  30
ENDBRANCH  23  24
ENDBRANCH  21  23
ENDBRANCH  20  21
ENDBRANCH   1  20
TORSDOF 7
ENDMDL
MODEL 7
REMARK VINA RESULT:      -8.7      2.912      9.182
REMARK  7 active torsions:
REMARK  status: ('A' for Active; 'I' for Inactive)
REMARK    1  A    between atoms: C_2  and  C_3 
REMARK    2  A    between atoms: C_2  and  C_20 
REMARK    3  A    between atoms: C_3  and  C_4 
REMARK       I    between atoms: C_4  and  N_5 
REMARK    4  A    between atoms: N_5  and  C_6 
REMARK    5  A    between atoms: C_13  and  C_14 
REMARK       I    between atoms: C_14  and  N_15 
REMARK    6  A    between atoms: C_20  and  C_21 
REMARK    7  A    between atoms: C_22  and  O_23 
ROOT
HETATM    1  C   UNL     1       8.151  28.289  57.358  1.00  0.00     0.222 C 
HETATM    2  N   UNL     1       7.537  27.049  57.435  1.00  0.00    -0.327 N 
HETATM    3  O   UNL     1       9.043  28.614  56.585  1.00  0.00    -0.273 OA
HETATM    4  H   UNL     1       6.857  26.928  58.174  1.00  0.00     0.169 HD
ENDROOT
BRANCH   2   5
HETATM    5  C   UNL     1       7.721  25.936  56.588  1.00  0.00     0.035 A 
HETATM    6  C   UNL     1       7.112  25.796  55.333  1.00  0.00     0.046 A 
HETATM    7  C   UNL     1       7.345  24.627  54.573  1.00  0.00     0.030 A 
HETATM    8  C   UNL     1       8.173  23.641  55.096  1.00  0.00     0.063 A 
HETATM    9  C   UNL     1       6.931  24.125  53.302  1.00  0.00     0.156 A 
HETATM   10  N   UNL     1       8.198  22.652  54.153  1.00  0.00    -0.277 N 
HETATM   11  C   UNL     1       8.796  23.747  56.339  1.00  0.00     0.034 A 
HETATM   12  H   UNL     1       8.703  21.774  54.200  1.00  0.00     0.189 HD
HETATM   13  N   UNL     1       7.466  22.906  53.058  1.00  0.00    -0.168 NA
HETATM   14  C   UNL     1       8.554  24.916  57.071  1.00  0.00     0.032 A 
BRANCH   9  15
HETATM   15  C   UNL     1       6.047  24.774  52.322  1.00  0.00     0.270 C 
HETATM   16  N   UNL     1       6.705  25.557  51.413  1.00  0.00    -0.365 N 
HETATM   17  H   UNL     1       7.712  25.635  51.478  1.00  0.00     0.159 HD
HETATM   18  H   UNL     1       6.180  26.048  50.707  1.00  0.00     0.159 HD
HETATM   19  O   UNL     1       4.829  24.651  52.290  1.00  0.00    -0.266 OA
ENDBRANCH   9  15
ENDBRANCH   2   5
BRANCH   1  20
HETATM   20  C   UNL     1       7.606  29.254  58.406  1.00  0.00     0.107 C 
BRANCH  20  21
HETATM   21  C   UNL     1       6.746  30.379  57.806  1.00  0.00    -0.006 C 
HETATM   22  C   UNL     1       5.305  29.951  57.507  1.00  0.00     0.011 C 
BRANCH  21  23
HETATM   23  C   UNL     1       6.826  31.693  58.622  1.00  0.00     0.046 C 
BRANCH  23  24
HETATM   24  C   UNL     1       7.484  31.792  59.990  1.00  0.00    -0.024 A 
HETATM   25  C   UNL     1       8.853  32.152  60.050  1.00  0.00     0.074 A 
HETATM   26  C   UNL     1       9.512  32.238  61.284  1.00  0.00     0.037 A 
HETATM   27  C   UNL     1       8.822  31.996  62.469  1.00  0.00     0.003 A 
HETATM   28  C   UNL     1       7.474  31.671  62.428  1.00  0.00     0.001 A 
HETATM   29  C   UNL     1       6.812  31.574  61.201  1.00  0.00     0.010 A 
BRANCH  25  30
HETATM   30  O   UNL     1       9.467  32.381  58.843  1.00  0.00    -0.355 OA
HETATM   31  C   UNL     1      10.404  31.408  58.398  1.00  0.00     0.210 C 
ENDBRANCH  25  30
ENDBRANCH  23  24
ENDBRANCH  21  23
ENDBRANCH  20  21
ENDBRANCH   1  20
TORSDOF 7
ENDMDL
MODEL 8
REMARK VINA RESULT:      -8.6      4.017      6.669
REMARK  7 active torsions:
REMARK  status: ('A' for Active; 'I' for Inactive)
REMARK    1  A    between atoms: C_2  and  C_3 
REMARK    2  A    between atoms: C_2  and  C_20 
REMARK    3  A    between atoms: C_3  and  C_4 
REMARK       I    between atoms: C_4  and  N_5 
REMARK    4  A    between atoms: N_5  and  C_6 
REMARK    5  A    between atoms: C_13  and  C_14 
REMARK       I    between atoms: C_14  and  N_15 
REMARK    6  A    between atoms: C_20  and  C_21 
REMARK    7  A    between atoms: C_22  and  O_23 
ROOT
HETATM    1  C   UNL     1       5.876  26.582  56.628  1.00  0.00     0.222 C 
HETATM    2  N   UNL     1       6.209  27.384  55.547  1.00  0.00    -0.327 N 
HETATM    3  O   UNL     1       4.746  26.296  57.002  1.00  0.00    -0.273 OA
HETATM    4  H   UNL     1       7.194  27.569  55.411  1.00  0.00     0.169 HD
ENDROOT
BRANCH   2   5
HETATM    5  C   UNL     1       5.344  27.952  54.589  1.00  0.00     0.035 A 
HETATM    6  C   UNL     1       5.338  27.602  53.232  1.00  0.00     0.046 A 
HETATM    7  C   UNL     1       4.444  28.251  52.350  1.00  0.00     0.030 A 
HETATM    8  C   UNL     1       3.593  29.226  52.855  1.00  0.00     0.063 A 
HETATM    9  C   UNL     1       4.139  28.183  50.956  1.00  0.00     0.156 A 
HETATM   10  N   UNL     1       2.869  29.667  51.783  1.00  0.00    -0.277 N 
HETATM   11  C   UNL     1       3.570  29.598  54.199  1.00  0.00     0.034 A 
HETATM   12  H   UNL     1       2.151  30.382  51.780  1.00  0.00     0.189 HD
HETATM   13  N   UNL     1       3.167  29.062  50.622  1.00  0.00    -0.168 NA
HETATM   14  C   UNL     1       4.461  28.939  55.053  1.00  0.00     0.032 A 
BRANCH   9  15
HETATM   15  C   UNL     1       4.748  27.306  49.944  1.00  0.00     0.270 C 
HETATM   16  N   UNL     1       5.558  27.961  49.056  1.00  0.00    -0.365 N 
HETATM   17  H   UNL     1       5.673  28.962  49.151  1.00  0.00     0.159 HD
HETATM   18  H   UNL     1       6.013  27.443  48.321  1.00  0.00     0.159 HD
HETATM   19  O   UNL     1       4.571  26.097  49.868  1.00  0.00    -0.266 OA
ENDBRANCH   9  15
ENDBRANCH   2   5
BRANCH   1  20
HETATM   20  C   UNL     1       7.116  26.091  57.369  1.00  0.00     0.107 C 
BRANCH  20  21
HETATM   21  C   UNL     1       7.872  24.983  56.617  1.00  0.00    -0.006 C 
HETATM   22  C   UNL     1       9.030  24.381  57.422  1.00  0.00     0.011 C 
BRANCH  21  23
HETATM   23  C   UNL     1       6.927  23.907  56.028  1.00  0.00     0.046 C 
BRANCH  23  24
HETATM   24  C   UNL     1       7.403  22.767  55.141  1.00  0.00    -0.024 A 
HETATM   25  C   UNL     1       7.444  22.978  53.741  1.00  0.00     0.074 A 
HETATM   26  C   UNL     1       7.857  21.955  52.878  1.00  0.00     0.037 A 
HETATM   27  C   UNL     1       8.257  20.722  53.389  1.00  0.00     0.003 A 
HETATM   28  C   UNL     1       8.250  20.508  54.760  1.00  0.00     0.001 A 
HETATM   29  C   UNL     1       7.831  21.522  55.626  1.00  0.00     0.010 A 
BRANCH  25  30
HETATM   30  O   UNL     1       7.041  24.219  53.310  1.00  0.00    -0.355 OA
HETATM   31  C   UNL     1       7.992  24.996  52.593  1.00  0.00     0.210 C 
ENDBRANCH  25  30
ENDBRANCH  23  24
ENDBRANCH  21  23
ENDBRANCH  20  21
ENDBRANCH   1  20
TORSDOF 7
ENDMDL
MODEL 9
REMARK VINA RESULT:      -8.6      6.719      9.428
REMARK  7 active torsions:
REMARK  status: ('A' for Active; 'I' for Inactive)
REMARK    1  A    between atoms: C_2  and  C_3 
REMARK    2  A    between atoms: C_2  and  C_20 
REMARK    3  A    between atoms: C_3  and  C_4 
REMARK       I    between atoms: C_4  and  N_5 
REMARK    4  A    between atoms: N_5  and  C_6 
REMARK    5  A    between atoms: C_13  and  C_14 
REMARK       I    between atoms: C_14  and  N_15 
REMARK    6  A    between atoms: C_20  and  C_21 
REMARK    7  A    between atoms: C_22  and  O_23 
ROOT
HETATM    1  C   UNL     1       5.397  26.746  51.263  1.00  0.00     0.222 C 
HETATM    2  N   UNL     1       5.339  26.369  49.931  1.00  0.00    -0.327 N 
HETATM    3  O   UNL     1       4.556  27.390  51.876  1.00  0.00    -0.273 OA
HETATM    4  H   UNL     1       6.149  25.889  49.562  1.00  0.00     0.169 HD
ENDROOT
BRANCH   2   5
HETATM    5  C   UNL     1       4.271  26.544  49.026  1.00  0.00     0.035 A 
HETATM    6  C   UNL     1       3.793  27.794  48.609  1.00  0.00     0.046 A 
HETATM    7  C   UNL     1       2.700  27.859  47.714  1.00  0.00     0.030 A 
HETATM    8  C   UNL     1       2.124  26.674  47.273  1.00  0.00     0.063 A 
HETATM    9  C   UNL     1       1.949  28.893  47.077  1.00  0.00     0.156 A 
HETATM   10  N   UNL     1       1.107  27.052  46.442  1.00  0.00    -0.277 N 
HETATM   11  C   UNL     1       2.575  25.413  47.665  1.00  0.00     0.034 A 
HETATM   12  H   UNL     1       0.467  26.446  45.941  1.00  0.00     0.189 HD
HETATM   13  N   UNL     1       0.970  28.379  46.297  1.00  0.00    -0.168 NA
HETATM   14  C   UNL     1       3.661  25.376  48.547  1.00  0.00     0.032 A 
BRANCH   9  15
HETATM   15  C   UNL     1       2.141  30.346  47.193  1.00  0.00     0.270 C 
HETATM   16  N   UNL     1       2.358  30.975  45.996  1.00  0.00    -0.365 N 
HETATM   17  H   UNL     1       2.374  30.419  45.151  1.00  0.00     0.159 HD
HETATM   18  H   UNL     1       2.507  31.972  45.977  1.00  0.00     0.159 HD
HETATM   19  O   UNL     1       2.118  30.974  48.244  1.00  0.00    -0.266 OA
ENDBRANCH   9  15
ENDBRANCH   2   5
BRANCH   1  20
HETATM   20  C   UNL     1       6.695  26.288  51.922  1.00  0.00     0.107 C 
BRANCH  20  21
HETATM   21  C   UNL     1       6.468  25.442  53.185  1.00  0.00    -0.006 C 
HETATM   22  C   UNL     1       5.257  24.509  53.084  1.00  0.00     0.011 C 
BRANCH  21  23
HETATM   23  C   UNL     1       7.751  24.712  53.655  1.00  0.00     0.046 C 
BRANCH  23  24
HETATM   24  C   UNL     1       7.818  23.214  53.911  1.00  0.00    -0.024 A 
HETATM   25  C   UNL     1       7.670  22.754  55.242  1.00  0.00     0.074 A 
HETATM   26  C   UNL     1       7.743  21.385  55.534  1.00  0.00     0.037 A 
HETATM   27  C   UNL     1       7.937  20.457  54.513  1.00  0.00     0.003 A 
HETATM   28  C   UNL     1       8.055  20.890  53.200  1.00  0.00     0.001 A 
HETATM   29  C   UNL     1       7.992  22.255  52.903  1.00  0.00     0.010 A 
BRANCH  25  30
HETATM   30  O   UNL     1       7.477  23.725  56.194  1.00  0.00    -0.355 OA
HETATM   31  C   UNL     1       8.534  23.943  57.120  1.00  0.00     0.210 C 
ENDBRANCH  25  30
ENDBRANCH  23  24
ENDBRANCH  21  23
ENDBRANCH  20  21
ENDBRANCH   1  20
TORSDOF 7
ENDMDL
MODEL 10
REMARK VINA RESULT:      -8.5      5.918      7.925
REMARK  7 active torsions:
REMARK  status: ('A' for Active; 'I' for Inactive)
REMARK    1  A    between atoms: C_2  and  C_3 
REMARK    2  A    between atoms: C_2  and  C_20 
REMARK    3  A    between atoms: C_3  and  C_4 
REMARK       I    between atoms: C_4  and  N_5 
REMARK    4  A    between atoms: N_5  and  C_6 
REMARK    5  A    between atoms: C_13  and  C_14 
REMARK       I    between atoms: C_14  and  N_15 
REMARK    6  A    between atoms: C_20  and  C_21 
REMARK    7  A    between atoms: C_22  and  O_23 
ROOT
HETATM    1  C   UNL     1       5.230  26.200  51.778  1.00  0.00     0.222 C 
HETATM    2  N   UNL     1       5.519  26.299  50.427  1.00  0.00    -0.327 N 
HETATM    3  O   UNL     1       4.636  27.026  52.459  1.00  0.00    -0.273 OA
HETATM    4  H   UNL     1       6.073  25.552  50.028  1.00  0.00     0.169 HD
ENDROOT
BRANCH   2   5
HETATM    5  C   UNL     1       5.109  27.301  49.523  1.00  0.00     0.035 A 
HETATM    6  C   UNL     1       5.433  28.658  49.656  1.00  0.00     0.046 A 
HETATM    7  C   UNL     1       4.951  29.586  48.705  1.00  0.00     0.030 A 
HETATM    8  C   UNL     1       4.160  29.125  47.659  1.00  0.00     0.063 A 
HETATM    9  C   UNL     1       5.054  30.995  48.494  1.00  0.00     0.156 A 
HETATM   10  N   UNL     1       3.848  30.234  46.924  1.00  0.00    -0.277 N 
HETATM   11  C   UNL     1       3.820  27.782  47.494  1.00  0.00     0.034 A 
HETATM   12  H   UNL     1       3.279  30.273  46.086  1.00  0.00     0.189 HD
HETATM   13  N   UNL     1       4.368  31.378  47.393  1.00  0.00    -0.168 NA
HETATM   14  C   UNL     1       4.313  26.883  48.447  1.00  0.00     0.032 A 
BRANCH   9  15
HETATM   15  C   UNL     1       5.786  31.975  49.311  1.00  0.00     0.270 C 
HETATM   16  N   UNL     1       6.542  32.853  48.581  1.00  0.00    -0.365 N 
HETATM   17  H   UNL     1       6.547  32.767  47.572  1.00  0.00     0.159 HD
HETATM   18  H   UNL     1       7.084  33.557  49.056  1.00  0.00     0.159 HD
HETATM   19  O   UNL     1       5.750  32.034  50.533  1.00  0.00    -0.266 OA
ENDBRANCH   9  15
ENDBRANCH   2   5
BRANCH   1  20
HETATM   20  C   UNL     1       5.782  24.911  52.380  1.00  0.00     0.107 C 
BRANCH  20  21
HETATM   21  C   UNL     1       6.695  25.152  53.594  1.00  0.00    -0.006 C 
HETATM   22  C   UNL     1       5.995  24.922  54.938  1.00  0.00     0.011 C 
BRANCH  21  23
HETATM   23  C   UNL     1       8.046  24.402  53.484  1.00  0.00     0.046 C 
BRANCH  23  24
HETATM   24  C   UNL     1       8.215  22.926  53.812  1.00  0.00    -0.024 A 
HETATM   25  C   UNL     1       8.794  22.577  55.057  1.00  0.00     0.074 A 
HETATM   26  C   UNL     1       8.989  21.233  55.399  1.00  0.00     0.037 A 
HETATM   27  C   UNL     1       8.593  20.220  54.529  1.00  0.00     0.003 A 
HETATM   28  C   UNL     1       7.998  20.545  53.318  1.00  0.00     0.001 A 
HETATM   29  C   UNL     1       7.808  21.884  52.966  1.00  0.00     0.010 A 
BRANCH  25  30
HETATM   30  O   UNL     1       9.155  23.628  55.865  1.00  0.00    -0.355 OA
HETATM   31  C   UNL     1       8.579  23.672  57.165  1.00  0.00     0.210 C 
ENDBRANCH  25  30
ENDBRANCH  23  24
ENDBRANCH  21  23
ENDBRANCH  20  21
ENDBRANCH   1  20
TORSDOF 7
ENDMDL
