MODEL 1
REMARK VINA RESULT:      -8.2      0.000      0.000
REMARK  4 active torsions:
REMARK  status: ('A' for Active; 'I' for Inactive)
REMARK    1  A    between atoms: C_4  and  N_5 
REMARK       I    between atoms: N_5  and  C_6 
REMARK    2  A    between atoms: C_6  and  C_7 
REMARK    3  A    between atoms: C_11  and  C_12 
REMARK    4  A    between atoms: C_18  and  N_19 
REMARK       I    between atoms: N_19  and  C_20 
ROOT
HETATM    1  N   UNL     1       6.542  24.695  52.593  1.00  0.00    -0.320 N 
HETATM    2  C   UNL     1       5.258  25.165  52.411  1.00  0.00     0.276 C 
HETATM    3  O   UNL     1       4.268  24.798  53.035  1.00  0.00    -0.266 OA
HETATM    4  H   UNL     1       7.270  25.248  52.149  1.00  0.00     0.169 HD
ENDROOT
BRANCH   1   5
HETATM    5  C   UNL     1       7.006  23.670  53.454  1.00  0.00     0.062 A 
HETATM    6  C   UNL     1       7.640  22.527  52.932  1.00  0.00     0.038 A 
HETATM    7  C   UNL     1       8.164  21.519  53.755  1.00  0.00    -0.060 A 
HETATM    8  C   UNL     1       8.837  20.317  53.162  1.00  0.00     0.048 C 
HETATM    9  C   UNL     1       8.097  21.674  55.134  1.00  0.00     0.009 A 
HETATM   10  C   UNL     1       7.483  22.803  55.677  1.00  0.00     0.032 A 
HETATM   11  C   UNL     1       6.908  23.800  54.862  1.00  0.00     0.061 A 
BRANCH  11  12
HETATM   12  N   UNL     1       6.311  24.856  55.602  1.00  0.00    -0.326 N 
HETATM   13  C   UNL     1       6.663  26.184  55.680  1.00  0.00     0.218 C 
HETATM   14  C   UNL     1       5.782  26.970  56.618  1.00  0.00     0.117 C 
HETATM   15  O   UNL     1       7.565  26.730  55.055  1.00  0.00    -0.274 OA
HETATM   16  H   UNL     1       5.410  24.633  56.008  1.00  0.00     0.169 HD
ENDBRANCH  11  12
ENDBRANCH   1   5
BRANCH   2  17
HETATM   17  C   UNL     1       5.125  26.216  51.432  1.00  0.00     0.142 A 
HETATM   18  N   UNL     1       4.649  25.937  50.177  1.00  0.00    -0.271 N 
HETATM   19  H   UNL     1       4.375  25.024  49.825  1.00  0.00     0.189 HD
HETATM   20  N   UNL     1       4.527  27.005  49.375  1.00  0.00    -0.177 NA
HETATM   21  C   UNL     1       4.995  28.009  50.127  1.00  0.00     0.083 A 
HETATM   22  C   UNL     1       5.418  27.565  51.404  1.00  0.00     0.094 A 
HETATM   23 CL   UNL     1       6.167  28.517  52.596  1.00  0.00    -0.079 Cl
BRANCH  21  24
HETATM   24  C   UNL     1       5.053  29.452  49.635  1.00  0.00     0.041 A 
HETATM   25  C   UNL     1       4.235  29.846  48.422  1.00  0.00     0.011 A 
HETATM   26  C   UNL     1       3.809  30.309  49.773  1.00  0.00     0.011 A 
ENDBRANCH  21  24
ENDBRANCH   2  17
TORSDOF 4
ENDMDL
MODEL 2
REMARK VINA RESULT:      -8.2      2.678      5.615
REMARK  4 active torsions:
REMARK  status: ('A' for Active; 'I' for Inactive)
REMARK    1  A    between atoms: C_4  and  N_5 
REMARK       I    between atoms: N_5  and  C_6 
REMARK    2  A    between atoms: C_6  and  C_7 
REMARK    3  A    between atoms: C_11  and  C_12 
REMARK    4  A    between atoms: C_18  and  N_19 
REMARK       I    between atoms: N_19  and  C_20 
ROOT
HETATM    1  N   UNL     1       7.213  25.425  55.788  1.00  0.00    -0.320 N 
HETATM    2  C   UNL     1       6.158  25.838  56.576  1.00  0.00     0.276 C 
HETATM    3  O   UNL     1       5.267  25.116  57.011  1.00  0.00    -0.266 OA
HETATM    4  H   UNL     1       7.968  26.099  55.692  1.00  0.00     0.169 HD
ENDROOT
BRANCH   1   5
HETATM    5  C   UNL     1       7.481  24.141  55.252  1.00  0.00     0.062 A 
HETATM    6  C   UNL     1       7.920  23.094  56.084  1.00  0.00     0.038 A 
HETATM    7  C   UNL     1       8.141  21.795  55.601  1.00  0.00    -0.060 A 
HETATM    8  C   UNL     1       8.605  20.704  56.520  1.00  0.00     0.048 C 
HETATM    9  C   UNL     1       7.874  21.520  54.265  1.00  0.00     0.009 A 
HETATM   10  C   UNL     1       7.428  22.538  53.423  1.00  0.00     0.032 A 
HETATM   11  C   UNL     1       7.249  23.859  53.883  1.00  0.00     0.061 A 
BRANCH  11  12
HETATM   12  N   UNL     1       6.813  24.754  52.868  1.00  0.00    -0.326 N 
HETATM   13  C   UNL     1       5.538  25.144  52.528  1.00  0.00     0.218 C 
HETATM   14  C   UNL     1       5.508  26.090  51.355  1.00  0.00     0.117 C 
HETATM   15  O   UNL     1       4.506  24.814  53.100  1.00  0.00    -0.274 OA
HETATM   16  H   UNL     1       7.551  25.297  52.436  1.00  0.00     0.169 HD
ENDBRANCH  11  12
ENDBRANCH   1   5
BRANCH   2  17
HETATM   17  C   UNL     1       6.177  27.234  56.938  1.00  0.00     0.142 A 
HETATM   18  N   UNL     1       5.003  27.931  57.067  1.00  0.00    -0.271 N 
HETATM   19  H   UNL     1       4.066  27.568  56.915  1.00  0.00     0.189 HD
HETATM   20  N   UNL     1       5.150  29.207  57.455  1.00  0.00    -0.177 NA
HETATM   21  C   UNL     1       6.479  29.354  57.528  1.00  0.00     0.083 A 
HETATM   22  C   UNL     1       7.167  28.166  57.178  1.00  0.00     0.094 A 
HETATM   23 CL   UNL     1       8.852  27.988  57.045  1.00  0.00    -0.079 Cl
BRANCH  21  24
HETATM   24  C   UNL     1       7.143  30.663  57.942  1.00  0.00     0.041 A 
HETATM   25  C   UNL     1       6.423  31.574  58.917  1.00  0.00     0.011 A 
HETATM   26  C   UNL     1       7.615  30.808  59.377  1.00  0.00     0.011 A 
ENDBRANCH  21  24
ENDBRANCH   2  17
TORSDOF 4
ENDMDL
MODEL 3
REMARK VINA RESULT:      -8.2      3.240      7.176
REMARK  4 active torsions:
REMARK  status: ('A' for Active; 'I' for Inactive)
REMARK    1  A    between atoms: C_4  and  N_5 
REMARK       I    between atoms: N_5  and  C_6 
REMARK    2  A    between atoms: C_6  and  C_7 
REMARK    3  A    between atoms: C_11  and  C_12 
REMARK    4  A    between atoms: C_18  and  N_19 
REMARK       I    between atoms: N_19  and  C_20 
ROOT
HETATM    1  N   UNL     1       7.475  26.782  56.226  1.00  0.00    -0.320 N 
HETATM    2  C   UNL     1       6.972  25.522  56.477  1.00  0.00     0.276 C 
HETATM    3  O   UNL     1       6.071  25.258  57.265  1.00  0.00    -0.266 OA
HETATM    4  H   UNL     1       8.064  26.854  55.401  1.00  0.00     0.169 HD
ENDROOT
BRANCH   1   5
HETATM    5  C   UNL     1       7.143  28.016  56.837  1.00  0.00     0.062 A 
HETATM    6  C   UNL     1       7.943  28.544  57.868  1.00  0.00     0.038 A 
HETATM    7  C   UNL     1       7.680  29.790  58.458  1.00  0.00    -0.060 A 
HETATM    8  C   UNL     1       8.559  30.322  59.551  1.00  0.00     0.048 C 
HETATM    9  C   UNL     1       6.621  30.551  57.978  1.00  0.00     0.009 A 
HETATM   10  C   UNL     1       5.819  30.055  56.951  1.00  0.00     0.032 A 
HETATM   11  C   UNL     1       6.042  28.783  56.382  1.00  0.00     0.061 A 
BRANCH  11  12
HETATM   12  N   UNL     1       5.104  28.449  55.368  1.00  0.00    -0.326 N 
HETATM   13  C   UNL     1       5.315  28.146  54.042  1.00  0.00     0.218 C 
HETATM   14  C   UNL     1       4.034  27.883  53.290  1.00  0.00     0.117 C 
HETATM   15  O   UNL     1       6.403  28.055  53.486  1.00  0.00    -0.274 OA
HETATM   16  H   UNL     1       4.168  28.257  55.701  1.00  0.00     0.169 HD
ENDBRANCH  11  12
ENDBRANCH   1   5
BRANCH   2  17
HETATM   17  C   UNL     1       7.546  24.466  55.680  1.00  0.00     0.142 A 
HETATM   18  N   UNL     1       8.669  23.807  56.111  1.00  0.00    -0.271 N 
HETATM   19  H   UNL     1       9.186  23.992  56.966  1.00  0.00     0.189 HD
HETATM   20  N   UNL     1       9.077  22.814  55.307  1.00  0.00    -0.177 NA
HETATM   21  C   UNL     1       8.211  22.869  54.287  1.00  0.00     0.083 A 
HETATM   22  C   UNL     1       7.261  23.906  54.450  1.00  0.00     0.094 A 
HETATM   23 CL   UNL     1       6.073  24.362  53.324  1.00  0.00    -0.079 Cl
BRANCH  21  24
HETATM   24  C   UNL     1       8.271  21.912  53.100  1.00  0.00     0.041 A 
HETATM   25  C   UNL     1       9.013  20.600  53.254  1.00  0.00     0.011 A 
HETATM   26  C   UNL     1       7.525  20.595  53.201  1.00  0.00     0.011 A 
ENDBRANCH  21  24
ENDBRANCH   2  17
TORSDOF 4
ENDMDL
MODEL 4
REMARK VINA RESULT:      -8.0      4.252      6.997
REMARK  4 active torsions:
REMARK  status: ('A' for Active; 'I' for Inactive)
REMARK    1  A    between atoms: C_4  and  N_5 
REMARK       I    between atoms: N_5  and  C_6 
REMARK    2  A    between atoms: C_6  and  C_7 
REMARK    3  A    between atoms: C_11  and  C_12 
REMARK    4  A    between atoms: C_18  and  N_19 
REMARK       I    between atoms: N_19  and  C_20 
ROOT
HETATM    1  N   UNL     1       7.615  27.237  56.628  1.00  0.00    -0.320 N 
HETATM    2  C   UNL     1       8.120  28.452  56.213  1.00  0.00     0.276 C 
HETATM    3  O   UNL     1       8.443  28.735  55.065  1.00  0.00    -0.266 OA
HETATM    4  H   UNL     1       7.204  27.236  57.558  1.00  0.00     0.169 HD
ENDROOT
BRANCH   1   5
HETATM    5  C   UNL     1       7.420  26.047  55.884  1.00  0.00     0.062 A 
HETATM    6  C   UNL     1       8.111  24.869  56.221  1.00  0.00     0.038 A 
HETATM    7  C   UNL     1       7.901  23.657  55.545  1.00  0.00    -0.060 A 
HETATM    8  C   UNL     1       8.654  22.420  55.936  1.00  0.00     0.048 C 
HETATM    9  C   UNL     1       6.946  23.606  54.537  1.00  0.00     0.009 A 
HETATM   10  C   UNL     1       6.240  24.758  54.191  1.00  0.00     0.032 A 
HETATM   11  C   UNL     1       6.475  25.993  54.829  1.00  0.00     0.061 A 
BRANCH  11  12
HETATM   12  N   UNL     1       5.674  27.051  54.318  1.00  0.00    -0.326 N 
HETATM   13  C   UNL     1       4.762  27.854  54.965  1.00  0.00     0.218 C 
HETATM   14  C   UNL     1       4.093  28.841  54.043  1.00  0.00     0.117 C 
HETATM   15  O   UNL     1       4.503  27.834  56.162  1.00  0.00    -0.274 OA
HETATM   16  H   UNL     1       5.921  27.358  53.385  1.00  0.00     0.169 HD
ENDBRANCH  11  12
ENDBRANCH   1   5
BRANCH   2  17
HETATM   17  C   UNL     1       8.204  29.461  57.240  1.00  0.00     0.142 A 
HETATM   18  N   UNL     1       7.064  29.946  57.828  1.00  0.00    -0.271 N 
HETATM   19  H   UNL     1       6.110  29.677  57.607  1.00  0.00     0.189 HD
HETATM   20  N   UNL     1       7.277  30.845  58.802  1.00  0.00    -0.177 NA
HETATM   21  C   UNL     1       8.608  30.985  58.804  1.00  0.00     0.083 A 
HETATM   22  C   UNL     1       9.232  30.175  57.824  1.00  0.00     0.094 A 
HETATM   23 CL   UNL     1      10.889  30.156  57.447  1.00  0.00    -0.079 Cl
BRANCH  21  24
HETATM   24  C   UNL     1       9.338  31.919  59.765  1.00  0.00     0.041 A 
HETATM   25  C   UNL     1       8.558  32.569  60.890  1.00  0.00     0.011 A 
HETATM   26  C   UNL     1       9.517  31.473  61.204  1.00  0.00     0.011 A 
ENDBRANCH  21  24
ENDBRANCH   2  17
TORSDOF 4
ENDMDL
MODEL 5
REMARK VINA RESULT:      -7.9     10.306     13.852
REMARK  4 active torsions:
REMARK  status: ('A' for Active; 'I' for Inactive)
REMARK    1  A    between atoms: C_4  and  N_5 
REMARK       I    between atoms: N_5  and  C_6 
REMARK    2  A    between atoms: C_6  and  C_7 
REMARK    3  A    between atoms: C_11  and  C_12 
REMARK    4  A    between atoms: C_18  and  N_19 
REMARK       I    between atoms: N_19  and  C_20 
ROOT
HETATM    1  N   UNL     1       6.217  33.396  63.663  1.00  0.00    -0.320 N 
HETATM    2  C   UNL     1       5.813  32.219  63.068  1.00  0.00     0.276 C 
HETATM    3  O   UNL     1       4.866  31.528  63.427  1.00  0.00    -0.266 OA
HETATM    4  H   UNL     1       6.877  33.948  63.121  1.00  0.00     0.169 HD
ENDROOT
BRANCH   1   5
HETATM    5  C   UNL     1       5.709  34.035  64.821  1.00  0.00     0.062 A 
HETATM    6  C   UNL     1       6.373  33.915  66.056  1.00  0.00     0.038 A 
HETATM    7  C   UNL     1       5.934  34.578  67.212  1.00  0.00    -0.060 A 
HETATM    8  C   UNL     1       6.672  34.429  68.509  1.00  0.00     0.048 C 
HETATM    9  C   UNL     1       4.832  35.420  67.126  1.00  0.00     0.009 A 
HETATM   10  C   UNL     1       4.162  35.564  65.912  1.00  0.00     0.032 A 
HETATM   11  C   UNL     1       4.562  34.866  64.754  1.00  0.00     0.061 A 
BRANCH  11  12
HETATM   12  N   UNL     1       3.739  35.128  63.625  1.00  0.00    -0.326 N 
HETATM   13  C   UNL     1       2.619  34.463  63.181  1.00  0.00     0.218 C 
HETATM   14  C   UNL     1       2.058  35.046  61.909  1.00  0.00     0.117 C 
HETATM   15  O   UNL     1       2.076  33.514  63.733  1.00  0.00    -0.274 OA
HETATM   16  H   UNL     1       3.910  36.017  63.172  1.00  0.00     0.169 HD
ENDBRANCH  11  12
ENDBRANCH   1   5
BRANCH   2  17
HETATM   17  C   UNL     1       6.562  31.838  61.897  1.00  0.00     0.142 A 
HETATM   18  N   UNL     1       6.058  32.078  60.645  1.00  0.00    -0.271 N 
HETATM   19  H   UNL     1       5.162  32.504  60.427  1.00  0.00     0.189 HD
HETATM   20  N   UNL     1       6.870  31.722  59.638  1.00  0.00    -0.177 NA
HETATM   21  C   UNL     1       7.919  31.179  60.267  1.00  0.00     0.083 A 
HETATM   22  C   UNL     1       7.761  31.190  61.674  1.00  0.00     0.094 A 
HETATM   23 CL   UNL     1       8.823  30.497  62.806  1.00  0.00    -0.079 Cl
BRANCH  21  24
HETATM   24  C   UNL     1       9.130  30.621  59.524  1.00  0.00     0.041 A 
HETATM   25  C   UNL     1       9.079  30.520  58.012  1.00  0.00     0.011 A 
HETATM   26  C   UNL     1       9.932  31.564  58.647  1.00  0.00     0.011 A 
ENDBRANCH  21  24
ENDBRANCH   2  17
TORSDOF 4
ENDMDL
MODEL 6
REMARK VINA RESULT:      -7.6      2.242      7.672
REMARK  4 active torsions:
REMARK  status: ('A' for Active; 'I' for Inactive)
REMARK    1  A    between atoms: C_4  and  N_5 
REMARK       I    between atoms: N_5  and  C_6 
REMARK    2  A    between atoms: C_6  and  C_7 
REMARK    3  A    between atoms: C_11  and  C_12 
REMARK    4  A    between atoms: C_18  and  N_19 
REMARK       I    between atoms: N_19  and  C_20 
ROOT
HETATM    1  N   UNL     1       5.588  27.210  51.624  1.00  0.00    -0.320 N 
HETATM    2  C   UNL     1       5.026  26.844  52.829  1.00  0.00     0.276 C 
HETATM    3  O   UNL     1       3.977  27.282  53.289  1.00  0.00    -0.266 OA
HETATM    4  H   UNL     1       6.337  26.606  51.296  1.00  0.00     0.169 HD
ENDROOT
BRANCH   1   5
HETATM    5  C   UNL     1       5.154  28.187  50.693  1.00  0.00     0.062 A 
HETATM    6  C   UNL     1       5.585  29.522  50.801  1.00  0.00     0.038 A 
HETATM    7  C   UNL     1       5.224  30.505  49.867  1.00  0.00    -0.060 A 
HETATM    8  C   UNL     1       5.707  31.917  50.013  1.00  0.00     0.048 C 
HETATM    9  C   UNL     1       4.450  30.139  48.772  1.00  0.00     0.009 A 
HETATM   10  C   UNL     1       4.019  28.820  48.636  1.00  0.00     0.032 A 
HETATM   11  C   UNL     1       4.333  27.833  49.593  1.00  0.00     0.061 A 
BRANCH  11  12
HETATM   12  N   UNL     1       3.781  26.559  49.289  1.00  0.00    -0.326 N 
HETATM   13  C   UNL     1       3.741  25.881  48.093  1.00  0.00     0.218 C 
HETATM   14  C   UNL     1       3.023  24.559  48.192  1.00  0.00     0.117 C 
HETATM   15  O   UNL     1       4.243  26.249  47.037  1.00  0.00    -0.274 OA
HETATM   16  H   UNL     1       3.517  26.007  50.097  1.00  0.00     0.169 HD
ENDBRANCH  11  12
ENDBRANCH   1   5
BRANCH   2  17
HETATM   17  C   UNL     1       5.738  25.816  53.548  1.00  0.00     0.142 A 
HETATM   18  N   UNL     1       5.383  25.499  54.834  1.00  0.00    -0.271 N 
HETATM   19  H   UNL     1       4.646  25.935  55.381  1.00  0.00     0.189 HD
HETATM   20  N   UNL     1       6.088  24.495  55.376  1.00  0.00    -0.177 NA
HETATM   21  C   UNL     1       6.971  24.188  54.418  1.00  0.00     0.083 A 
HETATM   22  C   UNL     1       6.822  25.007  53.273  1.00  0.00     0.094 A 
HETATM   23 CL   UNL     1       7.821  24.995  51.898  1.00  0.00    -0.079 Cl
BRANCH  21  24
HETATM   24  C   UNL     1       8.006  23.077  54.575  1.00  0.00     0.041 A 
HETATM   25  C   UNL     1       7.614  21.807  55.303  1.00  0.00     0.011 A 
HETATM   26  C   UNL     1       7.786  21.778  53.824  1.00  0.00     0.011 A 
ENDBRANCH  21  24
ENDBRANCH   2  17
TORSDOF 4
ENDMDL
MODEL 7
REMARK VINA RESULT:      -7.5      6.140      9.341
REMARK  4 active torsions:
REMARK  status: ('A' for Active; 'I' for Inactive)
REMARK    1  A    between atoms: C_4  and  N_5 
REMARK       I    between atoms: N_5  and  C_6 
REMARK    2  A    between atoms: C_6  and  C_7 
REMARK    3  A    between atoms: C_11  and  C_12 
REMARK    4  A    between atoms: C_18  and  N_19 
REMARK       I    between atoms: N_19  and  C_20 
ROOT
HETATM    1  N   UNL     1       7.031  29.561  58.345  1.00  0.00    -0.320 N 
HETATM    2  C   UNL     1       7.934  30.517  58.762  1.00  0.00     0.276 C 
HETATM    3  O   UNL     1       9.038  30.718  58.267  1.00  0.00    -0.266 OA
HETATM    4  H   UNL     1       6.091  29.665  58.718  1.00  0.00     0.169 HD
ENDROOT
BRANCH   1   5
HETATM    5  C   UNL     1       7.171  28.574  57.338  1.00  0.00     0.062 A 
HETATM    6  C   UNL     1       7.737  27.320  57.636  1.00  0.00     0.038 A 
HETATM    7  C   UNL     1       7.840  26.298  56.680  1.00  0.00    -0.060 A 
HETATM    8  C   UNL     1       8.445  24.973  57.037  1.00  0.00     0.048 C 
HETATM    9  C   UNL     1       7.326  26.513  55.407  1.00  0.00     0.009 A 
HETATM   10  C   UNL     1       6.751  27.743  55.090  1.00  0.00     0.032 A 
HETATM   11  C   UNL     1       6.685  28.797  56.025  1.00  0.00     0.061 A 
BRANCH  11  12
HETATM   12  N   UNL     1       6.086  29.976  55.504  1.00  0.00    -0.326 N 
HETATM   13  C   UNL     1       4.973  30.661  55.934  1.00  0.00     0.218 C 
HETATM   14  C   UNL     1       4.649  31.854  55.072  1.00  0.00     0.117 C 
HETATM   15  O   UNL     1       4.297  30.393  56.921  1.00  0.00    -0.274 OA
HETATM   16  H   UNL     1       6.643  30.466  54.815  1.00  0.00     0.169 HD
ENDBRANCH  11  12
ENDBRANCH   1   5
BRANCH   2  17
HETATM   17  C   UNL     1       7.477  31.363  59.835  1.00  0.00     0.142 A 
HETATM   18  N   UNL     1       6.154  31.714  59.924  1.00  0.00    -0.271 N 
HETATM   19  H   UNL     1       5.415  31.449  59.279  1.00  0.00     0.189 HD
HETATM   20  N   UNL     1       5.845  32.464  60.993  1.00  0.00    -0.177 NA
HETATM   21  C   UNL     1       7.029  32.648  61.590  1.00  0.00     0.083 A 
HETATM   22  C   UNL     1       8.085  32.017  60.889  1.00  0.00     0.094 A 
HETATM   23 CL   UNL     1       9.738  32.112  61.271  1.00  0.00    -0.079 Cl
BRANCH  21  24
HETATM   24  C   UNL     1       7.188  33.453  62.877  1.00  0.00     0.041 A 
HETATM   25  C   UNL     1       6.238  33.189  64.029  1.00  0.00     0.011 A 
HETATM   26  C   UNL     1       7.651  32.727  64.126  1.00  0.00     0.011 A 
ENDBRANCH  21  24
ENDBRANCH   2  17
TORSDOF 4
ENDMDL
MODEL 8
REMARK VINA RESULT:      -7.5      2.042      2.197
REMARK  4 active torsions:
REMARK  status: ('A' for Active; 'I' for Inactive)
REMARK    1  A    between atoms: C_4  and  N_5 
REMARK       I    between atoms: N_5  and  C_6 
REMARK    2  A    between atoms: C_6  and  C_7 
REMARK    3  A    between atoms: C_11  and  C_12 
REMARK    4  A    between atoms: C_18  and  N_19 
REMARK       I    between atoms: N_19  and  C_20 
ROOT
HETATM    1  N   UNL     1       6.164  25.131  53.586  1.00  0.00    -0.320 N 
HETATM    2  C   UNL     1       6.445  26.437  53.241  1.00  0.00     0.276 C 
HETATM    3  O   UNL     1       7.564  26.939  53.203  1.00  0.00    -0.266 OA
HETATM    4  H   UNL     1       5.221  24.821  53.364  1.00  0.00     0.169 HD
ENDROOT
BRANCH   1   5
HETATM    5  C   UNL     1       7.043  24.112  54.029  1.00  0.00     0.062 A 
HETATM    6  C   UNL     1       7.192  22.923  53.290  1.00  0.00     0.038 A 
HETATM    7  C   UNL     1       8.095  21.916  53.665  1.00  0.00    -0.060 A 
HETATM    8  C   UNL     1       8.229  20.664  52.849  1.00  0.00     0.048 C 
HETATM    9  C   UNL     1       8.903  22.117  54.777  1.00  0.00     0.009 A 
HETATM   10  C   UNL     1       8.782  23.291  55.520  1.00  0.00     0.032 A 
HETATM   11  C   UNL     1       7.845  24.290  55.184  1.00  0.00     0.061 A 
BRANCH  11  12
HETATM   12  N   UNL     1       7.858  25.396  56.076  1.00  0.00    -0.326 N 
HETATM   13  C   UNL     1       6.834  25.940  56.818  1.00  0.00     0.218 C 
HETATM   14  C   UNL     1       7.263  27.145  57.615  1.00  0.00     0.117 C 
HETATM   15  O   UNL     1       5.686  25.515  56.885  1.00  0.00    -0.274 OA
HETATM   16  H   UNL     1       8.780  25.737  56.316  1.00  0.00     0.169 HD
ENDBRANCH  11  12
ENDBRANCH   1   5
BRANCH   2  17
HETATM   17  C   UNL     1       5.304  27.224  52.847  1.00  0.00     0.142 A 
HETATM   18  N   UNL     1       4.275  27.440  53.727  1.00  0.00    -0.271 N 
HETATM   19  H   UNL     1       4.206  27.080  54.675  1.00  0.00     0.189 HD
HETATM   20  N   UNL     1       3.295  28.227  53.259  1.00  0.00    -0.177 NA
HETATM   21  C   UNL     1       3.682  28.487  52.004  1.00  0.00     0.083 A 
HETATM   22  C   UNL     1       4.908  27.854  51.683  1.00  0.00     0.094 A 
HETATM   23 CL   UNL     1       5.666  27.854  50.162  1.00  0.00    -0.079 Cl
BRANCH  21  24
HETATM   24  C   UNL     1       2.873  29.366  51.055  1.00  0.00     0.041 A 
HETATM   25  C   UNL     1       2.590  28.863  49.653  1.00  0.00     0.011 A 
HETATM   26  C   UNL     1       1.486  28.902  50.653  1.00  0.00     0.011 A 
ENDBRANCH  21  24
ENDBRANCH   2  17
TORSDOF 4
ENDMDL
MODEL 9
REMARK VINA RESULT:      -7.4      4.720      7.786
REMARK  4 active torsions:
REMARK  status: ('A' for Active; 'I' for Inactive)
REMARK    1  A    between atoms: C_4  and  N_5 
REMARK       I    between atoms: N_5  and  C_6 
REMARK    2  A    between atoms: C_6  and  C_7 
REMARK    3  A    between atoms: C_11  and  C_12 
REMARK    4  A    between atoms: C_18  and  N_19 
REMARK       I    between atoms: N_19  and  C_20 
ROOT
HETATM    1  N   UNL     1       7.277  29.501  57.301  1.00  0.00    -0.320 N 
HETATM    2  C   UNL     1       6.273  28.631  56.928  1.00  0.00     0.276 C 
HETATM    3  O   UNL     1       5.198  28.495  57.502  1.00  0.00    -0.266 OA
HETATM    4  H   UNL     1       8.005  29.642  56.606  1.00  0.00     0.169 HD
ENDROOT
BRANCH   1   5
HETATM    5  C   UNL     1       7.345  30.362  58.425  1.00  0.00     0.062 A 
HETATM    6  C   UNL     1       8.307  30.154  59.431  1.00  0.00     0.038 A 
HETATM    7  C   UNL     1       8.443  31.017  60.528  1.00  0.00    -0.060 A 
HETATM    8  C   UNL     1       9.484  30.764  61.579  1.00  0.00     0.048 C 
HETATM    9  C   UNL     1       7.631  32.142  60.603  1.00  0.00     0.009 A 
HETATM   10  C   UNL     1       6.677  32.376  59.614  1.00  0.00     0.032 A 
HETATM   11  C   UNL     1       6.496  31.491  58.532  1.00  0.00     0.061 A 
BRANCH  11  12
HETATM   12  N   UNL     1       5.459  31.891  57.645  1.00  0.00    -0.326 N 
HETATM   13  C   UNL     1       4.099  31.706  57.742  1.00  0.00     0.218 C 
HETATM   14  C   UNL     1       3.346  32.256  56.558  1.00  0.00     0.117 C 
HETATM   15  O   UNL     1       3.506  31.185  58.680  1.00  0.00    -0.274 OA
HETATM   16  H   UNL     1       5.747  32.535  56.918  1.00  0.00     0.169 HD
ENDBRANCH  11  12
ENDBRANCH   1   5
BRANCH   2  17
HETATM   17  C   UNL     1       6.532  27.880  55.725  1.00  0.00     0.142 A 
HETATM   18  N   UNL     1       7.134  28.482  54.650  1.00  0.00    -0.271 N 
HETATM   19  H   UNL     1       7.425  29.453  54.587  1.00  0.00     0.189 HD
HETATM   20  N   UNL     1       7.364  27.666  53.609  1.00  0.00    -0.177 NA
HETATM   21  C   UNL     1       6.838  26.502  54.011  1.00  0.00     0.083 A 
HETATM   22  C   UNL     1       6.272  26.590  55.305  1.00  0.00     0.094 A 
HETATM   23 CL   UNL     1       5.419  25.361  56.111  1.00  0.00    -0.079 Cl
BRANCH  21  24
HETATM   24  C   UNL     1       6.863  25.244  53.147  1.00  0.00     0.041 A 
HETATM   25  C   UNL     1       7.989  25.062  52.149  1.00  0.00     0.011 A 
HETATM   26  C   UNL     1       7.967  24.231  53.384  1.00  0.00     0.011 A 
ENDBRANCH  21  24
ENDBRANCH   2  17
TORSDOF 4
ENDMDL
MODEL 10
REMARK VINA RESULT:      -7.3      7.124     10.573
REMARK  4 active torsions:
REMARK  status: ('A' for Active; 'I' for Inactive)
REMARK    1  A    between atoms: C_4  and  N_5 
REMARK       I    between atoms: N_5  and  C_6 
REMARK    2  A    between atoms: C_6  and  C_7 
REMARK    3  A    between atoms: C_11  and  C_12 
REMARK    4  A    between atoms: C_18  and  N_19 
REMARK       I    between atoms: N_19  and  C_20 
ROOT
HETATM    1  N   UNL     1       6.345  31.652  60.133  1.00  0.00    -0.320 N 
HETATM    2  C   UNL     1       7.333  31.558  59.176  1.00  0.00     0.276 C 
HETATM    3  O   UNL     1       8.304  32.300  59.077  1.00  0.00    -0.266 OA
HETATM    4  H   UNL     1       5.734  30.842  60.204  1.00  0.00     0.169 HD
ENDROOT
BRANCH   1   5
HETATM    5  C   UNL     1       6.173  32.624  61.150  1.00  0.00     0.062 A 
HETATM    6  C   UNL     1       6.826  32.488  62.389  1.00  0.00     0.038 A 
HETATM    7  C   UNL     1       6.727  33.457  63.399  1.00  0.00    -0.060 A 
HETATM    8  C   UNL     1       7.442  33.279  64.706  1.00  0.00     0.048 C 
HETATM    9  C   UNL     1       5.996  34.612  63.153  1.00  0.00     0.009 A 
HETATM   10  C   UNL     1       5.348  34.776  61.930  1.00  0.00     0.032 A 
HETATM   11  C   UNL     1       5.398  33.788  60.924  1.00  0.00     0.061 A 
BRANCH  11  12
HETATM   12  N   UNL     1       4.654  34.130  59.762  1.00  0.00    -0.326 N 
HETATM   13  C   UNL     1       3.403  33.715  59.366  1.00  0.00     0.218 C 
HETATM   14  C   UNL     1       2.989  34.290  58.035  1.00  0.00     0.117 C 
HETATM   15  O   UNL     1       2.650  32.984  59.999  1.00  0.00    -0.274 OA
HETATM   16  H   UNL     1       5.032  34.903  59.228  1.00  0.00     0.169 HD
ENDBRANCH  11  12
ENDBRANCH   1   5
BRANCH   2  17
HETATM   17  C   UNL     1       7.201  30.444  58.270  1.00  0.00     0.142 A 
HETATM   18  N   UNL     1       5.973  29.876  58.045  1.00  0.00    -0.271 N 
HETATM   19  H   UNL     1       5.094  30.151  58.474  1.00  0.00     0.189 HD
HETATM   20  N   UNL     1       5.974  28.880  57.146  1.00  0.00    -0.177 NA
HETATM   21  C   UNL     1       7.266  28.765  56.817  1.00  0.00     0.083 A 
HETATM   22  C   UNL     1       8.080  29.689  57.518  1.00  0.00     0.094 A 
HETATM   23 CL   UNL     1       9.775  29.778  57.454  1.00  0.00    -0.079 Cl
BRANCH  21  24
HETATM   24  C   UNL     1       7.772  27.744  55.801  1.00  0.00     0.041 A 
HETATM   25  C   UNL     1       6.819  27.234  54.738  1.00  0.00     0.011 A 
HETATM   26  C   UNL     1       7.906  28.177  54.353  1.00  0.00     0.011 A 
ENDBRANCH  21  24
ENDBRANCH   2  17
TORSDOF 4
ENDMDL
