MODEL 1
REMARK VINA RESULT:      -9.1      0.000      0.000
REMARK  8 active torsions:
REMARK  status: ('A' for Active; 'I' for Inactive)
REMARK    1  A    between atoms: C_7  and  C_8 
REMARK       I    between atoms: C_8  and  N_9 
REMARK    2  A    between atoms: N_9  and  C_10 
REMARK    3  A    between atoms: C_11  and  C_12 
REMARK       I    between atoms: C_12  and  N_13 
REMARK    4  A    between atoms: N_13  and  C_14 
REMARK    5  A    between atoms: C_14  and  C_15 
REMARK    6  A    between atoms: C_15  and  C_16 
REMARK    7  A    between atoms: C_18  and  O_19 
REMARK    8  A    between atoms: C_21  and  O_22 
ROOT
HETATM    1  C   UNL     1       7.179  23.691  53.755  1.00  0.00     0.050 A 
HETATM    2  C   UNL     1       7.262  23.519  55.156  1.00  0.00     0.058 A 
HETATM    3  C   UNL     1       7.698  22.296  55.701  1.00  0.00     0.019 A 
HETATM    4  C   UNL     1       8.081  21.251  54.865  1.00  0.00     0.001 A 
HETATM    5  C   UNL     1       8.023  21.418  53.487  1.00  0.00     0.002 A 
HETATM    6  C   UNL     1       7.574  22.625  52.938  1.00  0.00     0.030 A 
ENDROOT
BRANCH   2   7
HETATM    7  C   UNL     1       6.886  24.619  56.085  1.00  0.00     0.253 C 
HETATM    8  N   UNL     1       7.926  25.372  56.589  1.00  0.00    -0.356 N 
HETATM    9  H   UNL     1       8.863  25.240  56.227  1.00  0.00     0.162 HD
HETATM   10  O   UNL     1       5.710  24.844  56.342  1.00  0.00    -0.268 OA
BRANCH   8  11
HETATM   11  C   UNL     1       7.680  26.475  57.498  1.00  0.00     0.127 C 
BRANCH  11  12
HETATM   12  C   UNL     1       8.542  27.705  57.196  1.00  0.00     0.058 C 
BRANCH  12  13
HETATM   13  C   UNL     1       8.008  29.047  57.653  1.00  0.00    -0.054 A 
HETATM   14  C   UNL     1       8.823  30.031  58.233  1.00  0.00     0.046 A 
HETATM   15  C   UNL     1       8.288  31.256  58.658  1.00  0.00     0.102 A 
HETATM   16  C   UNL     1       6.908  31.499  58.525  1.00  0.00     0.101 A 
HETATM   17  C   UNL     1       6.089  30.514  57.966  1.00  0.00     0.040 A 
HETATM   18  C   UNL     1       6.635  29.300  57.539  1.00  0.00     0.010 A 
BRANCH  15  19
HETATM   19  O   UNL     1       9.026  32.272  59.215  1.00  0.00    -0.353 OA
HETATM   20  C   UNL     1       9.535  32.080  60.526  1.00  0.00     0.210 C 
ENDBRANCH  15  19
BRANCH  16  21
HETATM   21  O   UNL     1       6.461  32.721  58.963  1.00  0.00    -0.353 OA
HETATM   22  C   UNL     1       5.639  32.745  60.121  1.00  0.00     0.210 C 
ENDBRANCH  16  21
ENDBRANCH  12  13
ENDBRANCH  11  12
ENDBRANCH   8  11
ENDBRANCH   2   7
BRANCH   1  23
HETATM   23  N   UNL     1       6.705  24.919  53.225  1.00  0.00    -0.321 N 
HETATM   24  C   UNL     1       5.405  25.288  52.926  1.00  0.00     0.265 C 
HETATM   25  O   UNL     1       4.434  24.547  53.049  1.00  0.00    -0.267 OA
HETATM   26  H   UNL     1       7.422  25.629  53.046  1.00  0.00     0.169 HD
BRANCH  24  27
HETATM   27  C   UNL     1       5.256  26.714  52.387  1.00  0.00     0.097 C 
HETATM   28  C   UNL     1       5.121  27.779  53.219  1.00  0.00     0.064 C 
HETATM   29  C   UNL     1       5.081  27.679  54.723  1.00  0.00     0.078 C 
HETATM   30  O   UNL     1       4.990  29.103  52.824  1.00  0.00    -0.353 OA
HETATM   31  C   UNL     1       5.372  29.427  51.489  1.00  0.00     0.185 C 
HETATM   32  C   UNL     1       4.633  28.573  50.484  1.00  0.00     0.106 C 
HETATM   33  S   UNL     1       5.234  26.879  50.641  1.00  0.00    -0.120 SA
ENDBRANCH  24  27
ENDBRANCH   1  23
TORSDOF 8
ENDMDL
MODEL 2
REMARK VINA RESULT:      -8.9      3.312      8.983
REMARK  8 active torsions:
REMARK  status: ('A' for Active; 'I' for Inactive)
REMARK    1  A    between atoms: C_7  and  C_8 
REMARK       I    between atoms: C_8  and  N_9 
REMARK    2  A    between atoms: N_9  and  C_10 
REMARK    3  A    between atoms: C_11  and  C_12 
REMARK       I    between atoms: C_12  and  N_13 
REMARK    4  A    between atoms: N_13  and  C_14 
REMARK    5  A    between atoms: C_14  and  C_15 
REMARK    6  A    between atoms: C_15  and  C_16 
REMARK    7  A    between atoms: C_18  and  O_19 
REMARK    8  A    between atoms: C_21  and  O_22 
ROOT
HETATM    1  C   UNL     1       8.767  30.356  58.279  1.00  0.00     0.050 A 
HETATM    2  C   UNL     1       8.286  29.572  57.206  1.00  0.00     0.058 A 
HETATM    3  C   UNL     1       9.157  29.146  56.184  1.00  0.00     0.019 A 
HETATM    4  C   UNL     1      10.510  29.470  56.235  1.00  0.00     0.001 A 
HETATM    5  C   UNL     1      10.997  30.222  57.297  1.00  0.00     0.002 A 
HETATM    6  C   UNL     1      10.133  30.664  58.307  1.00  0.00     0.030 A 
ENDROOT
BRANCH   2   7
HETATM    7  C   UNL     1       6.852  29.182  57.126  1.00  0.00     0.253 C 
HETATM    8  N   UNL     1       6.596  27.859  56.830  1.00  0.00    -0.356 N 
HETATM    9  H   UNL     1       7.359  27.194  56.803  1.00  0.00     0.162 HD
HETATM   10  O   UNL     1       5.970  30.002  57.351  1.00  0.00    -0.268 OA
BRANCH   8  11
HETATM   11  C   UNL     1       5.236  27.364  56.734  1.00  0.00     0.127 C 
BRANCH  11  12
HETATM   12  C   UNL     1       5.134  25.849  56.940  1.00  0.00     0.058 C 
BRANCH  12  13
HETATM   13  C   UNL     1       6.027  24.977  56.080  1.00  0.00    -0.054 A 
HETATM   14  C   UNL     1       7.021  24.146  56.618  1.00  0.00     0.046 A 
HETATM   15  C   UNL     1       7.838  23.364  55.788  1.00  0.00     0.102 A 
HETATM   16  C   UNL     1       7.679  23.430  54.390  1.00  0.00     0.101 A 
HETATM   17  C   UNL     1       6.704  24.272  53.850  1.00  0.00     0.040 A 
HETATM   18  C   UNL     1       5.890  25.039  54.688  1.00  0.00     0.010 A 
BRANCH  15  19
HETATM   19  O   UNL     1       8.816  22.513  56.242  1.00  0.00    -0.353 OA
HETATM   20  C   UNL     1       8.410  21.261  56.775  1.00  0.00     0.210 C 
ENDBRANCH  15  19
BRANCH  16  21
HETATM   21  O   UNL     1       8.517  22.635  53.646  1.00  0.00    -0.353 OA
HETATM   22  C   UNL     1       7.957  21.489  53.024  1.00  0.00     0.210 C 
ENDBRANCH  16  21
ENDBRANCH  12  13
ENDBRANCH  11  12
ENDBRANCH   8  11
ENDBRANCH   2   7
BRANCH   1  23
HETATM   23  N   UNL     1       7.867  30.804  59.281  1.00  0.00    -0.321 N 
HETATM   24  C   UNL     1       7.847  32.018  59.945  1.00  0.00     0.265 C 
HETATM   25  O   UNL     1       8.674  32.909  59.777  1.00  0.00    -0.267 OA
HETATM   26  H   UNL     1       7.131  30.141  59.540  1.00  0.00     0.169 HD
BRANCH  24  27
HETATM   27  C   UNL     1       6.707  32.171  60.956  1.00  0.00     0.097 C 
HETATM   28  C   UNL     1       6.895  31.945  62.282  1.00  0.00     0.064 C 
HETATM   29  C   UNL     1       8.205  31.508  62.889  1.00  0.00     0.078 C 
HETATM   30  O   UNL     1       5.928  32.067  63.269  1.00  0.00    -0.353 OA
HETATM   31  C   UNL     1       4.757  32.815  62.947  1.00  0.00     0.185 C 
HETATM   32  C   UNL     1       4.082  32.270  61.710  1.00  0.00     0.106 C 
HETATM   33  S   UNL     1       5.146  32.618  60.294  1.00  0.00    -0.120 SA
ENDBRANCH  24  27
ENDBRANCH   1  23
TORSDOF 8
ENDMDL
MODEL 3
REMARK VINA RESULT:      -8.4      1.269      2.178
REMARK  8 active torsions:
REMARK  status: ('A' for Active; 'I' for Inactive)
REMARK    1  A    between atoms: C_7  and  C_8 
REMARK       I    between atoms: C_8  and  N_9 
REMARK    2  A    between atoms: N_9  and  C_10 
REMARK    3  A    between atoms: C_11  and  C_12 
REMARK       I    between atoms: C_12  and  N_13 
REMARK    4  A    between atoms: N_13  and  C_14 
REMARK    5  A    between atoms: C_14  and  C_15 
REMARK    6  A    between atoms: C_15  and  C_16 
REMARK    7  A    between atoms: C_18  and  O_19 
REMARK    8  A    between atoms: C_21  and  O_22 
ROOT
HETATM    1  C   UNL     1       7.057  24.133  53.806  1.00  0.00     0.050 A 
HETATM    2  C   UNL     1       7.307  23.918  55.181  1.00  0.00     0.058 A 
HETATM    3  C   UNL     1       7.898  22.718  55.621  1.00  0.00     0.019 A 
HETATM    4  C   UNL     1       8.270  21.740  54.702  1.00  0.00     0.001 A 
HETATM    5  C   UNL     1       8.048  21.952  53.346  1.00  0.00     0.002 A 
HETATM    6  C   UNL     1       7.445  23.134  52.904  1.00  0.00     0.030 A 
ENDROOT
BRANCH   2   7
HETATM    7  C   UNL     1       6.948  24.947  56.194  1.00  0.00     0.253 C 
HETATM    8  N   UNL     1       7.991  25.696  56.697  1.00  0.00    -0.356 N 
HETATM    9  H   UNL     1       8.913  25.613  56.285  1.00  0.00     0.162 HD
HETATM   10  O   UNL     1       5.780  25.123  56.517  1.00  0.00    -0.268 OA
BRANCH   8  11
HETATM   11  C   UNL     1       7.760  26.733  57.684  1.00  0.00     0.127 C 
BRANCH  11  12
HETATM   12  C   UNL     1       8.304  28.100  57.255  1.00  0.00     0.058 C 
BRANCH  12  13
HETATM   13  C   UNL     1       7.690  29.320  57.912  1.00  0.00    -0.054 A 
HETATM   14  C   UNL     1       6.480  29.885  57.482  1.00  0.00     0.046 A 
HETATM   15  C   UNL     1       5.951  31.024  58.106  1.00  0.00     0.102 A 
HETATM   16  C   UNL     1       6.654  31.631  59.165  1.00  0.00     0.101 A 
HETATM   17  C   UNL     1       7.870  31.084  59.582  1.00  0.00     0.040 A 
HETATM   18  C   UNL     1       8.383  29.942  58.958  1.00  0.00     0.010 A 
BRANCH  15  19
HETATM   19  O   UNL     1       4.764  31.620  57.755  1.00  0.00    -0.353 OA
HETATM   20  C   UNL     1       3.566  30.887  57.968  1.00  0.00     0.210 C 
ENDBRANCH  15  19
BRANCH  16  21
HETATM   21  O   UNL     1       6.072  32.742  59.723  1.00  0.00    -0.353 OA
HETATM   22  C   UNL     1       5.614  32.643  61.063  1.00  0.00     0.210 C 
ENDBRANCH  16  21
ENDBRANCH  12  13
ENDBRANCH  11  12
ENDBRANCH   8  11
ENDBRANCH   2   7
BRANCH   1  23
HETATM   23  N   UNL     1       6.429  25.334  53.386  1.00  0.00    -0.321 N 
HETATM   24  C   UNL     1       5.101  25.549  53.064  1.00  0.00     0.265 C 
HETATM   25  O   UNL     1       4.243  24.672  53.060  1.00  0.00    -0.267 OA
HETATM   26  H   UNL     1       7.042  26.152  53.319  1.00  0.00     0.169 HD
BRANCH  24  27
HETATM   27  C   UNL     1       4.766  26.991  52.672  1.00  0.00     0.097 C 
HETATM   28  C   UNL     1       4.766  27.395  51.374  1.00  0.00     0.064 C 
HETATM   29  C   UNL     1       5.108  26.502  50.209  1.00  0.00     0.078 C 
HETATM   30  O   UNL     1       4.468  28.674  50.925  1.00  0.00    -0.353 OA
HETATM   31  C   UNL     1       3.773  29.536  51.824  1.00  0.00     0.185 C 
HETATM   32  C   UNL     1       4.513  29.673  53.135  1.00  0.00     0.106 C 
HETATM   33  S   UNL     1       4.421  28.089  53.995  1.00  0.00    -0.120 SA
ENDBRANCH  24  27
ENDBRANCH   1  23
TORSDOF 8
ENDMDL
MODEL 4
REMARK VINA RESULT:      -8.3      2.220      7.564
REMARK  8 active torsions:
REMARK  status: ('A' for Active; 'I' for Inactive)
REMARK    1  A    between atoms: C_7  and  C_8 
REMARK       I    between atoms: C_8  and  N_9 
REMARK    2  A    between atoms: N_9  and  C_10 
REMARK    3  A    between atoms: C_11  and  C_12 
REMARK       I    between atoms: C_12  and  N_13 
REMARK    4  A    between atoms: N_13  and  C_14 
REMARK    5  A    between atoms: C_14  and  C_15 
REMARK    6  A    between atoms: C_15  and  C_16 
REMARK    7  A    between atoms: C_18  and  O_19 
REMARK    8  A    between atoms: C_21  and  O_22 
ROOT
HETATM    1  C   UNL     1       6.177  30.747  57.058  1.00  0.00     0.050 A 
HETATM    2  C   UNL     1       7.257  30.247  57.821  1.00  0.00     0.058 A 
HETATM    3  C   UNL     1       7.571  30.810  59.073  1.00  0.00     0.019 A 
HETATM    4  C   UNL     1       6.800  31.849  59.588  1.00  0.00     0.001 A 
HETATM    5  C   UNL     1       5.723  32.333  58.856  1.00  0.00     0.002 A 
HETATM    6  C   UNL     1       5.417  31.790  57.603  1.00  0.00     0.030 A 
ENDROOT
BRANCH   2   7
HETATM    7  C   UNL     1       8.091  29.120  57.319  1.00  0.00     0.253 C 
HETATM    8  N   UNL     1       7.665  27.852  57.652  1.00  0.00    -0.356 N 
HETATM    9  H   UNL     1       6.765  27.726  58.101  1.00  0.00     0.162 HD
HETATM   10  O   UNL     1       9.074  29.336  56.621  1.00  0.00    -0.268 OA
BRANCH   8  11
HETATM   11  C   UNL     1       8.393  26.678  57.212  1.00  0.00     0.127 C 
BRANCH  11  12
HETATM   12  C   UNL     1       7.637  25.371  57.472  1.00  0.00     0.058 C 
BRANCH  12  13
HETATM   13  C   UNL     1       7.663  24.331  56.370  1.00  0.00    -0.054 A 
HETATM   14  C   UNL     1       7.225  24.598  55.064  1.00  0.00     0.046 A 
HETATM   15  C   UNL     1       7.251  23.605  54.074  1.00  0.00     0.102 A 
HETATM   16  C   UNL     1       7.698  22.310  54.397  1.00  0.00     0.101 A 
HETATM   17  C   UNL     1       8.116  22.034  55.701  1.00  0.00     0.040 A 
HETATM   18  C   UNL     1       8.094  23.034  56.677  1.00  0.00     0.010 A 
BRANCH  15  19
HETATM   19  O   UNL     1       6.858  23.798  52.772  1.00  0.00    -0.353 OA
HETATM   20  C   UNL     1       7.611  24.707  51.980  1.00  0.00     0.210 C 
ENDBRANCH  15  19
BRANCH  16  21
HETATM   21  O   UNL     1       7.692  21.393  53.374  1.00  0.00    -0.353 OA
HETATM   22  C   UNL     1       8.764  20.463  53.317  1.00  0.00     0.210 C 
ENDBRANCH  16  21
ENDBRANCH  12  13
ENDBRANCH  11  12
ENDBRANCH   8  11
ENDBRANCH   2   7
BRANCH   1  23
HETATM   23  N   UNL     1       5.898  30.189  55.784  1.00  0.00    -0.321 N 
HETATM   24  C   UNL     1       5.228  29.018  55.480  1.00  0.00     0.265 C 
HETATM   25  O   UNL     1       4.792  28.237  56.321  1.00  0.00    -0.267 OA
HETATM   26  H   UNL     1       6.233  30.732  54.982  1.00  0.00     0.169 HD
BRANCH  24  27
HETATM   27  C   UNL     1       5.087  28.735  53.982  1.00  0.00     0.097 C 
HETATM   28  C   UNL     1       6.112  28.219  53.255  1.00  0.00     0.064 C 
HETATM   29  C   UNL     1       7.473  27.898  53.819  1.00  0.00     0.078 C 
HETATM   30  O   UNL     1       6.074  27.922  51.900  1.00  0.00    -0.353 OA
HETATM   31  C   UNL     1       4.789  27.809  51.292  1.00  0.00     0.185 C 
HETATM   32  C   UNL     1       3.967  29.058  51.511  1.00  0.00     0.106 C 
HETATM   33  S   UNL     1       3.543  29.148  53.262  1.00  0.00    -0.120 SA
ENDBRANCH  24  27
ENDBRANCH   1  23
TORSDOF 8
ENDMDL
MODEL 5
REMARK VINA RESULT:      -8.2      3.355      8.194
REMARK  8 active torsions:
REMARK  status: ('A' for Active; 'I' for Inactive)
REMARK    1  A    between atoms: C_7  and  C_8 
REMARK       I    between atoms: C_8  and  N_9 
REMARK    2  A    between atoms: N_9  and  C_10 
REMARK    3  A    between atoms: C_11  and  C_12 
REMARK       I    between atoms: C_12  and  N_13 
REMARK    4  A    between atoms: N_13  and  C_14 
REMARK    5  A    between atoms: C_14  and  C_15 
REMARK    6  A    between atoms: C_15  and  C_16 
REMARK    7  A    between atoms: C_18  and  O_19 
REMARK    8  A    between atoms: C_21  and  O_22 
ROOT
HETATM    1  C   UNL     1       7.288  24.833  54.586  1.00  0.00     0.050 A 
HETATM    2  C   UNL     1       6.849  24.438  53.301  1.00  0.00     0.058 A 
HETATM    3  C   UNL     1       7.380  23.289  52.685  1.00  0.00     0.019 A 
HETATM    4  C   UNL     1       8.325  22.510  53.348  1.00  0.00     0.001 A 
HETATM    5  C   UNL     1       8.747  22.877  54.620  1.00  0.00     0.002 A 
HETATM    6  C   UNL     1       8.236  24.028  55.231  1.00  0.00     0.030 A 
ENDROOT
BRANCH   2   7
HETATM    7  C   UNL     1       5.822  25.228  52.568  1.00  0.00     0.253 C 
HETATM    8  N   UNL     1       6.295  26.095  51.605  1.00  0.00    -0.356 N 
HETATM    9  H   UNL     1       7.274  26.075  51.349  1.00  0.00     0.162 HD
HETATM   10  O   UNL     1       4.630  25.070  52.802  1.00  0.00    -0.268 OA
BRANCH   8  11
HETATM   11  C   UNL     1       5.386  26.911  50.823  1.00  0.00     0.127 C 
BRANCH  11  12
HETATM   12  C   UNL     1       5.105  26.331  49.433  1.00  0.00     0.058 C 
BRANCH  12  13
HETATM   13  C   UNL     1       3.757  26.643  48.817  1.00  0.00    -0.054 A 
HETATM   14  C   UNL     1       3.025  27.796  49.138  1.00  0.00     0.046 A 
HETATM   15  C   UNL     1       1.772  28.044  48.558  1.00  0.00     0.102 A 
HETATM   16  C   UNL     1       1.223  27.111  47.657  1.00  0.00     0.101 A 
HETATM   17  C   UNL     1       1.940  25.951  47.350  1.00  0.00     0.040 A 
HETATM   18  C   UNL     1       3.191  25.720  47.928  1.00  0.00     0.010 A 
BRANCH  15  19
HETATM   19  O   UNL     1       1.008  29.158  48.808  1.00  0.00    -0.353 OA
HETATM   20  C   UNL     1       1.422  30.024  49.856  1.00  0.00     0.210 C 
ENDBRANCH  15  19
BRANCH  16  21
HETATM   21  O   UNL     1      -0.007  27.424  47.133  1.00  0.00    -0.353 OA
HETATM   22  C   UNL     1      -0.111  27.540  45.722  1.00  0.00     0.210 C 
ENDBRANCH  16  21
ENDBRANCH  12  13
ENDBRANCH  11  12
ENDBRANCH   8  11
ENDBRANCH   2   7
BRANCH   1  23
HETATM   23  N   UNL     1       6.766  26.013  55.175  1.00  0.00    -0.321 N 
HETATM   24  C   UNL     1       7.040  27.332  54.860  1.00  0.00     0.265 C 
HETATM   25  O   UNL     1       7.848  27.681  54.004  1.00  0.00    -0.267 OA
HETATM   26  H   UNL     1       6.090  25.867  55.931  1.00  0.00     0.169 HD
BRANCH  24  27
HETATM   27  C   UNL     1       6.269  28.359  55.693  1.00  0.00     0.097 C 
HETATM   28  C   UNL     1       5.036  28.795  55.324  1.00  0.00     0.064 C 
HETATM   29  C   UNL     1       4.318  28.347  54.076  1.00  0.00     0.078 C 
HETATM   30  O   UNL     1       4.261  29.714  56.018  1.00  0.00    -0.353 OA
HETATM   31  C   UNL     1       4.602  29.959  57.380  1.00  0.00     0.185 C 
HETATM   32  C   UNL     1       6.047  30.383  57.516  1.00  0.00     0.106 C 
HETATM   33  S   UNL     1       7.086  28.960  57.123  1.00  0.00    -0.120 SA
ENDBRANCH  24  27
ENDBRANCH   1  23
TORSDOF 8
ENDMDL
MODEL 6
REMARK VINA RESULT:      -8.2      2.003      4.924
REMARK  8 active torsions:
REMARK  status: ('A' for Active; 'I' for Inactive)
REMARK    1  A    between atoms: C_7  and  C_8 
REMARK       I    between atoms: C_8  and  N_9 
REMARK    2  A    between atoms: N_9  and  C_10 
REMARK    3  A    between atoms: C_11  and  C_12 
REMARK       I    between atoms: C_12  and  N_13 
REMARK    4  A    between atoms: N_13  and  C_14 
REMARK    5  A    between atoms: C_14  and  C_15 
REMARK    6  A    between atoms: C_15  and  C_16 
REMARK    7  A    between atoms: C_18  and  O_19 
REMARK    8  A    between atoms: C_21  and  O_22 
ROOT
HETATM    1  C   UNL     1       5.497  25.996  51.999  1.00  0.00     0.050 A 
HETATM    2  C   UNL     1       5.296  27.279  52.559  1.00  0.00     0.058 A 
HETATM    3  C   UNL     1       4.751  28.320  51.784  1.00  0.00     0.019 A 
HETATM    4  C   UNL     1       4.376  28.090  50.462  1.00  0.00     0.001 A 
HETATM    5  C   UNL     1       4.550  26.827  49.909  1.00  0.00     0.002 A 
HETATM    6  C   UNL     1       5.108  25.792  50.669  1.00  0.00     0.030 A 
ENDROOT
BRANCH   2   7
HETATM    7  C   UNL     1       5.659  27.560  53.974  1.00  0.00     0.253 C 
HETATM    8  N   UNL     1       4.654  27.399  54.905  1.00  0.00    -0.356 N 
HETATM    9  H   UNL     1       3.771  26.988  54.624  1.00  0.00     0.162 HD
HETATM   10  O   UNL     1       6.804  27.881  54.272  1.00  0.00    -0.268 OA
BRANCH   8  11
HETATM   11  C   UNL     1       4.893  27.638  56.315  1.00  0.00     0.127 C 
BRANCH  11  12
HETATM   12  C   UNL     1       4.550  29.067  56.748  1.00  0.00     0.058 C 
BRANCH  12  13
HETATM   13  C   UNL     1       5.657  29.873  57.396  1.00  0.00    -0.054 A 
HETATM   14  C   UNL     1       6.992  29.445  57.424  1.00  0.00     0.046 A 
HETATM   15  C   UNL     1       7.986  30.212  58.047  1.00  0.00     0.102 A 
HETATM   16  C   UNL     1       7.641  31.422  58.679  1.00  0.00     0.101 A 
HETATM   17  C   UNL     1       6.308  31.843  58.672  1.00  0.00     0.040 A 
HETATM   18  C   UNL     1       5.328  31.073  58.040  1.00  0.00     0.010 A 
BRANCH  15  19
HETATM   19  O   UNL     1       9.315  29.868  58.097  1.00  0.00    -0.353 OA
HETATM   20  C   UNL     1       9.909  29.345  56.917  1.00  0.00     0.210 C 
ENDBRANCH  15  19
BRANCH  16  21
HETATM   21  O   UNL     1       8.669  32.116  59.268  1.00  0.00    -0.353 OA
HETATM   22  C   UNL     1       8.561  32.405  60.653  1.00  0.00     0.210 C 
ENDBRANCH  16  21
ENDBRANCH  12  13
ENDBRANCH  11  12
ENDBRANCH   8  11
ENDBRANCH   2   7
BRANCH   1  23
HETATM   23  N   UNL     1       6.080  24.969  52.785  1.00  0.00    -0.321 N 
HETATM   24  C   UNL     1       7.413  24.620  52.903  1.00  0.00     0.265 C 
HETATM   25  O   UNL     1       8.323  25.157  52.277  1.00  0.00    -0.267 OA
HETATM   26  H   UNL     1       5.423  24.417  53.346  1.00  0.00     0.169 HD
BRANCH  24  27
HETATM   27  C   UNL     1       7.686  23.466  53.872  1.00  0.00     0.097 C 
HETATM   28  C   UNL     1       7.807  23.672  55.209  1.00  0.00     0.064 C 
HETATM   29  C   UNL     1       7.711  25.024  55.870  1.00  0.00     0.078 C 
HETATM   30  O   UNL     1       8.045  22.691  56.161  1.00  0.00    -0.353 OA
HETATM   31  C   UNL     1       7.797  21.339  55.781  1.00  0.00     0.185 C 
HETATM   32  C   UNL     1       8.572  20.968  54.537  1.00  0.00     0.106 C 
HETATM   33  S   UNL     1       7.868  21.880  53.148  1.00  0.00    -0.120 SA
ENDBRANCH  24  27
ENDBRANCH   1  23
TORSDOF 8
ENDMDL
MODEL 7
REMARK VINA RESULT:      -8.1      2.081      3.249
REMARK  8 active torsions:
REMARK  status: ('A' for Active; 'I' for Inactive)
REMARK    1  A    between atoms: C_7  and  C_8 
REMARK       I    between atoms: C_8  and  N_9 
REMARK    2  A    between atoms: N_9  and  C_10 
REMARK    3  A    between atoms: C_11  and  C_12 
REMARK       I    between atoms: C_12  and  N_13 
REMARK    4  A    between atoms: N_13  and  C_14 
REMARK    5  A    between atoms: C_14  and  C_15 
REMARK    6  A    between atoms: C_15  and  C_16 
REMARK    7  A    between atoms: C_18  and  O_19 
REMARK    8  A    between atoms: C_21  and  O_22 
ROOT
HETATM    1  C   UNL     1       7.319  25.524  55.203  1.00  0.00     0.050 A 
HETATM    2  C   UNL     1       7.595  25.909  56.535  1.00  0.00     0.058 A 
HETATM    3  C   UNL     1       8.366  25.082  57.374  1.00  0.00     0.019 A 
HETATM    4  C   UNL     1       8.892  23.886  56.890  1.00  0.00     0.001 A 
HETATM    5  C   UNL     1       8.644  23.510  55.575  1.00  0.00     0.002 A 
HETATM    6  C   UNL     1       7.863  24.319  54.742  1.00  0.00     0.030 A 
ENDROOT
BRANCH   2   7
HETATM    7  C   UNL     1       7.073  27.191  57.084  1.00  0.00     0.253 C 
HETATM    8  N   UNL     1       8.020  28.115  57.475  1.00  0.00    -0.356 N 
HETATM    9  H   UNL     1       8.997  27.952  57.266  1.00  0.00     0.162 HD
HETATM   10  O   UNL     1       5.868  27.400  57.141  1.00  0.00    -0.268 OA
BRANCH   8  11
HETATM   11  C   UNL     1       7.629  29.402  58.018  1.00  0.00     0.127 C 
BRANCH  11  12
HETATM   12  C   UNL     1       8.727  30.054  58.865  1.00  0.00     0.058 C 
BRANCH  12  13
HETATM   13  C   UNL     1       8.278  30.953  59.998  1.00  0.00    -0.054 A 
HETATM   14  C   UNL     1       7.112  31.731  59.934  1.00  0.00     0.046 A 
HETATM   15  C   UNL     1       6.738  32.563  60.999  1.00  0.00     0.102 A 
HETATM   16  C   UNL     1       7.554  32.642  62.144  1.00  0.00     0.101 A 
HETATM   17  C   UNL     1       8.727  31.885  62.203  1.00  0.00     0.040 A 
HETATM   18  C   UNL     1       9.085  31.053  61.139  1.00  0.00     0.010 A 
BRANCH  15  19
HETATM   19  O   UNL     1       5.602  33.336  61.017  1.00  0.00    -0.353 OA
HETATM   20  C   UNL     1       4.351  32.673  61.126  1.00  0.00     0.210 C 
ENDBRANCH  15  19
BRANCH  16  21
HETATM   21  O   UNL     1       7.120  33.479  63.142  1.00  0.00    -0.353 OA
HETATM   22  C   UNL     1       7.526  33.186  64.471  1.00  0.00     0.210 C 
ENDBRANCH  16  21
ENDBRANCH  12  13
ENDBRANCH  11  12
ENDBRANCH   8  11
ENDBRANCH   2   7
BRANCH   1  23
HETATM   23  N   UNL     1       6.511  26.355  54.385  1.00  0.00    -0.321 N 
HETATM   24  C   UNL     1       5.325  26.047  53.743  1.00  0.00     0.265 C 
HETATM   25  O   UNL     1       4.799  24.938  53.764  1.00  0.00    -0.267 OA
HETATM   26  H   UNL     1       6.849  27.314  54.259  1.00  0.00     0.169 HD
BRANCH  24  27
HETATM   27  C   UNL     1       4.706  27.206  52.957  1.00  0.00     0.097 C 
HETATM   28  C   UNL     1       4.687  27.216  51.598  1.00  0.00     0.064 C 
HETATM   29  C   UNL     1       5.278  26.130  50.735  1.00  0.00     0.078 C 
HETATM   30  O   UNL     1       4.142  28.215  50.804  1.00  0.00    -0.353 OA
HETATM   31  C   UNL     1       3.229  29.118  51.424  1.00  0.00     0.185 C 
HETATM   32  C   UNL     1       3.850  29.781  52.633  1.00  0.00     0.106 C 
HETATM   33  S   UNL     1       4.059  28.526  53.913  1.00  0.00    -0.120 SA
ENDBRANCH  24  27
ENDBRANCH   1  23
TORSDOF 8
ENDMDL
MODEL 8
REMARK VINA RESULT:      -8.0      2.509      7.837
REMARK  8 active torsions:
REMARK  status: ('A' for Active; 'I' for Inactive)
REMARK    1  A    between atoms: C_7  and  C_8 
REMARK       I    between atoms: C_8  and  N_9 
REMARK    2  A    between atoms: N_9  and  C_10 
REMARK    3  A    between atoms: C_11  and  C_12 
REMARK       I    between atoms: C_12  and  N_13 
REMARK    4  A    between atoms: N_13  and  C_14 
REMARK    5  A    between atoms: C_14  and  C_15 
REMARK    6  A    between atoms: C_15  and  C_16 
REMARK    7  A    between atoms: C_18  and  O_19 
REMARK    8  A    between atoms: C_21  and  O_22 
ROOT
HETATM    1  C   UNL     1       6.819  30.805  58.042  1.00  0.00     0.050 A 
HETATM    2  C   UNL     1       7.919  30.100  58.582  1.00  0.00     0.058 A 
HETATM    3  C   UNL     1       8.443  30.447  59.842  1.00  0.00     0.019 A 
HETATM    4  C   UNL     1       7.863  31.472  60.585  1.00  0.00     0.001 A 
HETATM    5  C   UNL     1       6.768  32.157  60.073  1.00  0.00     0.002 A 
HETATM    6  C   UNL     1       6.253  31.829  58.813  1.00  0.00     0.030 A 
ENDROOT
BRANCH   2   7
HETATM    7  C   UNL     1       8.553  28.981  57.832  1.00  0.00     0.253 C 
HETATM    8  N   UNL     1       7.849  27.795  57.799  1.00  0.00    -0.356 N 
HETATM    9  H   UNL     1       6.904  27.762  58.162  1.00  0.00     0.162 HD
HETATM   10  O   UNL     1       9.622  29.144  57.256  1.00  0.00    -0.268 OA
BRANCH   8  11
HETATM   11  C   UNL     1       8.365  26.639  57.092  1.00  0.00     0.127 C 
BRANCH  11  12
HETATM   12  C   UNL     1       7.264  25.792  56.444  1.00  0.00     0.058 C 
BRANCH  12  13
HETATM   13  C   UNL     1       7.710  24.611  55.607  1.00  0.00    -0.054 A 
HETATM   14  C   UNL     1       8.329  23.479  56.158  1.00  0.00     0.046 A 
HETATM   15  C   UNL     1       8.741  22.412  55.347  1.00  0.00     0.102 A 
HETATM   16  C   UNL     1       8.555  22.482  53.953  1.00  0.00     0.101 A 
HETATM   17  C   UNL     1       7.957  23.616  53.397  1.00  0.00     0.040 A 
HETATM   18  C   UNL     1       7.543  24.670  54.217  1.00  0.00     0.010 A 
BRANCH  15  19
HETATM   19  O   UNL     1       9.334  21.265  55.817  1.00  0.00    -0.353 OA
HETATM   20  C   UNL     1       8.527  20.353  56.547  1.00  0.00     0.210 C 
ENDBRANCH  15  19
BRANCH  16  21
HETATM   21  O   UNL     1       8.985  21.398  53.228  1.00  0.00    -0.353 OA
HETATM   22  C   UNL     1       8.005  20.473  52.782  1.00  0.00     0.210 C 
ENDBRANCH  16  21
ENDBRANCH  12  13
ENDBRANCH  11  12
ENDBRANCH   8  11
ENDBRANCH   2   7
BRANCH   1  23
HETATM   23  N   UNL     1       6.328  30.463  56.756  1.00  0.00    -0.321 N 
HETATM   24  C   UNL     1       5.388  29.507  56.415  1.00  0.00     0.265 C 
HETATM   25  O   UNL     1       4.849  28.754  57.221  1.00  0.00    -0.267 OA
HETATM   26  H   UNL     1       6.717  31.003  55.977  1.00  0.00     0.169 HD
BRANCH  24  27
HETATM   27  C   UNL     1       5.076  29.426  54.918  1.00  0.00     0.097 C 
HETATM   28  C   UNL     1       4.075  30.154  54.358  1.00  0.00     0.064 C 
HETATM   29  C   UNL     1       3.168  31.080  55.129  1.00  0.00     0.078 C 
HETATM   30  O   UNL     1       3.727  30.152  53.015  1.00  0.00    -0.353 OA
HETATM   31  C   UNL     1       4.685  29.639  52.092  1.00  0.00     0.185 C 
HETATM   32  C   UNL     1       5.102  28.233  52.459  1.00  0.00     0.106 C 
HETATM   33  S   UNL     1       6.062  28.316  53.985  1.00  0.00    -0.120 SA
ENDBRANCH  24  27
ENDBRANCH   1  23
TORSDOF 8
ENDMDL
MODEL 9
REMARK VINA RESULT:      -8.0      3.129      8.041
REMARK  8 active torsions:
REMARK  status: ('A' for Active; 'I' for Inactive)
REMARK    1  A    between atoms: C_7  and  C_8 
REMARK       I    between atoms: C_8  and  N_9 
REMARK    2  A    between atoms: N_9  and  C_10 
REMARK    3  A    between atoms: C_11  and  C_12 
REMARK       I    between atoms: C_12  and  N_13 
REMARK    4  A    between atoms: N_13  and  C_14 
REMARK    5  A    between atoms: C_14  and  C_15 
REMARK    6  A    between atoms: C_15  and  C_16 
REMARK    7  A    between atoms: C_18  and  O_19 
REMARK    8  A    between atoms: C_21  and  O_22 
ROOT
HETATM    1  C   UNL     1       7.795  24.054  54.815  1.00  0.00     0.050 A 
HETATM    2  C   UNL     1       7.534  23.840  53.442  1.00  0.00     0.058 A 
HETATM    3  C   UNL     1       7.655  22.554  52.883  1.00  0.00     0.019 A 
HETATM    4  C   UNL     1       8.005  21.470  53.684  1.00  0.00     0.001 A 
HETATM    5  C   UNL     1       8.243  21.666  55.039  1.00  0.00     0.002 A 
HETATM    6  C   UNL     1       8.142  22.946  55.597  1.00  0.00     0.030 A 
ENDROOT
BRANCH   2   7
HETATM    7  C   UNL     1       7.132  24.966  52.555  1.00  0.00     0.253 C 
HETATM    8  N   UNL     1       5.778  25.211  52.457  1.00  0.00    -0.356 N 
HETATM    9  H   UNL     1       5.134  24.719  53.065  1.00  0.00     0.162 HD
HETATM   10  O   UNL     1       7.979  25.644  51.986  1.00  0.00    -0.268 OA
BRANCH   8  11
HETATM   11  C   UNL     1       5.270  26.287  51.628  1.00  0.00     0.127 C 
BRANCH  11  12
HETATM   12  C   UNL     1       5.042  25.866  50.173  1.00  0.00     0.058 C 
BRANCH  12  13
HETATM   13  C   UNL     1       4.496  26.920  49.231  1.00  0.00    -0.054 A 
HETATM   14  C   UNL     1       3.388  26.695  48.400  1.00  0.00     0.046 A 
HETATM   15  C   UNL     1       2.922  27.691  47.530  1.00  0.00     0.102 A 
HETATM   16  C   UNL     1       3.588  28.930  47.466  1.00  0.00     0.101 A 
HETATM   17  C   UNL     1       4.704  29.151  48.277  1.00  0.00     0.040 A 
HETATM   18  C   UNL     1       5.154  28.154  49.147  1.00  0.00     0.010 A 
BRANCH  15  19
HETATM   19  O   UNL     1       1.834  27.552  46.703  1.00  0.00    -0.353 OA
HETATM   20  C   UNL     1       0.556  27.412  47.308  1.00  0.00     0.210 C 
ENDBRANCH  15  19
BRANCH  16  21
HETATM   21  O   UNL     1       3.071  29.853  46.590  1.00  0.00    -0.353 OA
HETATM   22  C   UNL     1       3.929  30.895  46.149  1.00  0.00     0.210 C 
ENDBRANCH  16  21
ENDBRANCH  12  13
ENDBRANCH  11  12
ENDBRANCH   8  11
ENDBRANCH   2   7
BRANCH   1  23
HETATM   23  N   UNL     1       7.702  25.364  55.352  1.00  0.00    -0.321 N 
HETATM   24  C   UNL     1       6.573  26.055  55.754  1.00  0.00     0.265 C 
HETATM   25  O   UNL     1       5.429  25.620  55.660  1.00  0.00    -0.267 OA
HETATM   26  H   UNL     1       8.591  25.860  55.463  1.00  0.00     0.169 HD
BRANCH  24  27
HETATM   27  C   UNL     1       6.848  27.454  56.315  1.00  0.00     0.097 C 
HETATM   28  C   UNL     1       6.452  28.575  55.659  1.00  0.00     0.064 C 
HETATM   29  C   UNL     1       5.737  28.572  54.331  1.00  0.00     0.078 C 
HETATM   30  O   UNL     1       6.649  29.878  56.093  1.00  0.00    -0.353 OA
HETATM   31  C   UNL     1       6.964  30.068  57.471  1.00  0.00     0.185 C 
HETATM   32  C   UNL     1       8.180  29.264  57.870  1.00  0.00     0.106 C 
HETATM   33  S   UNL     1       7.732  27.516  57.828  1.00  0.00    -0.120 SA
ENDBRANCH  24  27
ENDBRANCH   1  23
TORSDOF 8
ENDMDL
MODEL 10
REMARK VINA RESULT:      -8.0      2.324      5.220
REMARK  8 active torsions:
REMARK  status: ('A' for Active; 'I' for Inactive)
REMARK    1  A    between atoms: C_7  and  C_8 
REMARK       I    between atoms: C_8  and  N_9 
REMARK    2  A    between atoms: N_9  and  C_10 
REMARK    3  A    between atoms: C_11  and  C_12 
REMARK       I    between atoms: C_12  and  N_13 
REMARK    4  A    between atoms: N_13  and  C_14 
REMARK    5  A    between atoms: C_14  and  C_15 
REMARK    6  A    between atoms: C_15  and  C_16 
REMARK    7  A    between atoms: C_18  and  O_19 
REMARK    8  A    between atoms: C_21  and  O_22 
ROOT
HETATM    1  C   UNL     1       5.846  25.202  53.356  1.00  0.00     0.050 A 
HETATM    2  C   UNL     1       5.623  26.414  54.049  1.00  0.00     0.058 A 
HETATM    3  C   UNL     1       5.034  27.513  53.396  1.00  0.00     0.019 A 
HETATM    4  C   UNL     1       4.636  27.410  52.066  1.00  0.00     0.001 A 
HETATM    5  C   UNL     1       4.832  26.216  51.382  1.00  0.00     0.002 A 
HETATM    6  C   UNL     1       5.433  25.125  52.020  1.00  0.00     0.030 A 
ENDROOT
BRANCH   2   7
HETATM    7  C   UNL     1       6.010  26.559  55.479  1.00  0.00     0.253 C 
HETATM    8  N   UNL     1       6.573  27.766  55.838  1.00  0.00    -0.356 N 
HETATM    9  H   UNL     1       6.587  28.530  55.174  1.00  0.00     0.162 HD
HETATM   10  O   UNL     1       5.796  25.654  56.277  1.00  0.00    -0.268 OA
BRANCH   8  11
HETATM   11  C   UNL     1       6.982  28.023  57.206  1.00  0.00     0.127 C 
BRANCH  11  12
HETATM   12  C   UNL     1       8.109  29.056  57.310  1.00  0.00     0.058 C 
BRANCH  12  13
HETATM   13  C   UNL     1       7.978  30.110  58.390  1.00  0.00    -0.054 A 
HETATM   14  C   UNL     1       6.839  30.917  58.529  1.00  0.00     0.046 A 
HETATM   15  C   UNL     1       6.761  31.893  59.532  1.00  0.00     0.102 A 
HETATM   16  C   UNL     1       7.850  32.088  60.402  1.00  0.00     0.101 A 
HETATM   17  C   UNL     1       8.995  31.301  60.255  1.00  0.00     0.040 A 
HETATM   18  C   UNL     1       9.058  30.325  59.256  1.00  0.00     0.010 A 
BRANCH  15  19
HETATM   19  O   UNL     1       5.673  32.705  59.742  1.00  0.00    -0.353 OA
HETATM   20  C   UNL     1       4.389  32.189  59.418  1.00  0.00     0.210 C 
ENDBRANCH  15  19
BRANCH  16  21
HETATM   21  O   UNL     1       7.698  33.063  61.358  1.00  0.00    -0.353 OA
HETATM   22  C   UNL     1       7.455  32.645  62.693  1.00  0.00     0.210 C 
ENDBRANCH  16  21
ENDBRANCH  12  13
ENDBRANCH  11  12
ENDBRANCH   8  11
ENDBRANCH   2   7
BRANCH   1  23
HETATM   23  N   UNL     1       6.473  24.117  54.021  1.00  0.00    -0.321 N 
HETATM   24  C   UNL     1       7.709  23.548  53.773  1.00  0.00     0.265 C 
HETATM   25  O   UNL     1       8.460  23.899  52.868  1.00  0.00    -0.267 OA
HETATM   26  H   UNL     1       5.940  23.705  54.793  1.00  0.00     0.169 HD
BRANCH  24  27
HETATM   27  C   UNL     1       8.081  22.396  54.713  1.00  0.00     0.097 C 
HETATM   28  C   UNL     1       8.185  21.118  54.266  1.00  0.00     0.064 C 
HETATM   29  C   UNL     1       7.931  20.695  52.841  1.00  0.00     0.078 C 
HETATM   30  O   UNL     1       8.523  20.016  55.038  1.00  0.00    -0.353 OA
HETATM   31  C   UNL     1       9.149  20.267  56.295  1.00  0.00     0.185 C 
HETATM   32  C   UNL     1       8.309  21.186  57.152  1.00  0.00     0.106 C 
HETATM   33  S   UNL     1       8.326  22.824  56.395  1.00  0.00    -0.120 SA
ENDBRANCH  24  27
ENDBRANCH   1  23
TORSDOF 8
ENDMDL
