MODEL 1
REMARK VINA RESULT:      -8.2      0.000      0.000
REMARK  6 active torsions:
REMARK  status: ('A' for Active; 'I' for Inactive)
REMARK    1  A    between atoms: C_3  and  N_4 
REMARK       I    between atoms: N_4  and  C_5 
REMARK       I    between atoms: C_5  and  N_6 
REMARK    2  A    between atoms: N_6  and  C_7 
REMARK    3  A    between atoms: C_7  and  C_8 
REMARK    4  A    between atoms: C_8  and  N_9 
REMARK    5  A    between atoms: C_8  and  C_13 
REMARK    6  A    between atoms: C_20  and  C_21 
ROOT
HETATM    1  N   UNL     1       8.142  27.001  56.624  1.00  0.00    -0.309 N 
HETATM    2  C   UNL     1       7.712  25.741  56.949  1.00  0.00     0.320 C 
HETATM    3  N   UNL     1       8.569  24.770  56.494  1.00  0.00    -0.340 N 
HETATM    4  O   UNL     1       6.698  25.434  57.567  1.00  0.00    -0.247 OA
HETATM    5  H   UNL     1       8.660  27.047  55.756  1.00  0.00     0.170 HD
HETATM    6  H   UNL     1       9.357  25.080  55.940  1.00  0.00     0.164 HD
ENDROOT
BRANCH   1   7
HETATM    7  C   UNL     1       7.511  28.216  56.986  1.00  0.00     0.043 A 
HETATM    8  C   UNL     1       6.308  28.703  56.448  1.00  0.00    -0.035 A 
HETATM    9  C   UNL     1       5.450  27.957  55.466  1.00  0.00     0.050 C 
HETATM   10  C   UNL     1       5.837  29.958  56.880  1.00  0.00     0.010 A 
HETATM   11  C   UNL     1       6.508  30.690  57.863  1.00  0.00     0.016 A 
HETATM   12  C   UNL     1       7.668  30.184  58.450  1.00  0.00     0.019 A 
HETATM   13  C   UNL     1       8.150  28.944  58.007  1.00  0.00     0.046 A 
BRANCH  12  14
HETATM   14  C   UNL     1       8.396  30.902  59.493  1.00  0.00     0.179 A 
HETATM   15  O   UNL     1       8.765  30.189  60.603  1.00  0.00    -0.302 OA
HETATM   16  C   UNL     1       9.414  31.097  61.383  1.00  0.00     0.163 A 
HETATM   17  C   UNL     1       9.410  32.300  60.725  1.00  0.00     0.144 A 
HETATM   18  N   UNL     1       8.761  32.172  59.522  1.00  0.00    -0.234 NA
ENDBRANCH  12  14
ENDBRANCH   1   7
BRANCH   3  19
HETATM   19  C   UNL     1       8.214  23.352  56.410  1.00  0.00     0.164 C 
BRANCH  19  20
HETATM   20  C   UNL     1       8.312  22.690  54.996  1.00  0.00     0.261 C 
BRANCH  20  21
HETATM   21  N   UNL     1       7.770  21.261  54.989  1.00  0.00    -0.067 N 
HETATM   22  H   UNL     1       6.744  21.371  54.849  1.00  0.00     0.280 HD
HETATM   23  C   UNL     1       8.211  20.401  53.844  1.00  0.00     0.270 C 
HETATM   24  C   UNL     1       7.927  20.565  56.301  1.00  0.00     0.270 C 
ENDBRANCH  20  21
BRANCH  20  25
HETATM   25  C   UNL     1       7.677  23.563  53.958  1.00  0.00     0.085 A 
HETATM   26  O   UNL     1       6.451  24.083  54.263  1.00  0.00    -0.325 OA
HETATM   27  C   UNL     1       6.064  24.842  53.206  1.00  0.00     0.142 A 
HETATM   28  C   UNL     1       7.020  24.810  52.219  1.00  0.00     0.027 A 
HETATM   29  C   UNL     1       8.064  23.984  52.702  1.00  0.00     0.037 A 
ENDBRANCH  20  25
ENDBRANCH  19  20
ENDBRANCH   3  19
TORSDOF 6
ENDMDL
MODEL 2
REMARK VINA RESULT:      -8.0      2.016      3.363
REMARK  6 active torsions:
REMARK  status: ('A' for Active; 'I' for Inactive)
REMARK    1  A    between atoms: C_3  and  N_4 
REMARK       I    between atoms: N_4  and  C_5 
REMARK       I    between atoms: C_5  and  N_6 
REMARK    2  A    between atoms: N_6  and  C_7 
REMARK    3  A    between atoms: C_7  and  C_8 
REMARK    4  A    between atoms: C_8  and  N_9 
REMARK    5  A    between atoms: C_8  and  C_13 
REMARK    6  A    between atoms: C_20  and  C_21 
ROOT
HETATM    1  N   UNL     1       7.704  28.645  56.718  1.00  0.00    -0.309 N 
HETATM    2  C   UNL     1       7.779  27.287  56.887  1.00  0.00     0.320 C 
HETATM    3  N   UNL     1       7.114  26.607  55.897  1.00  0.00    -0.340 N 
HETATM    4  O   UNL     1       8.348  26.676  57.784  1.00  0.00    -0.247 OA
HETATM    5  H   UNL     1       6.849  28.957  56.275  1.00  0.00     0.170 HD
HETATM    6  H   UNL     1       6.614  27.165  55.217  1.00  0.00     0.164 HD
ENDROOT
BRANCH   1   7
HETATM    7  C   UNL     1       8.320  29.622  57.537  1.00  0.00     0.043 A 
HETATM    8  C   UNL     1       9.647  30.068  57.421  1.00  0.00    -0.035 A 
HETATM    9  C   UNL     1      10.597  29.641  56.338  1.00  0.00     0.050 C 
HETATM   10  C   UNL     1      10.124  31.012  58.350  1.00  0.00     0.010 A 
HETATM   11  C   UNL     1       9.293  31.549  59.337  1.00  0.00     0.016 A 
HETATM   12  C   UNL     1       7.955  31.161  59.420  1.00  0.00     0.019 A 
HETATM   13  C   UNL     1       7.484  30.205  58.508  1.00  0.00     0.046 A 
BRANCH  12  14
HETATM   14  C   UNL     1       7.043  31.704  60.422  1.00  0.00     0.179 A 
HETATM   15  O   UNL     1       7.300  31.398  61.733  1.00  0.00    -0.302 OA
HETATM   16  C   UNL     1       6.310  32.029  62.422  1.00  0.00     0.163 A 
HETATM   17  C   UNL     1       5.509  32.678  61.517  1.00  0.00     0.144 A 
HETATM   18  N   UNL     1       5.980  32.468  60.245  1.00  0.00    -0.234 NA
ENDBRANCH  12  14
ENDBRANCH   1   7
BRANCH   3  19
HETATM   19  C   UNL     1       6.755  25.190  55.988  1.00  0.00     0.164 C 
BRANCH  19  20
HETATM   20  C   UNL     1       6.511  24.444  54.636  1.00  0.00     0.261 C 
BRANCH  20  21
HETATM   21  N   UNL     1       6.445  25.405  53.449  1.00  0.00    -0.067 N 
HETATM   22  H   UNL     1       6.333  26.346  53.882  1.00  0.00     0.280 HD
HETATM   23  C   UNL     1       7.694  25.519  52.629  1.00  0.00     0.270 C 
HETATM   24  C   UNL     1       5.235  25.205  52.596  1.00  0.00     0.270 C 
ENDBRANCH  20  21
BRANCH  20  25
HETATM   25  C   UNL     1       7.514  23.348  54.447  1.00  0.00     0.085 A 
HETATM   26  O   UNL     1       8.574  23.334  55.309  1.00  0.00    -0.325 OA
HETATM   27  C   UNL     1       9.347  22.270  54.975  1.00  0.00     0.142 A 
HETATM   28  C   UNL     1       8.806  21.603  53.903  1.00  0.00     0.027 A 
HETATM   29  C   UNL     1       7.620  22.297  53.558  1.00  0.00     0.037 A 
ENDBRANCH  20  25
ENDBRANCH  19  20
ENDBRANCH   3  19
TORSDOF 6
ENDMDL
MODEL 3
REMARK VINA RESULT:      -8.0      1.820      8.594
REMARK  6 active torsions:
REMARK  status: ('A' for Active; 'I' for Inactive)
REMARK    1  A    between atoms: C_3  and  N_4 
REMARK       I    between atoms: N_4  and  C_5 
REMARK       I    between atoms: C_5  and  N_6 
REMARK    2  A    between atoms: N_6  and  C_7 
REMARK    3  A    between atoms: C_7  and  C_8 
REMARK    4  A    between atoms: C_8  and  N_9 
REMARK    5  A    between atoms: C_8  and  C_13 
REMARK    6  A    between atoms: C_20  and  C_21 
ROOT
HETATM    1  N   UNL     1       5.919  26.966  56.218  1.00  0.00    -0.309 N 
HETATM    2  C   UNL     1       6.728  28.049  56.445  1.00  0.00     0.320 C 
HETATM    3  N   UNL     1       6.573  28.551  57.713  1.00  0.00    -0.340 N 
HETATM    4  O   UNL     1       7.519  28.567  55.665  1.00  0.00    -0.247 OA
HETATM    5  H   UNL     1       5.045  26.992  56.728  1.00  0.00     0.170 HD
HETATM    6  H   UNL     1       5.863  28.119  58.292  1.00  0.00     0.164 HD
ENDROOT
BRANCH   1   7
HETATM    7  C   UNL     1       5.873  26.194  55.032  1.00  0.00     0.043 A 
HETATM    8  C   UNL     1       5.128  26.506  53.882  1.00  0.00    -0.035 A 
HETATM    9  C   UNL     1       4.332  27.766  53.699  1.00  0.00     0.050 C 
HETATM   10  C   UNL     1       5.151  25.605  52.800  1.00  0.00     0.010 A 
HETATM   11  C   UNL     1       5.938  24.450  52.829  1.00  0.00     0.016 A 
HETATM   12  C   UNL     1       6.733  24.166  53.940  1.00  0.00     0.019 A 
HETATM   13  C   UNL     1       6.695  25.051  55.027  1.00  0.00     0.046 A 
BRANCH  12  14
HETATM   14  C   UNL     1       7.584  22.982  54.011  1.00  0.00     0.179 A 
HETATM   15  O   UNL     1       7.536  22.112  52.954  1.00  0.00    -0.302 OA
HETATM   16  C   UNL     1       8.415  21.128  53.291  1.00  0.00     0.163 A 
HETATM   17  C   UNL     1       8.948  21.437  54.516  1.00  0.00     0.144 A 
HETATM   18  N   UNL     1       8.416  22.618  54.971  1.00  0.00    -0.234 NA
ENDBRANCH  12  14
ENDBRANCH   1   7
BRANCH   3  19
HETATM   19  C   UNL     1       7.054  29.871  58.126  1.00  0.00     0.164 C 
BRANCH  19  20
HETATM   20  C   UNL     1       8.494  29.930  58.733  1.00  0.00     0.261 C 
BRANCH  20  21
HETATM   21  N   UNL     1       9.532  30.401  57.714  1.00  0.00    -0.067 N 
HETATM   22  H   UNL     1       8.969  30.791  56.930  1.00  0.00     0.280 HD
HETATM   23  C   UNL     1      10.404  31.540  58.149  1.00  0.00     0.270 C 
HETATM   24  C   UNL     1      10.328  29.283  57.125  1.00  0.00     0.270 C 
ENDBRANCH  20  21
BRANCH  20  25
HETATM   25  C   UNL     1       8.504  30.735  59.996  1.00  0.00     0.085 A 
HETATM   26  O   UNL     1       7.699  31.839  60.023  1.00  0.00    -0.325 OA
HETATM   27  C   UNL     1       7.848  32.412  61.244  1.00  0.00     0.142 A 
HETATM   28  C   UNL     1       8.746  31.700  62.002  1.00  0.00     0.027 A 
HETATM   29  C   UNL     1       9.173  30.614  61.197  1.00  0.00     0.037 A 
ENDBRANCH  20  25
ENDBRANCH  19  20
ENDBRANCH   3  19
TORSDOF 6
ENDMDL
MODEL 4
REMARK VINA RESULT:      -7.9      1.601      8.830
REMARK  6 active torsions:
REMARK  status: ('A' for Active; 'I' for Inactive)
REMARK    1  A    between atoms: C_3  and  N_4 
REMARK       I    between atoms: N_4  and  C_5 
REMARK       I    between atoms: C_5  and  N_6 
REMARK    2  A    between atoms: N_6  and  C_7 
REMARK    3  A    between atoms: C_7  and  C_8 
REMARK    4  A    between atoms: C_8  and  N_9 
REMARK    5  A    between atoms: C_8  and  C_13 
REMARK    6  A    between atoms: C_20  and  C_21 
ROOT
HETATM    1  N   UNL     1       7.698  27.379  55.045  1.00  0.00    -0.309 N 
HETATM    2  C   UNL     1       7.208  27.756  56.267  1.00  0.00     0.320 C 
HETATM    3  N   UNL     1       7.973  28.736  56.849  1.00  0.00    -0.340 N 
HETATM    4  O   UNL     1       6.216  27.322  56.841  1.00  0.00    -0.247 OA
HETATM    5  H   UNL     1       8.705  27.450  54.966  1.00  0.00     0.170 HD
HETATM    6  H   UNL     1       8.812  29.013  56.355  1.00  0.00     0.164 HD
ENDROOT
BRANCH   1   7
HETATM    7  C   UNL     1       7.117  26.428  54.172  1.00  0.00     0.043 A 
HETATM    8  C   UNL     1       6.230  26.717  53.121  1.00  0.00    -0.035 A 
HETATM    9  C   UNL     1       5.832  28.104  52.700  1.00  0.00     0.050 C 
HETATM   10  C   UNL     1       5.699  25.649  52.374  1.00  0.00     0.010 A 
HETATM   11  C   UNL     1       6.080  24.327  52.619  1.00  0.00     0.016 A 
HETATM   12  C   UNL     1       7.010  24.035  53.617  1.00  0.00     0.019 A 
HETATM   13  C   UNL     1       7.524  25.096  54.377  1.00  0.00     0.046 A 
BRANCH  12  14
HETATM   14  C   UNL     1       7.453  22.673  53.901  1.00  0.00     0.179 A 
HETATM   15  O   UNL     1       7.861  21.913  52.836  1.00  0.00    -0.302 OA
HETATM   16  C   UNL     1       8.210  20.720  53.392  1.00  0.00     0.163 A 
HETATM   17  C   UNL     1       8.001  20.805  54.745  1.00  0.00     0.144 A 
HETATM   18  N   UNL     1       7.519  22.050  55.064  1.00  0.00    -0.234 NA
ENDBRANCH  12  14
ENDBRANCH   1   7
BRANCH   3  19
HETATM   19  C   UNL     1       7.883  29.101  58.265  1.00  0.00     0.164 C 
BRANCH  19  20
HETATM   20  C   UNL     1       7.678  30.618  58.583  1.00  0.00     0.261 C 
BRANCH  20  21
HETATM   21  N   UNL     1       6.201  30.982  58.731  1.00  0.00    -0.067 N 
HETATM   22  H   UNL     1       5.806  30.231  59.336  1.00  0.00     0.280 HD
HETATM   23  C   UNL     1       5.912  32.250  59.476  1.00  0.00     0.270 C 
HETATM   24  C   UNL     1       5.444  30.906  57.445  1.00  0.00     0.270 C 
ENDBRANCH  20  21
BRANCH  20  25
HETATM   25  C   UNL     1       8.504  31.028  59.763  1.00  0.00     0.085 A 
HETATM   26  O   UNL     1       8.629  30.114  60.770  1.00  0.00    -0.325 OA
HETATM   27  C   UNL     1       9.414  30.675  61.724  1.00  0.00     0.142 A 
HETATM   28  C   UNL     1       9.790  31.943  61.351  1.00  0.00     0.027 A 
HETATM   29  C   UNL     1       9.203  32.175  60.083  1.00  0.00     0.037 A 
ENDBRANCH  20  25
ENDBRANCH  19  20
ENDBRANCH   3  19
TORSDOF 6
ENDMDL
MODEL 5
REMARK VINA RESULT:      -7.8      2.285      3.988
REMARK  6 active torsions:
REMARK  status: ('A' for Active; 'I' for Inactive)
REMARK    1  A    between atoms: C_3  and  N_4 
REMARK       I    between atoms: N_4  and  C_5 
REMARK       I    between atoms: C_5  and  N_6 
REMARK    2  A    between atoms: N_6  and  C_7 
REMARK    3  A    between atoms: C_7  and  C_8 
REMARK    4  A    between atoms: C_8  and  N_9 
REMARK    5  A    between atoms: C_8  and  C_13 
REMARK    6  A    between atoms: C_20  and  C_21 
ROOT
HETATM    1  N   UNL     1       7.754  28.486  57.234  1.00  0.00    -0.309 N 
HETATM    2  C   UNL     1       6.685  28.630  56.388  1.00  0.00     0.320 C 
HETATM    3  N   UNL     1       6.134  27.420  56.044  1.00  0.00    -0.340 N 
HETATM    4  O   UNL     1       6.216  29.673  55.946  1.00  0.00    -0.247 OA
HETATM    5  H   UNL     1       8.277  27.631  57.094  1.00  0.00     0.170 HD
HETATM    6  H   UNL     1       6.599  26.591  56.392  1.00  0.00     0.164 HD
ENDROOT
BRANCH   1   7
HETATM    7  C   UNL     1       8.510  29.538  57.807  1.00  0.00     0.043 A 
HETATM    8  C   UNL     1       9.694  30.076  57.277  1.00  0.00    -0.035 A 
HETATM    9  C   UNL     1      10.296  29.679  55.959  1.00  0.00     0.050 C 
HETATM   10  C   UNL     1      10.355  31.090  57.998  1.00  0.00     0.010 A 
HETATM   11  C   UNL     1       9.828  31.602  59.187  1.00  0.00     0.016 A 
HETATM   12  C   UNL     1       8.618  31.119  59.687  1.00  0.00     0.019 A 
HETATM   13  C   UNL     1       7.969  30.095  58.981  1.00  0.00     0.046 A 
BRANCH  12  14
HETATM   14  C   UNL     1       8.017  31.632  60.915  1.00  0.00     0.179 A 
HETATM   15  O   UNL     1       7.445  32.876  60.859  1.00  0.00    -0.302 OA
HETATM   16  C   UNL     1       6.977  33.085  62.120  1.00  0.00     0.163 A 
HETATM   17  C   UNL     1       7.280  31.979  62.873  1.00  0.00     0.144 A 
HETATM   18  N   UNL     1       7.942  31.057  62.102  1.00  0.00    -0.234 NA
ENDBRANCH  12  14
ENDBRANCH   1   7
BRANCH   3  19
HETATM   19  C   UNL     1       5.206  27.242  54.926  1.00  0.00     0.164 C 
BRANCH  19  20
HETATM   20  C   UNL     1       5.609  26.185  53.846  1.00  0.00     0.261 C 
BRANCH  20  21
HETATM   21  N   UNL     1       6.099  26.837  52.554  1.00  0.00    -0.067 N 
HETATM   22  H   UNL     1       7.127  26.670  52.551  1.00  0.00     0.280 HD
HETATM   23  C   UNL     1       5.617  26.210  51.281  1.00  0.00     0.270 C 
HETATM   24  C   UNL     1       5.930  28.321  52.542  1.00  0.00     0.270 C 
ENDBRANCH  20  21
BRANCH  20  25
HETATM   25  C   UNL     1       6.582  25.197  54.411  1.00  0.00     0.085 A 
HETATM   26  O   UNL     1       6.220  24.576  55.573  1.00  0.00    -0.325 OA
HETATM   27  C   UNL     1       7.225  23.726  55.902  1.00  0.00     0.142 A 
HETATM   28  C   UNL     1       8.236  23.796  54.974  1.00  0.00     0.027 A 
HETATM   29  C   UNL     1       7.824  24.747  54.008  1.00  0.00     0.037 A 
ENDBRANCH  20  25
ENDBRANCH  19  20
ENDBRANCH   3  19
TORSDOF 6
ENDMDL
MODEL 6
REMARK VINA RESULT:      -7.8      3.642     10.277
REMARK  6 active torsions:
REMARK  status: ('A' for Active; 'I' for Inactive)
REMARK    1  A    between atoms: C_3  and  N_4 
REMARK       I    between atoms: N_4  and  C_5 
REMARK       I    between atoms: C_5  and  N_6 
REMARK    2  A    between atoms: N_6  and  C_7 
REMARK    3  A    between atoms: C_7  and  C_8 
REMARK    4  A    between atoms: C_8  and  N_9 
REMARK    5  A    between atoms: C_8  and  C_13 
REMARK    6  A    between atoms: C_20  and  C_21 
ROOT
HETATM    1  N   UNL     1       7.454  30.607  59.851  1.00  0.00    -0.309 N 
HETATM    2  C   UNL     1       6.700  31.749  59.785  1.00  0.00     0.320 C 
HETATM    3  N   UNL     1       6.029  31.992  60.958  1.00  0.00    -0.340 N 
HETATM    4  O   UNL     1       6.584  32.515  58.835  1.00  0.00    -0.247 OA
HETATM    5  H   UNL     1       7.066  29.893  60.454  1.00  0.00     0.170 HD
HETATM    6  H   UNL     1       6.117  31.295  61.687  1.00  0.00     0.164 HD
ENDROOT
BRANCH   1   7
HETATM    7  C   UNL     1       8.296  30.105  58.829  1.00  0.00     0.043 A 
HETATM    8  C   UNL     1       9.512  30.675  58.418  1.00  0.00    -0.035 A 
HETATM    9  C   UNL     1      10.159  31.864  59.071  1.00  0.00     0.050 C 
HETATM   10  C   UNL     1      10.209  30.079  57.349  1.00  0.00     0.010 A 
HETATM   11  C   UNL     1       9.745  28.912  56.736  1.00  0.00     0.016 A 
HETATM   12  C   UNL     1       8.571  28.302  57.181  1.00  0.00     0.019 A 
HETATM   13  C   UNL     1       7.865  28.905  58.232  1.00  0.00     0.046 A 
BRANCH  12  14
HETATM   14  C   UNL     1       8.054  27.073  56.585  1.00  0.00     0.179 A 
HETATM   15  O   UNL     1       8.359  25.895  57.216  1.00  0.00    -0.302 OA
HETATM   16  C   UNL     1       7.755  24.942  56.453  1.00  0.00     0.163 A 
HETATM   17  C   UNL     1       7.123  25.571  55.411  1.00  0.00     0.144 A 
HETATM   18  N   UNL     1       7.316  26.927  55.499  1.00  0.00    -0.234 NA
ENDBRANCH  12  14
ENDBRANCH   1   7
BRANCH   3  19
HETATM   19  C   UNL     1       4.920  32.941  61.075  1.00  0.00     0.164 C 
BRANCH  19  20
HETATM   20  C   UNL     1       5.184  34.221  61.933  1.00  0.00     0.261 C 
BRANCH  20  21
HETATM   21  N   UNL     1       3.898  34.992  62.231  1.00  0.00    -0.067 N 
HETATM   22  H   UNL     1       3.999  35.295  63.223  1.00  0.00     0.280 HD
HETATM   23  C   UNL     1       3.710  36.269  61.470  1.00  0.00     0.270 C 
HETATM   24  C   UNL     1       2.675  34.135  62.192  1.00  0.00     0.270 C 
ENDBRANCH  20  21
BRANCH  20  25
HETATM   25  C   UNL     1       5.963  33.881  63.166  1.00  0.00     0.085 A 
HETATM   26  O   UNL     1       7.253  33.471  62.980  1.00  0.00    -0.325 OA
HETATM   27  C   UNL     1       7.776  33.225  64.209  1.00  0.00     0.142 A 
HETATM   28  C   UNL     1       6.837  33.461  65.184  1.00  0.00     0.027 A 
HETATM   29  C   UNL     1       5.663  33.885  64.513  1.00  0.00     0.037 A 
ENDBRANCH  20  25
ENDBRANCH  19  20
ENDBRANCH   3  19
TORSDOF 6
ENDMDL
MODEL 7
REMARK VINA RESULT:      -7.8      4.874      8.501
REMARK  6 active torsions:
REMARK  status: ('A' for Active; 'I' for Inactive)
REMARK    1  A    between atoms: C_3  and  N_4 
REMARK       I    between atoms: N_4  and  C_5 
REMARK       I    between atoms: C_5  and  N_6 
REMARK    2  A    between atoms: N_6  and  C_7 
REMARK    3  A    between atoms: C_7  and  C_8 
REMARK    4  A    between atoms: C_8  and  N_9 
REMARK    5  A    between atoms: C_8  and  C_13 
REMARK    6  A    between atoms: C_20  and  C_21 
ROOT
HETATM    1  N   UNL     1       4.711  26.044  53.573  1.00  0.00    -0.309 N 
HETATM    2  C   UNL     1       4.993  27.201  52.894  1.00  0.00     0.320 C 
HETATM    3  N   UNL     1       3.938  27.614  52.119  1.00  0.00    -0.340 N 
HETATM    4  O   UNL     1       6.033  27.849  52.921  1.00  0.00    -0.247 OA
HETATM    5  H   UNL     1       4.074  25.427  53.085  1.00  0.00     0.170 HD
HETATM    6  H   UNL     1       3.127  27.008  52.091  1.00  0.00     0.164 HD
ENDROOT
BRANCH   1   7
HETATM    7  C   UNL     1       5.567  25.386  54.488  1.00  0.00     0.043 A 
HETATM    8  C   UNL     1       5.817  25.790  55.810  1.00  0.00    -0.035 A 
HETATM    9  C   UNL     1       5.134  26.942  56.492  1.00  0.00     0.050 C 
HETATM   10  C   UNL     1       6.737  25.052  56.579  1.00  0.00     0.010 A 
HETATM   11  C   UNL     1       7.354  23.904  56.073  1.00  0.00     0.016 A 
HETATM   12  C   UNL     1       7.062  23.457  54.784  1.00  0.00     0.019 A 
HETATM   13  C   UNL     1       6.162  24.203  54.010  1.00  0.00     0.046 A 
BRANCH  12  14
HETATM   14  C   UNL     1       7.668  22.255  54.217  1.00  0.00     0.179 A 
HETATM   15  O   UNL     1       8.114  21.305  55.097  1.00  0.00    -0.302 OA
HETATM   16  C   UNL     1       8.615  20.321  54.299  1.00  0.00     0.163 A 
HETATM   17  C   UNL     1       8.455  20.711  52.994  1.00  0.00     0.144 A 
HETATM   18  N   UNL     1       7.852  21.942  52.946  1.00  0.00    -0.234 NA
ENDBRANCH  12  14
ENDBRANCH   1   7
BRANCH   3  19
HETATM   19  C   UNL     1       4.057  28.616  51.057  1.00  0.00     0.164 C 
BRANCH  19  20
HETATM   20  C   UNL     1       4.167  28.072  49.595  1.00  0.00     0.261 C 
BRANCH  20  21
HETATM   21  N   UNL     1       3.032  27.109  49.249  1.00  0.00    -0.067 N 
HETATM   22  H   UNL     1       2.748  26.701  50.165  1.00  0.00     0.280 HD
HETATM   23  C   UNL     1       1.780  27.738  48.718  1.00  0.00     0.270 C 
HETATM   24  C   UNL     1       3.475  25.954  48.411  1.00  0.00     0.270 C 
ENDBRANCH  20  21
BRANCH  20  25
HETATM   25  C   UNL     1       4.296  29.201  48.619  1.00  0.00     0.085 A 
HETATM   26  O   UNL     1       3.935  30.441  49.066  1.00  0.00    -0.325 OA
HETATM   27  C   UNL     1       4.134  31.309  48.042  1.00  0.00     0.142 A 
HETATM   28  C   UNL     1       4.609  30.645  46.937  1.00  0.00     0.027 A 
HETATM   29  C   UNL     1       4.714  29.281  47.306  1.00  0.00     0.037 A 
ENDBRANCH  20  25
ENDBRANCH  19  20
ENDBRANCH   3  19
TORSDOF 6
ENDMDL
MODEL 8
REMARK VINA RESULT:      -7.7      4.371      8.076
REMARK  6 active torsions:
REMARK  status: ('A' for Active; 'I' for Inactive)
REMARK    1  A    between atoms: C_3  and  N_4 
REMARK       I    between atoms: N_4  and  C_5 
REMARK       I    between atoms: C_5  and  N_6 
REMARK    2  A    between atoms: N_6  and  C_7 
REMARK    3  A    between atoms: C_7  and  C_8 
REMARK    4  A    between atoms: C_8  and  N_9 
REMARK    5  A    between atoms: C_8  and  C_13 
REMARK    6  A    between atoms: C_20  and  C_21 
ROOT
HETATM    1  N   UNL     1       6.975  25.878  52.583  1.00  0.00    -0.309 N 
HETATM    2  C   UNL     1       5.803  25.612  51.925  1.00  0.00     0.320 C 
HETATM    3  N   UNL     1       5.817  26.083  50.635  1.00  0.00    -0.340 N 
HETATM    4  O   UNL     1       4.816  25.030  52.362  1.00  0.00    -0.247 OA
HETATM    5  H   UNL     1       7.429  26.732  52.283  1.00  0.00     0.170 HD
HETATM    6  H   UNL     1       6.635  26.606  50.350  1.00  0.00     0.164 HD
ENDROOT
BRANCH   1   7
HETATM    7  C   UNL     1       7.296  25.486  53.905  1.00  0.00     0.043 A 
HETATM    8  C   UNL     1       7.304  26.329  55.028  1.00  0.00    -0.035 A 
HETATM    9  C   UNL     1       6.876  27.770  55.015  1.00  0.00     0.050 C 
HETATM   10  C   UNL     1       7.696  25.794  56.270  1.00  0.00     0.010 A 
HETATM   11  C   UNL     1       8.018  24.441  56.412  1.00  0.00     0.016 A 
HETATM   12  C   UNL     1       7.950  23.581  55.315  1.00  0.00     0.019 A 
HETATM   13  C   UNL     1       7.580  24.118  54.073  1.00  0.00     0.046 A 
BRANCH  12  14
HETATM   14  C   UNL     1       8.260  22.158  55.415  1.00  0.00     0.179 A 
HETATM   15  O   UNL     1       8.275  21.438  54.249  1.00  0.00    -0.302 OA
HETATM   16  C   UNL     1       8.589  20.173  54.643  1.00  0.00     0.163 A 
HETATM   17  C   UNL     1       8.747  20.180  56.006  1.00  0.00     0.144 A 
HETATM   18  N   UNL     1       8.537  21.446  56.493  1.00  0.00    -0.234 NA
ENDBRANCH  12  14
ENDBRANCH   1   7
BRANCH   3  19
HETATM   19  C   UNL     1       4.613  26.229  49.814  1.00  0.00     0.164 C 
BRANCH  19  20
HETATM   20  C   UNL     1       4.627  27.378  48.753  1.00  0.00     0.261 C 
BRANCH  20  21
HETATM   21  N   UNL     1       3.335  27.428  47.939  1.00  0.00    -0.067 N 
HETATM   22  H   UNL     1       3.525  28.128  47.191  1.00  0.00     0.280 HD
HETATM   23  C   UNL     1       2.982  26.176  47.196  1.00  0.00     0.270 C 
HETATM   24  C   UNL     1       2.174  27.965  48.710  1.00  0.00     0.270 C 
ENDBRANCH  20  21
BRANCH  20  25
HETATM   25  C   UNL     1       4.967  28.688  49.396  1.00  0.00     0.085 A 
HETATM   26  O   UNL     1       4.856  28.748  50.757  1.00  0.00    -0.325 OA
HETATM   27  C   UNL     1       5.214  30.002  51.132  1.00  0.00     0.142 A 
HETATM   28  C   UNL     1       5.544  30.755  50.031  1.00  0.00     0.027 A 
HETATM   29  C   UNL     1       5.385  29.908  48.907  1.00  0.00     0.037 A 
ENDBRANCH  20  25
ENDBRANCH  19  20
ENDBRANCH   3  19
TORSDOF 6
ENDMDL
MODEL 9
REMARK VINA RESULT:      -7.7      4.864      8.777
REMARK  6 active torsions:
REMARK  status: ('A' for Active; 'I' for Inactive)
REMARK    1  A    between atoms: C_3  and  N_4 
REMARK       I    between atoms: N_4  and  C_5 
REMARK       I    between atoms: C_5  and  N_6 
REMARK    2  A    between atoms: N_6  and  C_7 
REMARK    3  A    between atoms: C_7  and  C_8 
REMARK    4  A    between atoms: C_8  and  N_9 
REMARK    5  A    between atoms: C_8  and  C_13 
REMARK    6  A    between atoms: C_20  and  C_21 
ROOT
HETATM    1  N   UNL     1       4.747  26.114  52.940  1.00  0.00    -0.309 N 
HETATM    2  C   UNL     1       5.063  27.253  52.247  1.00  0.00     0.320 C 
HETATM    3  N   UNL     1       4.075  27.609  51.362  1.00  0.00    -0.340 N 
HETATM    4  O   UNL     1       6.081  27.929  52.345  1.00  0.00    -0.247 OA
HETATM    5  H   UNL     1       4.173  25.462  52.419  1.00  0.00     0.170 HD
HETATM    6  H   UNL     1       3.285  26.981  51.283  1.00  0.00     0.164 HD
ENDROOT
BRANCH   1   7
HETATM    7  C   UNL     1       5.529  25.512  53.954  1.00  0.00     0.043 A 
HETATM    8  C   UNL     1       5.708  26.014  55.255  1.00  0.00    -0.035 A 
HETATM    9  C   UNL     1       5.014  27.228  55.802  1.00  0.00     0.050 C 
HETATM   10  C   UNL     1       6.562  25.319  56.133  1.00  0.00     0.010 A 
HETATM   11  C   UNL     1       7.180  24.123  55.757  1.00  0.00     0.016 A 
HETATM   12  C   UNL     1       6.957  23.583  54.490  1.00  0.00     0.019 A 
HETATM   13  C   UNL     1       6.123  24.284  53.606  1.00  0.00     0.046 A 
BRANCH  12  14
HETATM   14  C   UNL     1       7.566  22.329  54.055  1.00  0.00     0.179 A 
HETATM   15  O   UNL     1       7.776  21.371  55.012  1.00  0.00    -0.302 OA
HETATM   16  C   UNL     1       8.340  20.336  54.330  1.00  0.00     0.163 A 
HETATM   17  C   UNL     1       8.447  20.705  53.013  1.00  0.00     0.144 A 
HETATM   18  N   UNL     1       7.953  21.974  52.843  1.00  0.00    -0.234 NA
ENDBRANCH  12  14
ENDBRANCH   1   7
BRANCH   3  19
HETATM   19  C   UNL     1       4.268  28.575  50.278  1.00  0.00     0.164 C 
BRANCH  19  20
HETATM   20  C   UNL     1       3.106  28.700  49.240  1.00  0.00     0.261 C 
BRANCH  20  21
HETATM   21  N   UNL     1       3.231  29.958  48.381  1.00  0.00    -0.067 N 
HETATM   22  H   UNL     1       2.415  29.915  47.735  1.00  0.00     0.280 HD
HETATM   23  C   UNL     1       3.066  31.261  49.103  1.00  0.00     0.270 C 
HETATM   24  C   UNL     1       4.442  29.955  47.506  1.00  0.00     0.270 C 
ENDBRANCH  20  21
BRANCH  20  25
HETATM   25  C   UNL     1       2.983  27.446  48.429  1.00  0.00     0.085 A 
HETATM   26  O   UNL     1       3.857  26.439  48.725  1.00  0.00    -0.325 OA
HETATM   27  C   UNL     1       3.572  25.405  47.893  1.00  0.00     0.142 A 
HETATM   28  C   UNL     1       2.533  25.736  47.057  1.00  0.00     0.027 A 
HETATM   29  C   UNL     1       2.149  27.056  47.401  1.00  0.00     0.037 A 
ENDBRANCH  20  25
ENDBRANCH  19  20
ENDBRANCH   3  19
TORSDOF 6
ENDMDL
MODEL 10
REMARK VINA RESULT:      -7.7      2.114      8.366
REMARK  6 active torsions:
REMARK  status: ('A' for Active; 'I' for Inactive)
REMARK    1  A    between atoms: C_3  and  N_4 
REMARK       I    between atoms: N_4  and  C_5 
REMARK       I    between atoms: C_5  and  N_6 
REMARK    2  A    between atoms: N_6  and  C_7 
REMARK    3  A    between atoms: C_7  and  C_8 
REMARK    4  A    between atoms: C_8  and  N_9 
REMARK    5  A    between atoms: C_8  and  C_13 
REMARK    6  A    between atoms: C_20  and  C_21 
ROOT
HETATM    1  N   UNL     1       5.352  26.084  54.826  1.00  0.00    -0.309 N 
HETATM    2  C   UNL     1       5.730  26.818  55.920  1.00  0.00     0.320 C 
HETATM    3  N   UNL     1       4.689  27.554  56.430  1.00  0.00    -0.340 N 
HETATM    4  O   UNL     1       6.838  26.866  56.442  1.00  0.00    -0.247 OA
HETATM    5  H   UNL     1       4.623  26.517  54.273  1.00  0.00     0.170 HD
HETATM    6  H   UNL     1       3.814  27.519  55.924  1.00  0.00     0.164 HD
ENDROOT
BRANCH   1   7
HETATM    7  C   UNL     1       6.174  25.189  54.099  1.00  0.00     0.043 A 
HETATM    8  C   UNL     1       6.585  25.356  52.766  1.00  0.00    -0.035 A 
HETATM    9  C   UNL     1       6.290  26.567  51.928  1.00  0.00     0.050 C 
HETATM   10  C   UNL     1       7.364  24.345  52.170  1.00  0.00     0.010 A 
HETATM   11  C   UNL     1       7.779  23.222  52.892  1.00  0.00     0.016 A 
HETATM   12  C   UNL     1       7.431  23.080  54.235  1.00  0.00     0.019 A 
HETATM   13  C   UNL     1       6.637  24.075  54.825  1.00  0.00     0.046 A 
BRANCH  12  14
HETATM   14  C   UNL     1       7.852  21.935  55.036  1.00  0.00     0.179 A 
HETATM   15  O   UNL     1       8.337  22.194  56.292  1.00  0.00    -0.302 OA
HETATM   16  C   UNL     1       8.642  20.964  56.792  1.00  0.00     0.163 A 
HETATM   17  C   UNL     1       8.336  20.030  55.836  1.00  0.00     0.144 A 
HETATM   18  N   UNL     1       7.834  20.652  54.720  1.00  0.00    -0.234 NA
ENDBRANCH  12  14
ENDBRANCH   1   7
BRANCH   3  19
HETATM   19  C   UNL     1       4.866  28.657  57.378  1.00  0.00     0.164 C 
BRANCH  19  20
HETATM   20  C   UNL     1       5.683  29.890  56.870  1.00  0.00     0.261 C 
BRANCH  20  21
HETATM   21  N   UNL     1       4.791  31.102  56.602  1.00  0.00    -0.067 N 
HETATM   22  H   UNL     1       5.333  31.911  56.971  1.00  0.00     0.280 HD
HETATM   23  C   UNL     1       4.560  31.437  55.159  1.00  0.00     0.270 C 
HETATM   24  C   UNL     1       3.516  31.079  57.380  1.00  0.00     0.270 C 
ENDBRANCH  20  21
BRANCH  20  25
HETATM   25  C   UNL     1       6.819  30.191  57.798  1.00  0.00     0.085 A 
HETATM   26  O   UNL     1       6.958  31.491  58.193  1.00  0.00    -0.325 OA
HETATM   27  C   UNL     1       8.028  31.544  59.027  1.00  0.00     0.142 A 
HETATM   28  C   UNL     1       8.588  30.297  59.167  1.00  0.00     0.027 A 
HETATM   29  C   UNL     1       7.809  29.419  58.372  1.00  0.00     0.037 A 
ENDBRANCH  20  25
ENDBRANCH  19  20
ENDBRANCH   3  19
TORSDOF 6
ENDMDL
