MODEL 1
REMARK VINA RESULT:      -8.9      0.000      0.000
REMARK  6 active torsions:
REMARK  status: ('A' for Active; 'I' for Inactive)
REMARK    1  A    between atoms: C_2  and  N_3 
REMARK    2  A    between atoms: C_2  and  C_21 
REMARK       I    between atoms: N_3  and  C_4 
REMARK       I    between atoms: C_4  and  N_5 
REMARK    3  A    between atoms: N_5  and  C_6 
REMARK    4  A    between atoms: C_6  and  C_7 
REMARK    5  A    between atoms: C_10  and  O_11 
REMARK    6  A    between atoms: O_11  and  C_12 
ROOT
HETATM    1  N   UNL     1       8.014  30.415  60.058  1.00  0.00    -0.332 N 
HETATM    2  C   UNL     1       7.488  30.267  58.811  1.00  0.00     0.317 C 
HETATM    3  N   UNL     1       7.387  28.949  58.453  1.00  0.00    -0.339 N 
HETATM    4  O   UNL     1       7.138  31.197  58.099  1.00  0.00    -0.247 OA
HETATM    5  H   UNL     1       8.555  29.657  60.451  1.00  0.00     0.165 HD
HETATM    6  H   UNL     1       7.263  28.303  59.216  1.00  0.00     0.164 HD
ENDROOT
BRANCH   3   7
HETATM    7  C   UNL     1       6.757  28.615  57.199  1.00  0.00     0.162 C 
BRANCH   7   8
HETATM    8  C   UNL     1       6.909  27.153  56.877  1.00  0.00    -0.040 A 
HETATM    9  C   UNL     1       5.995  26.514  56.030  1.00  0.00     0.011 A 
HETATM   10  C   UNL     1       6.143  25.159  55.707  1.00  0.00     0.037 A 
HETATM   11  C   UNL     1       7.205  24.425  56.232  1.00  0.00     0.069 A 
HETATM   12  C   UNL     1       8.098  25.052  57.103  1.00  0.00     0.037 A 
HETATM   13  C   UNL     1       7.954  26.404  57.428  1.00  0.00     0.011 A 
BRANCH  11  14
HETATM   14  O   UNL     1       7.487  23.112  55.979  1.00  0.00    -0.346 OA
BRANCH  14  15
HETATM   15  C   UNL     1       8.741  22.763  55.377  1.00  0.00     0.129 C 
HETATM   16  C   UNL     1       9.036  21.263  55.541  1.00  0.00     0.032 C 
HETATM   17  C   UNL     1       8.017  20.389  54.809  1.00  0.00     0.002 C 
HETATM   18  C   UNL     1       7.922  20.758  53.332  1.00  0.00     0.000 C 
HETATM   19  C   UNL     1       7.630  22.243  53.141  1.00  0.00     0.002 C 
HETATM   20  C   UNL     1       8.640  23.118  53.884  1.00  0.00     0.032 C 
ENDBRANCH  14  15
ENDBRANCH  11  14
ENDBRANCH   7   8
ENDBRANCH   3   7
BRANCH   1  21
HETATM   21  C   UNL     1       8.256  31.728  60.646  1.00  0.00     0.155 C 
HETATM   22  C   UNL     1       9.513  31.734  61.516  1.00  0.00     0.041 C 
BRANCH  21  23
HETATM   23  C   UNL     1       7.047  32.118  61.456  1.00  0.00     0.169 A 
HETATM   24  N   UNL     1       6.230  33.133  61.120  1.00  0.00    -0.156 NA
HETATM   25  N   UNL     1       5.317  33.077  62.104  1.00  0.00    -0.270 N 
HETATM   26  H   UNL     1       4.551  33.742  62.113  1.00  0.00     0.190 HD
HETATM   27  C   UNL     1       5.590  32.073  62.975  1.00  0.00     0.227 A 
HETATM   28  N   UNL     1       6.676  31.445  62.596  1.00  0.00    -0.223 NA
ENDBRANCH  21  23
ENDBRANCH   1  21
TORSDOF 6
ENDMDL
MODEL 2
REMARK VINA RESULT:      -8.5      1.413      2.075
REMARK  6 active torsions:
REMARK  status: ('A' for Active; 'I' for Inactive)
REMARK    1  A    between atoms: C_2  and  N_3 
REMARK    2  A    between atoms: C_2  and  C_21 
REMARK       I    between atoms: N_3  and  C_4 
REMARK       I    between atoms: C_4  and  N_5 
REMARK    3  A    between atoms: N_5  and  C_6 
REMARK    4  A    between atoms: C_6  and  C_7 
REMARK    5  A    between atoms: C_10  and  O_11 
REMARK    6  A    between atoms: O_11  and  C_12 
ROOT
HETATM    1  N   UNL     1       8.449  30.120  58.498  1.00  0.00    -0.332 N 
HETATM    2  C   UNL     1       7.253  29.818  57.922  1.00  0.00     0.317 C 
HETATM    3  N   UNL     1       7.297  28.625  57.251  1.00  0.00    -0.339 N 
HETATM    4  O   UNL     1       6.256  30.521  58.001  1.00  0.00    -0.247 OA
HETATM    5  H   UNL     1       9.285  29.676  58.146  1.00  0.00     0.165 HD
HETATM    6  H   UNL     1       7.955  27.951  57.611  1.00  0.00     0.164 HD
ENDROOT
BRANCH   3   7
HETATM    7  C   UNL     1       6.082  28.110  56.666  1.00  0.00     0.162 C 
BRANCH   7   8
HETATM    8  C   UNL     1       6.329  26.824  55.926  1.00  0.00    -0.040 A 
HETATM    9  C   UNL     1       6.803  26.842  54.608  1.00  0.00     0.011 A 
HETATM   10  C   UNL     1       7.056  25.649  53.920  1.00  0.00     0.037 A 
HETATM   11  C   UNL     1       6.833  24.421  54.540  1.00  0.00     0.069 A 
HETATM   12  C   UNL     1       6.328  24.400  55.842  1.00  0.00     0.037 A 
HETATM   13  C   UNL     1       6.074  25.589  56.532  1.00  0.00     0.011 A 
BRANCH  11  14
HETATM   14  O   UNL     1       7.065  23.186  54.002  1.00  0.00    -0.346 OA
BRANCH  14  15
HETATM   15  C   UNL     1       8.410  22.784  53.711  1.00  0.00     0.129 C 
HETATM   16  C   UNL     1       9.211  22.555  55.003  1.00  0.00     0.032 C 
HETATM   17  C   UNL     1       8.651  21.402  55.835  1.00  0.00     0.002 C 
HETATM   18  C   UNL     1       8.567  20.114  55.022  1.00  0.00     0.000 C 
HETATM   19  C   UNL     1       7.776  20.314  53.733  1.00  0.00     0.002 C 
HETATM   20  C   UNL     1       8.327  21.477  52.906  1.00  0.00     0.032 C 
ENDBRANCH  14  15
ENDBRANCH  11  14
ENDBRANCH   7   8
ENDBRANCH   3   7
BRANCH   1  21
HETATM   21  C   UNL     1       8.662  31.360  59.237  1.00  0.00     0.155 C 
HETATM   22  C   UNL     1      10.063  31.925  59.001  1.00  0.00     0.041 C 
BRANCH  21  23
HETATM   23  C   UNL     1       8.437  31.088  60.701  1.00  0.00     0.169 A 
HETATM   24  N   UNL     1       9.174  30.213  61.410  1.00  0.00    -0.156 NA
HETATM   25  N   UNL     1       8.626  30.332  62.632  1.00  0.00    -0.270 N 
HETATM   26  H   UNL     1       8.990  29.777  63.398  1.00  0.00     0.190 HD
HETATM   27  C   UNL     1       7.615  31.238  62.633  1.00  0.00     0.227 A 
HETATM   28  N   UNL     1       7.469  31.736  61.430  1.00  0.00    -0.223 NA
ENDBRANCH  21  23
ENDBRANCH   1  21
TORSDOF 6
ENDMDL
MODEL 3
REMARK VINA RESULT:      -8.5      1.536      2.286
REMARK  6 active torsions:
REMARK  status: ('A' for Active; 'I' for Inactive)
REMARK    1  A    between atoms: C_2  and  N_3 
REMARK    2  A    between atoms: C_2  and  C_21 
REMARK       I    between atoms: N_3  and  C_4 
REMARK       I    between atoms: C_4  and  N_5 
REMARK    3  A    between atoms: N_5  and  C_6 
REMARK    4  A    between atoms: C_6  and  C_7 
REMARK    5  A    between atoms: C_10  and  O_11 
REMARK    6  A    between atoms: O_11  and  C_12 
ROOT
HETATM    1  N   UNL     1       6.844  31.413  60.834  1.00  0.00    -0.332 N 
HETATM    2  C   UNL     1       7.113  31.493  59.502  1.00  0.00     0.317 C 
HETATM    3  N   UNL     1       6.485  30.503  58.795  1.00  0.00    -0.339 N 
HETATM    4  O   UNL     1       7.822  32.350  58.994  1.00  0.00    -0.247 OA
HETATM    5  H   UNL     1       6.524  30.534  61.214  1.00  0.00     0.165 HD
HETATM    6  H   UNL     1       5.622  30.168  59.194  1.00  0.00     0.164 HD
ENDROOT
BRANCH   3   7
HETATM    7  C   UNL     1       6.585  30.504  57.355  1.00  0.00     0.162 C 
BRANCH   7   8
HETATM    8  C   UNL     1       6.879  29.129  56.821  1.00  0.00    -0.040 A 
HETATM    9  C   UNL     1       6.683  28.836  55.465  1.00  0.00     0.011 A 
HETATM   10  C   UNL     1       6.976  27.565  54.957  1.00  0.00     0.037 A 
HETATM   11  C   UNL     1       7.465  26.567  55.798  1.00  0.00     0.069 A 
HETATM   12  C   UNL     1       7.630  26.847  57.157  1.00  0.00     0.037 A 
HETATM   13  C   UNL     1       7.338  28.114  57.669  1.00  0.00     0.011 A 
BRANCH  11  14
HETATM   14  O   UNL     1       7.820  25.299  55.433  1.00  0.00    -0.346 OA
BRANCH  14  15
HETATM   15  C   UNL     1       6.799  24.317  55.211  1.00  0.00     0.129 C 
HETATM   16  C   UNL     1       6.346  24.311  53.742  1.00  0.00     0.032 C 
HETATM   17  C   UNL     1       7.470  23.899  52.791  1.00  0.00     0.002 C 
HETATM   18  C   UNL     1       8.059  22.546  53.176  1.00  0.00     0.000 C 
HETATM   19  C   UNL     1       8.517  22.525  54.631  1.00  0.00     0.002 C 
HETATM   20  C   UNL     1       7.398  22.951  55.582  1.00  0.00     0.032 C 
ENDBRANCH  14  15
ENDBRANCH  11  14
ENDBRANCH   7   8
ENDBRANCH   3   7
BRANCH   1  21
HETATM   21  C   UNL     1       7.431  32.337  61.799  1.00  0.00     0.155 C 
HETATM   22  C   UNL     1       8.672  31.743  62.467  1.00  0.00     0.041 C 
BRANCH  21  23
HETATM   23  C   UNL     1       6.386  32.679  62.828  1.00  0.00     0.169 A 
HETATM   24  N   UNL     1       5.310  31.908  63.072  1.00  0.00    -0.156 NA
HETATM   25  N   UNL     1       4.705  32.597  64.054  1.00  0.00    -0.270 N 
HETATM   26  H   UNL     1       3.842  32.245  64.453  1.00  0.00     0.190 HD
HETATM   27  C   UNL     1       5.399  33.721  64.369  1.00  0.00     0.227 A 
HETATM   28  N   UNL     1       6.467  33.804  63.614  1.00  0.00    -0.223 NA
ENDBRANCH  21  23
ENDBRANCH   1  21
TORSDOF 6
ENDMDL
MODEL 4
REMARK VINA RESULT:      -8.3      6.408      9.221
REMARK  6 active torsions:
REMARK  status: ('A' for Active; 'I' for Inactive)
REMARK    1  A    between atoms: C_2  and  N_3 
REMARK    2  A    between atoms: C_2  and  C_21 
REMARK       I    between atoms: N_3  and  C_4 
REMARK       I    between atoms: C_4  and  N_5 
REMARK    3  A    between atoms: N_5  and  C_6 
REMARK    4  A    between atoms: C_6  and  C_7 
REMARK    5  A    between atoms: C_10  and  O_11 
REMARK    6  A    between atoms: O_11  and  C_12 
ROOT
HETATM    1  N   UNL     1       2.667  28.278  50.409  1.00  0.00    -0.332 N 
HETATM    2  C   UNL     1       3.712  28.503  51.251  1.00  0.00     0.317 C 
HETATM    3  N   UNL     1       3.436  28.093  52.528  1.00  0.00    -0.339 N 
HETATM    4  O   UNL     1       4.774  29.003  50.909  1.00  0.00    -0.247 OA
HETATM    5  H   UNL     1       1.743  28.161  50.800  1.00  0.00     0.165 HD
HETATM    6  H   UNL     1       2.783  27.329  52.604  1.00  0.00     0.164 HD
ENDROOT
BRANCH   3   7
HETATM    7  C   UNL     1       4.477  28.170  53.524  1.00  0.00     0.162 C 
BRANCH   7   8
HETATM    8  C   UNL     1       5.185  26.853  53.686  1.00  0.00    -0.040 A 
HETATM    9  C   UNL     1       6.322  26.753  54.498  1.00  0.00     0.011 A 
HETATM   10  C   UNL     1       6.973  25.525  54.671  1.00  0.00     0.037 A 
HETATM   11  C   UNL     1       6.497  24.381  54.032  1.00  0.00     0.069 A 
HETATM   12  C   UNL     1       5.384  24.486  53.195  1.00  0.00     0.037 A 
HETATM   13  C   UNL     1       4.731  25.710  53.019  1.00  0.00     0.011 A 
BRANCH  11  14
HETATM   14  O   UNL     1       7.013  23.120  54.135  1.00  0.00    -0.346 OA
BRANCH  14  15
HETATM   15  C   UNL     1       8.352  22.942  54.616  1.00  0.00     0.129 C 
HETATM   16  C   UNL     1       8.359  22.284  56.005  1.00  0.00     0.032 C 
HETATM   17  C   UNL     1       7.783  20.868  55.977  1.00  0.00     0.002 C 
HETATM   18  C   UNL     1       8.509  19.989  54.964  1.00  0.00     0.000 C 
HETATM   19  C   UNL     1       8.517  20.620  53.576  1.00  0.00     0.002 C 
HETATM   20  C   UNL     1       9.079  22.042  53.604  1.00  0.00     0.032 C 
ENDBRANCH  14  15
ENDBRANCH  11  14
ENDBRANCH   7   8
ENDBRANCH   3   7
BRANCH   1  21
HETATM   21  C   UNL     1       2.707  28.665  49.003  1.00  0.00     0.155 C 
HETATM   22  C   UNL     1       1.532  29.570  48.632  1.00  0.00     0.041 C 
BRANCH  21  23
HETATM   23  C   UNL     1       2.702  27.415  48.162  1.00  0.00     0.169 A 
HETATM   24  N   UNL     1       2.094  27.335  46.964  1.00  0.00    -0.156 NA
HETATM   25  N   UNL     1       2.375  26.070  46.608  1.00  0.00    -0.270 N 
HETATM   26  H   UNL     1       2.037  25.715  45.720  1.00  0.00     0.190 HD
HETATM   27  C   UNL     1       3.114  25.441  47.557  1.00  0.00     0.227 A 
HETATM   28  N   UNL     1       3.339  26.262  48.554  1.00  0.00    -0.223 NA
ENDBRANCH  21  23
ENDBRANCH   1  21
TORSDOF 6
ENDMDL
MODEL 5
REMARK VINA RESULT:      -8.2      3.155     11.312
REMARK  6 active torsions:
REMARK  status: ('A' for Active; 'I' for Inactive)
REMARK    1  A    between atoms: C_2  and  N_3 
REMARK    2  A    between atoms: C_2  and  C_21 
REMARK       I    between atoms: N_3  and  C_4 
REMARK       I    between atoms: C_4  and  N_5 
REMARK    3  A    between atoms: N_5  and  C_6 
REMARK    4  A    between atoms: C_6  and  C_7 
REMARK    5  A    between atoms: C_10  and  O_11 
REMARK    6  A    between atoms: O_11  and  C_12 
ROOT
HETATM    1  N   UNL     1       7.022  29.175  58.045  1.00  0.00    -0.332 N 
HETATM    2  C   UNL     1       8.027  29.880  58.633  1.00  0.00     0.317 C 
HETATM    3  N   UNL     1       7.612  30.502  59.780  1.00  0.00    -0.339 N 
HETATM    4  O   UNL     1       9.167  29.944  58.195  1.00  0.00    -0.247 OA
HETATM    5  H   UNL     1       6.066  29.410  58.271  1.00  0.00     0.165 HD
HETATM    6  H   UNL     1       6.859  30.043  60.271  1.00  0.00     0.164 HD
ENDROOT
BRANCH   3   7
HETATM    7  C   UNL     1       8.582  31.210  60.578  1.00  0.00     0.162 C 
BRANCH   7   8
HETATM    8  C   UNL     1       7.919  32.050  61.636  1.00  0.00    -0.040 A 
HETATM    9  C   UNL     1       6.760  32.779  61.342  1.00  0.00     0.011 A 
HETATM   10  C   UNL     1       6.125  33.544  62.327  1.00  0.00     0.037 A 
HETATM   11  C   UNL     1       6.643  33.595  63.620  1.00  0.00     0.069 A 
HETATM   12  C   UNL     1       7.817  32.895  63.907  1.00  0.00     0.037 A 
HETATM   13  C   UNL     1       8.455  32.130  62.926  1.00  0.00     0.011 A 
BRANCH  11  14
HETATM   14  O   UNL     1       6.112  34.272  64.681  1.00  0.00    -0.346 OA
BRANCH  14  15
HETATM   15  C   UNL     1       4.864  33.840  65.241  1.00  0.00     0.129 C 
HETATM   16  C   UNL     1       4.908  33.865  66.777  1.00  0.00     0.032 C 
HETATM   17  C   UNL     1       5.093  35.278  67.329  1.00  0.00     0.002 C 
HETATM   18  C   UNL     1       4.018  36.227  66.808  1.00  0.00     0.000 C 
HETATM   19  C   UNL     1       3.953  36.222  65.285  1.00  0.00     0.002 C 
HETATM   20  C   UNL     1       3.782  34.806  64.731  1.00  0.00     0.032 C 
ENDBRANCH  14  15
ENDBRANCH  11  14
ENDBRANCH   7   8
ENDBRANCH   3   7
BRANCH   1  21
HETATM   21  C   UNL     1       7.210  28.457  56.789  1.00  0.00     0.155 C 
HETATM   22  C   UNL     1       6.154  28.844  55.753  1.00  0.00     0.041 C 
BRANCH  21  23
HETATM   23  C   UNL     1       7.161  26.978  57.072  1.00  0.00     0.169 A 
HETATM   24  N   UNL     1       7.933  26.378  57.997  1.00  0.00    -0.156 NA
HETATM   25  N   UNL     1       7.525  25.102  57.896  1.00  0.00    -0.270 N 
HETATM   26  H   UNL     1       7.942  24.396  58.493  1.00  0.00     0.190 HD
HETATM   27  C   UNL     1       6.557  24.965  56.955  1.00  0.00     0.227 A 
HETATM   28  N   UNL     1       6.302  26.131  56.413  1.00  0.00    -0.223 NA
ENDBRANCH  21  23
ENDBRANCH   1  21
TORSDOF 6
ENDMDL
MODEL 6
REMARK VINA RESULT:      -8.1      2.620      3.811
REMARK  6 active torsions:
REMARK  status: ('A' for Active; 'I' for Inactive)
REMARK    1  A    between atoms: C_2  and  N_3 
REMARK    2  A    between atoms: C_2  and  C_21 
REMARK       I    between atoms: N_3  and  C_4 
REMARK       I    between atoms: C_4  and  N_5 
REMARK    3  A    between atoms: N_5  and  C_6 
REMARK    4  A    between atoms: C_6  and  C_7 
REMARK    5  A    between atoms: C_10  and  O_11 
REMARK    6  A    between atoms: O_11  and  C_12 
ROOT
HETATM    1  N   UNL     1       5.693  30.679  55.642  1.00  0.00    -0.332 N 
HETATM    2  C   UNL     1       4.954  29.761  54.961  1.00  0.00     0.317 C 
HETATM    3  N   UNL     1       5.543  29.409  53.776  1.00  0.00    -0.339 N 
HETATM    4  O   UNL     1       3.895  29.298  55.360  1.00  0.00    -0.247 OA
HETATM    5  H   UNL     1       6.367  31.234  55.135  1.00  0.00     0.165 HD
HETATM    6  H   UNL     1       6.550  29.473  53.759  1.00  0.00     0.164 HD
ENDROOT
BRANCH   3   7
HETATM    7  C   UNL     1       4.938  28.370  52.978  1.00  0.00     0.162 C 
BRANCH   7   8
HETATM    8  C   UNL     1       5.519  27.020  53.296  1.00  0.00    -0.040 A 
HETATM    9  C   UNL     1       6.839  26.904  53.749  1.00  0.00     0.011 A 
HETATM   10  C   UNL     1       7.380  25.652  54.068  1.00  0.00     0.037 A 
HETATM   11  C   UNL     1       6.609  24.499  53.934  1.00  0.00     0.069 A 
HETATM   12  C   UNL     1       5.304  24.609  53.450  1.00  0.00     0.037 A 
HETATM   13  C   UNL     1       4.760  25.856  53.130  1.00  0.00     0.011 A 
BRANCH  11  14
HETATM   14  O   UNL     1       6.996  23.224  54.237  1.00  0.00    -0.346 OA
BRANCH  14  15
HETATM   15  C   UNL     1       8.349  22.975  54.642  1.00  0.00     0.129 C 
HETATM   16  C   UNL     1       8.396  22.237  55.990  1.00  0.00     0.032 C 
HETATM   17  C   UNL     1       7.771  20.845  55.910  1.00  0.00     0.002 C 
HETATM   18  C   UNL     1       8.418  20.003  54.815  1.00  0.00     0.000 C 
HETATM   19  C   UNL     1       8.384  20.713  53.466  1.00  0.00     0.002 C 
HETATM   20  C   UNL     1       8.997  22.112  53.547  1.00  0.00     0.032 C 
ENDBRANCH  14  15
ENDBRANCH  11  14
ENDBRANCH   7   8
ENDBRANCH   3   7
BRANCH   1  21
HETATM   21  C   UNL     1       5.252  31.238  56.915  1.00  0.00     0.155 C 
HETATM   22  C   UNL     1       4.781  32.685  56.764  1.00  0.00     0.041 C 
BRANCH  21  23
HETATM   23  C   UNL     1       6.391  31.149  57.896  1.00  0.00     0.169 A 
HETATM   24  N   UNL     1       6.825  32.197  58.620  1.00  0.00    -0.156 NA
HETATM   25  N   UNL     1       7.811  31.634  59.339  1.00  0.00    -0.270 N 
HETATM   26  H   UNL     1       8.335  32.201  59.997  1.00  0.00     0.190 HD
HETATM   27  C   UNL     1       7.944  30.315  59.048  1.00  0.00     0.227 A 
HETATM   28  N   UNL     1       7.062  29.974  58.140  1.00  0.00    -0.223 NA
ENDBRANCH  21  23
ENDBRANCH   1  21
TORSDOF 6
ENDMDL
MODEL 7
REMARK VINA RESULT:      -8.0      2.378      3.355
REMARK  6 active torsions:
REMARK  status: ('A' for Active; 'I' for Inactive)
REMARK    1  A    between atoms: C_2  and  N_3 
REMARK    2  A    between atoms: C_2  and  C_21 
REMARK       I    between atoms: N_3  and  C_4 
REMARK       I    between atoms: C_4  and  N_5 
REMARK    3  A    between atoms: N_5  and  C_6 
REMARK    4  A    between atoms: C_6  and  C_7 
REMARK    5  A    between atoms: C_10  and  O_11 
REMARK    6  A    between atoms: O_11  and  C_12 
ROOT
HETATM    1  N   UNL     1       7.389  31.674  61.450  1.00  0.00    -0.332 N 
HETATM    2  C   UNL     1       8.306  31.704  60.445  1.00  0.00     0.317 C 
HETATM    3  N   UNL     1       8.389  30.503  59.793  1.00  0.00    -0.339 N 
HETATM    4  O   UNL     1       8.972  32.687  60.152  1.00  0.00    -0.247 OA
HETATM    5  H   UNL     1       7.114  30.780  61.831  1.00  0.00     0.165 HD
HETATM    6  H   UNL     1       7.542  29.954  59.791  1.00  0.00     0.164 HD
ENDROOT
BRANCH   3   7
HETATM    7  C   UNL     1       9.243  30.396  58.635  1.00  0.00     0.162 C 
BRANCH   7   8
HETATM    8  C   UNL     1       8.652  29.485  57.594  1.00  0.00    -0.040 A 
HETATM    9  C   UNL     1       7.665  28.554  57.943  1.00  0.00     0.011 A 
HETATM   10  C   UNL     1       7.094  27.719  56.975  1.00  0.00     0.037 A 
HETATM   11  C   UNL     1       7.505  27.800  55.646  1.00  0.00     0.069 A 
HETATM   12  C   UNL     1       8.513  28.704  55.303  1.00  0.00     0.037 A 
HETATM   13  C   UNL     1       9.086  29.540  56.265  1.00  0.00     0.011 A 
BRANCH  11  14
HETATM   14  O   UNL     1       7.015  27.072  54.599  1.00  0.00    -0.346 OA
BRANCH  14  15
HETATM   15  C   UNL     1       6.783  25.667  54.764  1.00  0.00     0.129 C 
HETATM   16  C   UNL     1       5.410  25.262  54.202  1.00  0.00     0.032 C 
HETATM   17  C   UNL     1       5.316  25.479  52.692  1.00  0.00     0.002 C 
HETATM   18  C   UNL     1       6.434  24.751  51.952  1.00  0.00     0.000 C 
HETATM   19  C   UNL     1       7.808  25.135  52.491  1.00  0.00     0.002 C 
HETATM   20  C   UNL     1       7.899  24.932  54.004  1.00  0.00     0.032 C 
ENDBRANCH  14  15
ENDBRANCH  11  14
ENDBRANCH   7   8
ENDBRANCH   3   7
BRANCH   1  21
HETATM   21  C   UNL     1       7.149  32.824  62.315  1.00  0.00     0.155 C 
HETATM   22  C   UNL     1       7.867  32.682  63.657  1.00  0.00     0.041 C 
BRANCH  21  23
HETATM   23  C   UNL     1       5.664  32.967  62.519  1.00  0.00     0.169 A 
HETATM   24  N   UNL     1       5.051  32.705  63.689  1.00  0.00    -0.156 NA
HETATM   25  N   UNL     1       3.772  32.989  63.389  1.00  0.00    -0.270 N 
HETATM   26  H   UNL     1       3.058  32.885  64.101  1.00  0.00     0.190 HD
HETATM   27  C   UNL     1       3.646  33.399  62.101  1.00  0.00     0.227 A 
HETATM   28  N   UNL     1       4.822  33.397  61.521  1.00  0.00    -0.223 NA
ENDBRANCH  21  23
ENDBRANCH   1  21
TORSDOF 6
ENDMDL
MODEL 8
REMARK VINA RESULT:      -7.9      2.333      3.584
REMARK  6 active torsions:
REMARK  status: ('A' for Active; 'I' for Inactive)
REMARK    1  A    between atoms: C_2  and  N_3 
REMARK    2  A    between atoms: C_2  and  C_21 
REMARK       I    between atoms: N_3  and  C_4 
REMARK       I    between atoms: C_4  and  N_5 
REMARK    3  A    between atoms: N_5  and  C_6 
REMARK    4  A    between atoms: C_6  and  C_7 
REMARK    5  A    between atoms: C_10  and  O_11 
REMARK    6  A    between atoms: O_11  and  C_12 
ROOT
HETATM    1  N   UNL     1       6.852  29.420  56.162  1.00  0.00    -0.332 N 
HETATM    2  C   UNL     1       7.203  28.771  55.019  1.00  0.00     0.317 C 
HETATM    3  N   UNL     1       6.108  28.337  54.321  1.00  0.00    -0.339 N 
HETATM    4  O   UNL     1       8.358  28.602  54.652  1.00  0.00    -0.247 OA
HETATM    5  H   UNL     1       5.935  29.256  56.553  1.00  0.00     0.165 HD
HETATM    6  H   UNL     1       5.273  28.888  54.442  1.00  0.00     0.164 HD
ENDROOT
BRANCH   3   7
HETATM    7  C   UNL     1       6.304  27.715  53.034  1.00  0.00     0.162 C 
BRANCH   7   8
HETATM    8  C   UNL     1       6.635  26.254  53.170  1.00  0.00    -0.040 A 
HETATM    9  C   UNL     1       6.000  25.469  54.140  1.00  0.00     0.011 A 
HETATM   10  C   UNL     1       6.287  24.104  54.259  1.00  0.00     0.037 A 
HETATM   11  C   UNL     1       7.217  23.506  53.410  1.00  0.00     0.069 A 
HETATM   12  C   UNL     1       7.877  24.294  52.465  1.00  0.00     0.037 A 
HETATM   13  C   UNL     1       7.594  25.657  52.343  1.00  0.00     0.011 A 
BRANCH  11  14
HETATM   14  O   UNL     1       7.569  22.186  53.394  1.00  0.00    -0.346 OA
BRANCH  14  15
HETATM   15  C   UNL     1       8.902  21.806  53.764  1.00  0.00     0.129 C 
HETATM   16  C   UNL     1       9.383  22.601  54.989  1.00  0.00     0.032 C 
HETATM   17  C   UNL     1       8.552  22.302  56.237  1.00  0.00     0.002 C 
HETATM   18  C   UNL     1       8.522  20.808  56.544  1.00  0.00     0.000 C 
HETATM   19  C   UNL     1       8.047  19.996  55.344  1.00  0.00     0.002 C 
HETATM   20  C   UNL     1       8.869  20.304  54.092  1.00  0.00     0.032 C 
ENDBRANCH  14  15
ENDBRANCH  11  14
ENDBRANCH   7   8
ENDBRANCH   3   7
BRANCH   1  21
HETATM   21  C   UNL     1       7.846  29.942  57.094  1.00  0.00     0.155 C 
HETATM   22  C   UNL     1       8.637  28.818  57.763  1.00  0.00     0.041 C 
BRANCH  21  23
HETATM   23  C   UNL     1       7.139  30.782  58.125  1.00  0.00     0.169 A 
HETATM   24  N   UNL     1       5.800  30.915  58.176  1.00  0.00    -0.156 NA
HETATM   25  N   UNL     1       5.653  31.718  59.244  1.00  0.00    -0.270 N 
HETATM   26  H   UNL     1       4.723  31.997  59.535  1.00  0.00     0.190 HD
HETATM   27  C   UNL     1       6.854  32.036  59.792  1.00  0.00     0.227 A 
HETATM   28  N   UNL     1       7.815  31.462  59.110  1.00  0.00    -0.223 NA
ENDBRANCH  21  23
ENDBRANCH   1  21
TORSDOF 6
ENDMDL
MODEL 9
REMARK VINA RESULT:      -7.8      7.323      9.679
REMARK  6 active torsions:
REMARK  status: ('A' for Active; 'I' for Inactive)
REMARK    1  A    between atoms: C_2  and  N_3 
REMARK    2  A    between atoms: C_2  and  C_21 
REMARK       I    between atoms: N_3  and  C_4 
REMARK       I    between atoms: C_4  and  N_5 
REMARK    3  A    between atoms: N_5  and  C_6 
REMARK    4  A    between atoms: C_6  and  C_7 
REMARK    5  A    between atoms: C_10  and  O_11 
REMARK    6  A    between atoms: O_11  and  C_12 
ROOT
HETATM    1  N   UNL     1       4.107  27.690  48.620  1.00  0.00    -0.332 N 
HETATM    2  C   UNL     1       4.295  27.794  49.964  1.00  0.00     0.317 C 
HETATM    3  N   UNL     1       5.457  27.192  50.365  1.00  0.00    -0.339 N 
HETATM    4  O   UNL     1       3.524  28.365  50.722  1.00  0.00    -0.247 OA
HETATM    5  H   UNL     1       4.596  26.964  48.115  1.00  0.00     0.165 HD
HETATM    6  H   UNL     1       6.193  27.171  49.676  1.00  0.00     0.164 HD
ENDROOT
BRANCH   3   7
HETATM    7  C   UNL     1       5.855  27.299  51.748  1.00  0.00     0.162 C 
BRANCH   7   8
HETATM    8  C   UNL     1       6.290  25.969  52.302  1.00  0.00    -0.040 A 
HETATM    9  C   UNL     1       7.387  25.295  51.751  1.00  0.00     0.011 A 
HETATM   10  C   UNL     1       7.811  24.067  52.275  1.00  0.00     0.037 A 
HETATM   11  C   UNL     1       7.141  23.497  53.356  1.00  0.00     0.069 A 
HETATM   12  C   UNL     1       6.026  24.151  53.885  1.00  0.00     0.037 A 
HETATM   13  C   UNL     1       5.599  25.376  53.365  1.00  0.00     0.011 A 
BRANCH  11  14
HETATM   14  O   UNL     1       7.463  22.327  53.984  1.00  0.00    -0.346 OA
BRANCH  14  15
HETATM   15  C   UNL     1       8.807  22.117  54.439  1.00  0.00     0.129 C 
HETATM   16  C   UNL     1       9.150  23.059  55.604  1.00  0.00     0.032 C 
HETATM   17  C   UNL     1       8.293  22.788  56.841  1.00  0.00     0.002 C 
HETATM   18  C   UNL     1       8.394  21.332  57.282  1.00  0.00     0.000 C 
HETATM   19  C   UNL     1       8.057  20.374  56.144  1.00  0.00     0.002 C 
HETATM   20  C   UNL     1       8.904  20.654  54.901  1.00  0.00     0.032 C 
ENDBRANCH  14  15
ENDBRANCH  11  14
ENDBRANCH   7   8
ENDBRANCH   3   7
BRANCH   1  21
HETATM   21  C   UNL     1       2.920  28.220  47.959  1.00  0.00     0.155 C 
HETATM   22  C   UNL     1       2.236  27.163  47.091  1.00  0.00     0.041 C 
BRANCH  21  23
HETATM   23  C   UNL     1       3.326  29.409  47.129  1.00  0.00     0.169 A 
HETATM   24  N   UNL     1       2.456  30.130  46.397  1.00  0.00    -0.156 NA
HETATM   25  N   UNL     1       3.264  31.066  45.869  1.00  0.00    -0.270 N 
HETATM   26  H   UNL     1       2.874  31.773  45.256  1.00  0.00     0.190 HD
HETATM   27  C   UNL     1       4.548  30.898  46.278  1.00  0.00     0.227 A 
HETATM   28  N   UNL     1       4.623  29.860  47.075  1.00  0.00    -0.223 NA
ENDBRANCH  21  23
ENDBRANCH   1  21
TORSDOF 6
ENDMDL
MODEL 10
REMARK VINA RESULT:      -7.8      2.183      3.999
REMARK  6 active torsions:
REMARK  status: ('A' for Active; 'I' for Inactive)
REMARK    1  A    between atoms: C_2  and  N_3 
REMARK    2  A    between atoms: C_2  and  C_21 
REMARK       I    between atoms: N_3  and  C_4 
REMARK       I    between atoms: C_4  and  N_5 
REMARK    3  A    between atoms: N_5  and  C_6 
REMARK    4  A    between atoms: C_6  and  C_7 
REMARK    5  A    between atoms: C_10  and  O_11 
REMARK    6  A    between atoms: O_11  and  C_12 
ROOT
HETATM    1  N   UNL     1       5.287  32.437  61.488  1.00  0.00    -0.332 N 
HETATM    2  C   UNL     1       6.521  32.322  60.924  1.00  0.00     0.317 C 
HETATM    3  N   UNL     1       6.547  31.367  59.944  1.00  0.00    -0.339 N 
HETATM    4  O   UNL     1       7.489  32.996  61.247  1.00  0.00    -0.247 OA
HETATM    5  H   UNL     1       4.639  31.667  61.403  1.00  0.00     0.165 HD
HETATM    6  H   UNL     1       5.672  31.217  59.464  1.00  0.00     0.164 HD
ENDROOT
BRANCH   3   7
HETATM    7  C   UNL     1       7.756  31.188  59.177  1.00  0.00     0.162 C 
BRANCH   7   8
HETATM    8  C   UNL     1       7.628  30.049  58.202  1.00  0.00    -0.040 A 
HETATM    9  C   UNL     1       8.739  29.257  57.887  1.00  0.00     0.011 A 
HETATM   10  C   UNL     1       8.623  28.181  56.997  1.00  0.00     0.037 A 
HETATM   11  C   UNL     1       7.395  27.887  56.408  1.00  0.00     0.069 A 
HETATM   12  C   UNL     1       6.294  28.698  56.695  1.00  0.00     0.037 A 
HETATM   13  C   UNL     1       6.405  29.772  57.582  1.00  0.00     0.011 A 
BRANCH  11  14
HETATM   14  O   UNL     1       7.132  26.856  55.551  1.00  0.00    -0.346 OA
BRANCH  14  15
HETATM   15  C   UNL     1       6.068  25.943  55.852  1.00  0.00     0.129 C 
HETATM   16  C   UNL     1       5.599  25.203  54.588  1.00  0.00     0.032 C 
HETATM   17  C   UNL     1       6.694  24.315  53.997  1.00  0.00     0.002 C 
HETATM   18  C   UNL     1       7.231  23.327  55.028  1.00  0.00     0.000 C 
HETATM   19  C   UNL     1       7.703  24.036  56.293  1.00  0.00     0.002 C 
HETATM   20  C   UNL     1       6.613  24.936  56.878  1.00  0.00     0.032 C 
ENDBRANCH  14  15
ENDBRANCH  11  14
ENDBRANCH   7   8
ENDBRANCH   3   7
BRANCH   1  21
HETATM   21  C   UNL     1       5.019  33.363  62.583  1.00  0.00     0.155 C 
HETATM   22  C   UNL     1       5.346  32.741  63.942  1.00  0.00     0.041 C 
BRANCH  21  23
HETATM   23  C   UNL     1       3.570  33.771  62.520  1.00  0.00     0.169 A 
HETATM   24  N   UNL     1       2.714  33.614  63.547  1.00  0.00    -0.156 NA
HETATM   25  N   UNL     1       1.584  34.128  63.032  1.00  0.00    -0.270 N 
HETATM   26  H   UNL     1       0.743  34.148  63.597  1.00  0.00     0.190 HD
HETATM   27  C   UNL     1       1.775  34.566  61.762  1.00  0.00     0.227 A 
HETATM   28  N   UNL     1       3.018  34.356  61.406  1.00  0.00    -0.223 NA
ENDBRANCH  21  23
ENDBRANCH   1  21
TORSDOF 6
ENDMDL
