MODEL 1
REMARK VINA RESULT:      -8.5      0.000      0.000
REMARK  8 active torsions:
REMARK  status: ('A' for Active; 'I' for Inactive)
REMARK    1  A    between atoms: C_2  and  C_3 
REMARK    2  A    between atoms: C_3  and  O_4 
REMARK    3  A    between atoms: O_4  and  C_5 
REMARK    4  A    between atoms: C_6  and  O_7 
REMARK    5  A    between atoms: C_11  and  C_12 
REMARK    6  A    between atoms: C_12  and  N_13 
REMARK    7  A    between atoms: N_13  and  C_14 
REMARK    8  A    between atoms: C_21  and  C_22 
REMARK       I    between atoms: C_22  and  N_23 
ROOT
HETATM    1  C   UNL     1       8.171  28.199  57.319  1.00  0.00     0.009 A 
HETATM    2  C   UNL     1       7.706  29.166  58.226  1.00  0.00     0.039 A 
HETATM    3  C   UNL     1       8.484  30.307  58.515  1.00  0.00     0.030 A 
HETATM    4  C   UNL     1       9.724  30.443  57.908  1.00  0.00     0.063 A 
HETATM    5  N   UNL     1      10.230  31.622  58.381  1.00  0.00    -0.277 N 
HETATM    6  H   UNL     1      11.125  32.041  58.151  1.00  0.00     0.189 HD
HETATM    7  N   UNL     1       9.431  32.263  59.252  1.00  0.00    -0.168 NA
HETATM    8  C   UNL     1       8.348  31.458  59.347  1.00  0.00     0.156 A 
HETATM    9  C   UNL     1      10.245  29.495  57.028  1.00  0.00     0.034 A 
HETATM   10  C   UNL     1       9.450  28.370  56.766  1.00  0.00     0.026 A 
ENDROOT
BRANCH   1  11
HETATM   11  N   UNL     1       7.488  27.004  57.058  1.00  0.00    -0.289 NA
HETATM   12  H   UNL     1       6.488  27.086  57.222  1.00  0.00     0.128 HD
BRANCH  11  13
HETATM   13  C   UNL     1       8.030  25.749  57.558  1.00  0.00     0.131 C 
BRANCH  13  14
HETATM   14  C   UNL     1       7.925  24.699  56.475  1.00  0.00    -0.042 A 
HETATM   15  C   UNL     1       8.636  23.498  56.590  1.00  0.00     0.011 A 
HETATM   16  C   UNL     1       8.536  22.514  55.603  1.00  0.00     0.040 A 
HETATM   17  C   UNL     1       7.735  22.722  54.477  1.00  0.00     0.101 A 
HETATM   18  C   UNL     1       7.062  23.947  54.327  1.00  0.00     0.102 A 
HETATM   19  C   UNL     1       7.145  24.921  55.330  1.00  0.00     0.048 A 
BRANCH  17  20
HETATM   20  O   UNL     1       7.582  21.813  53.458  1.00  0.00    -0.353 OA
HETATM   21  C   UNL     1       8.176  20.536  53.640  1.00  0.00     0.210 C 
ENDBRANCH  17  20
BRANCH  18  22
HETATM   22  O   UNL     1       6.291  24.098  53.201  1.00  0.00    -0.348 OA
BRANCH  22  23
HETATM   23  C   UNL     1       5.144  24.936  53.345  1.00  0.00     0.175 C 
BRANCH  23  24
HETATM   24  C   UNL     1       5.349  26.158  52.454  1.00  0.00     0.022 C 
HETATM   25  C   UNL     1       5.122  25.837  50.988  1.00  0.00     0.007 C 
ENDBRANCH  23  24
ENDBRANCH  22  23
ENDBRANCH  18  22
ENDBRANCH  13  14
ENDBRANCH  11  13
ENDBRANCH   1  11
BRANCH   8  26
HETATM   26  C   UNL     1       7.217  31.794  60.222  1.00  0.00     0.270 C 
HETATM   27  N   UNL     1       7.218  31.131  61.419  1.00  0.00    -0.365 N 
HETATM   28  H   UNL     1       7.967  30.474  61.607  1.00  0.00     0.159 HD
HETATM   29  H   UNL     1       6.475  31.287  62.079  1.00  0.00     0.159 HD
HETATM   30  O   UNL     1       6.329  32.593  59.937  1.00  0.00    -0.266 OA
ENDBRANCH   8  26
TORSDOF 8
ENDMDL
MODEL 2
REMARK VINA RESULT:      -8.4      2.146      3.861
REMARK  8 active torsions:
REMARK  status: ('A' for Active; 'I' for Inactive)
REMARK    1  A    between atoms: C_2  and  C_3 
REMARK    2  A    between atoms: C_3  and  O_4 
REMARK    3  A    between atoms: O_4  and  C_5 
REMARK    4  A    between atoms: C_6  and  O_7 
REMARK    5  A    between atoms: C_11  and  C_12 
REMARK    6  A    between atoms: C_12  and  N_13 
REMARK    7  A    between atoms: N_13  and  C_14 
REMARK    8  A    between atoms: C_21  and  C_22 
REMARK       I    between atoms: C_22  and  N_23 
ROOT
HETATM    1  C   UNL     1       6.972  28.377  54.978  1.00  0.00     0.009 A 
HETATM    2  C   UNL     1       8.127  28.961  55.524  1.00  0.00     0.039 A 
HETATM    3  C   UNL     1       8.196  29.251  56.904  1.00  0.00     0.030 A 
HETATM    4  C   UNL     1       7.097  28.972  57.703  1.00  0.00     0.063 A 
HETATM    5  N   UNL     1       7.458  29.361  58.963  1.00  0.00    -0.277 N 
HETATM    6  H   UNL     1       6.897  29.306  59.806  1.00  0.00     0.189 HD
HETATM    7  N   UNL     1       8.695  29.879  59.054  1.00  0.00    -0.168 NA
HETATM    8  C   UNL     1       9.163  29.820  57.786  1.00  0.00     0.156 A 
HETATM    9  C   UNL     1       5.916  28.424  57.202  1.00  0.00     0.034 A 
HETATM   10  C   UNL     1       5.876  28.154  55.827  1.00  0.00     0.026 A 
ENDROOT
BRANCH   1  11
HETATM   11  N   UNL     1       6.808  28.147  53.606  1.00  0.00    -0.289 NA
HETATM   12  H   UNL     1       6.673  29.008  53.082  1.00  0.00     0.128 HD
BRANCH  11  13
HETATM   13  C   UNL     1       5.919  27.084  53.162  1.00  0.00     0.131 C 
BRANCH  13  14
HETATM   14  C   UNL     1       6.654  25.765  53.230  1.00  0.00    -0.042 A 
HETATM   15  C   UNL     1       7.385  25.310  52.125  1.00  0.00     0.011 A 
HETATM   16  C   UNL     1       8.080  24.098  52.180  1.00  0.00     0.040 A 
HETATM   17  C   UNL     1       8.043  23.315  53.336  1.00  0.00     0.101 A 
HETATM   18  C   UNL     1       7.266  23.738  54.431  1.00  0.00     0.102 A 
HETATM   19  C   UNL     1       6.591  24.964  54.379  1.00  0.00     0.048 A 
BRANCH  17  20
HETATM   20  O   UNL     1       8.691  22.113  53.477  1.00  0.00    -0.353 OA
HETATM   21  C   UNL     1       8.052  20.968  52.929  1.00  0.00     0.210 C 
ENDBRANCH  17  20
BRANCH  18  22
HETATM   22  O   UNL     1       7.265  22.929  55.540  1.00  0.00    -0.348 OA
BRANCH  22  23
HETATM   23  C   UNL     1       7.215  23.604  56.797  1.00  0.00     0.175 C 
BRANCH  23  24
HETATM   24  C   UNL     1       8.625  24.089  57.120  1.00  0.00     0.022 C 
HETATM   25  C   UNL     1       8.675  25.591  57.330  1.00  0.00     0.007 C 
ENDBRANCH  23  24
ENDBRANCH  22  23
ENDBRANCH  18  22
ENDBRANCH  13  14
ENDBRANCH  11  13
ENDBRANCH   1  11
BRANCH   8  26
HETATM   26  C   UNL     1      10.505  30.306  57.441  1.00  0.00     0.270 C 
HETATM   27  N   UNL     1      11.287  29.383  56.801  1.00  0.00    -0.365 N 
HETATM   28  H   UNL     1      10.903  28.462  56.624  1.00  0.00     0.159 HD
HETATM   29  H   UNL     1      12.229  29.620  56.537  1.00  0.00     0.159 HD
HETATM   30  O   UNL     1      10.924  31.433  57.690  1.00  0.00    -0.266 OA
ENDBRANCH   8  26
TORSDOF 8
ENDMDL
MODEL 3
REMARK VINA RESULT:      -8.4      1.126      3.110
REMARK  8 active torsions:
REMARK  status: ('A' for Active; 'I' for Inactive)
REMARK    1  A    between atoms: C_2  and  C_3 
REMARK    2  A    between atoms: C_3  and  O_4 
REMARK    3  A    between atoms: O_4  and  C_5 
REMARK    4  A    between atoms: C_6  and  O_7 
REMARK    5  A    between atoms: C_11  and  C_12 
REMARK    6  A    between atoms: C_12  and  N_13 
REMARK    7  A    between atoms: N_13  and  C_14 
REMARK    8  A    between atoms: C_21  and  C_22 
REMARK       I    between atoms: C_22  and  N_23 
ROOT
HETATM    1  C   UNL     1       8.246  28.304  57.433  1.00  0.00     0.009 A 
HETATM    2  C   UNL     1       7.770  29.253  58.353  1.00  0.00     0.039 A 
HETATM    3  C   UNL     1       8.519  30.416  58.633  1.00  0.00     0.030 A 
HETATM    4  C   UNL     1       9.744  30.591  58.005  1.00  0.00     0.063 A 
HETATM    5  N   UNL     1      10.224  31.781  58.474  1.00  0.00    -0.277 N 
HETATM    6  H   UNL     1      11.102  32.227  58.231  1.00  0.00     0.189 HD
HETATM    7  N   UNL     1       9.423  32.395  59.363  1.00  0.00    -0.168 NA
HETATM    8  C   UNL     1       8.365  31.559  59.473  1.00  0.00     0.156 A 
HETATM    9  C   UNL     1      10.276  29.661  57.111  1.00  0.00     0.034 A 
HETATM   10  C   UNL     1       9.509  28.515  56.858  1.00  0.00     0.026 A 
ENDROOT
BRANCH   1  11
HETATM   11  N   UNL     1       7.593  27.092  57.179  1.00  0.00    -0.289 NA
HETATM   12  H   UNL     1       8.070  26.535  56.474  1.00  0.00     0.128 HD
BRANCH  11  13
HETATM   13  C   UNL     1       6.148  27.081  57.008  1.00  0.00     0.131 C 
BRANCH  13  14
HETATM   14  C   UNL     1       5.819  26.625  55.605  1.00  0.00    -0.042 A 
HETATM   15  C   UNL     1       5.032  27.429  54.771  1.00  0.00     0.011 A 
HETATM   16  C   UNL     1       4.733  27.025  53.467  1.00  0.00     0.040 A 
HETATM   17  C   UNL     1       5.204  25.802  52.981  1.00  0.00     0.101 A 
HETATM   18  C   UNL     1       5.949  24.964  53.830  1.00  0.00     0.102 A 
HETATM   19  C   UNL     1       6.266  25.384  55.128  1.00  0.00     0.048 A 
BRANCH  17  20
HETATM   20  O   UNL     1       4.956  25.325  51.717  1.00  0.00    -0.353 OA
HETATM   21  C   UNL     1       5.205  26.210  50.634  1.00  0.00     0.210 C 
ENDBRANCH  17  20
BRANCH  18  22
HETATM   22  O   UNL     1       6.385  23.774  53.301  1.00  0.00    -0.348 OA
BRANCH  22  23
HETATM   23  C   UNL     1       7.390  23.095  54.053  1.00  0.00     0.175 C 
BRANCH  23  24
HETATM   24  C   UNL     1       8.172  22.209  53.088  1.00  0.00     0.022 C 
HETATM   25  C   UNL     1       7.828  20.741  53.258  1.00  0.00     0.007 C 
ENDBRANCH  23  24
ENDBRANCH  22  23
ENDBRANCH  18  22
ENDBRANCH  13  14
ENDBRANCH  11  13
ENDBRANCH   1  11
BRANCH   8  26
HETATM   26  C   UNL     1       7.241  31.858  60.370  1.00  0.00     0.270 C 
HETATM   27  N   UNL     1       7.222  31.108  61.514  1.00  0.00    -0.365 N 
HETATM   28  H   UNL     1       7.952  30.419  61.653  1.00  0.00     0.159 HD
HETATM   29  H   UNL     1       6.481  31.233  62.183  1.00  0.00     0.159 HD
HETATM   30  O   UNL     1       6.376  32.700  60.145  1.00  0.00    -0.266 OA
ENDBRANCH   8  26
TORSDOF 8
ENDMDL
MODEL 4
REMARK VINA RESULT:      -8.2      1.509      2.029
REMARK  8 active torsions:
REMARK  status: ('A' for Active; 'I' for Inactive)
REMARK    1  A    between atoms: C_2  and  C_3 
REMARK    2  A    between atoms: C_3  and  O_4 
REMARK    3  A    between atoms: O_4  and  C_5 
REMARK    4  A    between atoms: C_6  and  O_7 
REMARK    5  A    between atoms: C_11  and  C_12 
REMARK    6  A    between atoms: C_12  and  N_13 
REMARK    7  A    between atoms: N_13  and  C_14 
REMARK    8  A    between atoms: C_21  and  C_22 
REMARK       I    between atoms: C_22  and  N_23 
ROOT
HETATM    1  C   UNL     1       7.652  27.880  57.342  1.00  0.00     0.009 A 
HETATM    2  C   UNL     1       8.330  28.965  57.921  1.00  0.00     0.039 A 
HETATM    3  C   UNL     1       7.641  30.160  58.221  1.00  0.00     0.030 A 
HETATM    4  C   UNL     1       6.291  30.251  57.911  1.00  0.00     0.063 A 
HETATM    5  N   UNL     1       5.913  31.504  58.306  1.00  0.00    -0.277 N 
HETATM    6  H   UNL     1       4.990  31.918  58.231  1.00  0.00     0.189 HD
HETATM    7  N   UNL     1       6.902  32.243  58.840  1.00  0.00    -0.168 NA
HETATM    8  C   UNL     1       7.978  31.424  58.790  1.00  0.00     0.156 A 
HETATM    9  C   UNL     1       5.582  29.214  57.304  1.00  0.00     0.034 A 
HETATM   10  C   UNL     1       6.297  28.043  57.014  1.00  0.00     0.026 A 
ENDROOT
BRANCH   1  11
HETATM   11  N   UNL     1       8.296  26.703  56.940  1.00  0.00    -0.289 NA
HETATM   12  H   UNL     1       8.511  26.698  55.946  1.00  0.00     0.128 HD
BRANCH  11  13
HETATM   13  C   UNL     1       7.791  25.419  57.403  1.00  0.00     0.131 C 
BRANCH  13  14
HETATM   14  C   UNL     1       7.780  24.446  56.247  1.00  0.00    -0.042 A 
HETATM   15  C   UNL     1       8.539  23.270  56.311  1.00  0.00     0.011 A 
HETATM   16  C   UNL     1       8.527  22.355  55.254  1.00  0.00     0.040 A 
HETATM   17  C   UNL     1       7.768  22.609  54.109  1.00  0.00     0.101 A 
HETATM   18  C   UNL     1       7.046  23.813  54.013  1.00  0.00     0.102 A 
HETATM   19  C   UNL     1       7.042  24.715  55.085  1.00  0.00     0.048 A 
BRANCH  17  20
HETATM   20  O   UNL     1       7.700  21.770  53.024  1.00  0.00    -0.353 OA
HETATM   21  C   UNL     1       8.314  20.495  53.156  1.00  0.00     0.210 C 
ENDBRANCH  17  20
BRANCH  18  22
HETATM   22  O   UNL     1       6.319  24.011  52.866  1.00  0.00    -0.348 OA
BRANCH  22  23
HETATM   23  C   UNL     1       6.579  25.231  52.172  1.00  0.00     0.175 C 
BRANCH  23  24
HETATM   24  C   UNL     1       5.236  25.907  51.905  1.00  0.00     0.022 C 
HETATM   25  C   UNL     1       5.306  26.860  50.726  1.00  0.00     0.007 C 
ENDBRANCH  23  24
ENDBRANCH  22  23
ENDBRANCH  18  22
ENDBRANCH  13  14
ENDBRANCH  11  13
ENDBRANCH   1  11
BRANCH   8  26
HETATM   26  C   UNL     1       9.294  31.858  59.276  1.00  0.00     0.270 C 
HETATM   27  N   UNL     1       9.418  31.853  60.638  1.00  0.00    -0.365 N 
HETATM   28  H   UNL     1       8.621  31.568  61.196  1.00  0.00     0.159 HD
HETATM   29  H   UNL     1      10.280  32.148  61.065  1.00  0.00     0.159 HD
HETATM   30  O   UNL     1      10.224  32.205  58.553  1.00  0.00    -0.266 OA
ENDBRANCH   8  26
TORSDOF 8
ENDMDL
MODEL 5
REMARK VINA RESULT:      -8.1      3.707      8.056
REMARK  8 active torsions:
REMARK  status: ('A' for Active; 'I' for Inactive)
REMARK    1  A    between atoms: C_2  and  C_3 
REMARK    2  A    between atoms: C_3  and  O_4 
REMARK    3  A    between atoms: O_4  and  C_5 
REMARK    4  A    between atoms: C_6  and  O_7 
REMARK    5  A    between atoms: C_11  and  C_12 
REMARK    6  A    between atoms: C_12  and  N_13 
REMARK    7  A    between atoms: N_13  and  C_14 
REMARK    8  A    between atoms: C_21  and  C_22 
REMARK       I    between atoms: C_22  and  N_23 
ROOT
HETATM    1  C   UNL     1       5.979  24.928  53.989  1.00  0.00     0.009 A 
HETATM    2  C   UNL     1       6.560  24.213  55.049  1.00  0.00     0.039 A 
HETATM    3  C   UNL     1       7.639  23.335  54.813  1.00  0.00     0.030 A 
HETATM    4  C   UNL     1       8.099  23.173  53.514  1.00  0.00     0.063 A 
HETATM    5  N   UNL     1       9.126  22.275  53.603  1.00  0.00    -0.277 N 
HETATM    6  H   UNL     1       9.696  21.918  52.844  1.00  0.00     0.189 HD
HETATM    7  N   UNL     1       9.370  21.828  54.848  1.00  0.00    -0.168 NA
HETATM    8  C   UNL     1       8.455  22.474  55.607  1.00  0.00     0.156 A 
HETATM    9  C   UNL     1       7.534  23.833  52.423  1.00  0.00     0.034 A 
HETATM   10  C   UNL     1       6.459  24.694  52.690  1.00  0.00     0.026 A 
ENDROOT
BRANCH   1  11
HETATM   11  N   UNL     1       4.852  25.744  54.144  1.00  0.00    -0.289 NA
HETATM   12  H   UNL     1       4.002  25.300  53.805  1.00  0.00     0.128 HD
BRANCH  11  13
HETATM   13  C   UNL     1       4.930  27.148  53.769  1.00  0.00     0.131 C 
BRANCH  13  14
HETATM   14  C   UNL     1       5.470  27.942  54.936  1.00  0.00    -0.042 A 
HETATM   15  C   UNL     1       4.637  28.259  56.016  1.00  0.00     0.011 A 
HETATM   16  C   UNL     1       5.128  28.980  57.108  1.00  0.00     0.040 A 
HETATM   17  C   UNL     1       6.457  29.410  57.130  1.00  0.00     0.101 A 
HETATM   18  C   UNL     1       7.286  29.144  56.025  1.00  0.00     0.102 A 
HETATM   19  C   UNL     1       6.796  28.400  54.944  1.00  0.00     0.048 A 
BRANCH  17  20
HETATM   20  O   UNL     1       7.021  30.125  58.157  1.00  0.00    -0.353 OA
HETATM   21  C   UNL     1       6.431  31.379  58.470  1.00  0.00     0.210 C 
ENDBRANCH  17  20
BRANCH  18  22
HETATM   22  O   UNL     1       8.582  29.590  56.100  1.00  0.00    -0.348 OA
BRANCH  22  23
HETATM   23  C   UNL     1       9.496  28.725  56.775  1.00  0.00     0.175 C 
BRANCH  23  24
HETATM   24  C   UNL     1      10.827  29.461  56.899  1.00  0.00     0.022 C 
HETATM   25  C   UNL     1      10.675  30.792  57.612  1.00  0.00     0.007 C 
ENDBRANCH  23  24
ENDBRANCH  22  23
ENDBRANCH  18  22
ENDBRANCH  13  14
ENDBRANCH  11  13
ENDBRANCH   1  11
BRANCH   8  26
HETATM   26  C   UNL     1       8.373  22.259  57.057  1.00  0.00     0.270 C 
HETATM   27  N   UNL     1       8.421  23.408  57.798  1.00  0.00    -0.365 N 
HETATM   28  H   UNL     1       8.513  24.293  57.313  1.00  0.00     0.159 HD
HETATM   29  H   UNL     1       8.384  23.359  58.802  1.00  0.00     0.159 HD
HETATM   30  O   UNL     1       8.273  21.159  57.593  1.00  0.00    -0.266 OA
ENDBRANCH   8  26
TORSDOF 8
ENDMDL
MODEL 6
REMARK VINA RESULT:      -8.1      2.407      9.102
REMARK  8 active torsions:
REMARK  status: ('A' for Active; 'I' for Inactive)
REMARK    1  A    between atoms: C_2  and  C_3 
REMARK    2  A    between atoms: C_3  and  O_4 
REMARK    3  A    between atoms: O_4  and  C_5 
REMARK    4  A    between atoms: C_6  and  O_7 
REMARK    5  A    between atoms: C_11  and  C_12 
REMARK    6  A    between atoms: C_12  and  N_13 
REMARK    7  A    between atoms: N_13  and  C_14 
REMARK    8  A    between atoms: C_21  and  C_22 
REMARK       I    between atoms: C_22  and  N_23 
ROOT
HETATM    1  C   UNL     1       7.864  25.878  56.892  1.00  0.00     0.009 A 
HETATM    2  C   UNL     1       7.117  25.837  55.702  1.00  0.00     0.039 A 
HETATM    3  C   UNL     1       7.180  24.708  54.857  1.00  0.00     0.030 A 
HETATM    4  C   UNL     1       8.009  23.653  55.210  1.00  0.00     0.063 A 
HETATM    5  N   UNL     1       7.862  22.729  54.213  1.00  0.00    -0.277 N 
HETATM    6  H   UNL     1       8.322  21.828  54.139  1.00  0.00     0.189 HD
HETATM    7  N   UNL     1       7.016  23.094  53.234  1.00  0.00    -0.168 NA
HETATM    8  C   UNL     1       6.588  24.319  53.619  1.00  0.00     0.156 A 
HETATM    9  C   UNL     1       8.796  23.660  56.362  1.00  0.00     0.034 A 
HETATM   10  C   UNL     1       8.715  24.798  57.177  1.00  0.00     0.026 A 
ENDROOT
BRANCH   1  11
HETATM   11  N   UNL     1       7.913  27.002  57.725  1.00  0.00    -0.289 NA
HETATM   12  H   UNL     1       7.010  27.217  58.140  1.00  0.00     0.128 HD
BRANCH  11  13
HETATM   13  C   UNL     1       8.611  28.196  57.271  1.00  0.00     0.131 C 
BRANCH  13  14
HETATM   14  C   UNL     1       7.997  29.409  57.932  1.00  0.00    -0.042 A 
HETATM   15  C   UNL     1       6.711  29.831  57.568  1.00  0.00     0.011 A 
HETATM   16  C   UNL     1       6.126  30.942  58.182  1.00  0.00     0.040 A 
HETATM   17  C   UNL     1       6.823  31.659  59.157  1.00  0.00     0.101 A 
HETATM   18  C   UNL     1       8.135  31.275  59.488  1.00  0.00     0.102 A 
HETATM   19  C   UNL     1       8.708  30.147  58.889  1.00  0.00     0.048 A 
BRANCH  17  20
HETATM   20  O   UNL     1       6.328  32.763  59.807  1.00  0.00    -0.353 OA
HETATM   21  C   UNL     1       5.148  32.582  60.577  1.00  0.00     0.210 C 
ENDBRANCH  17  20
BRANCH  18  22
HETATM   22  O   UNL     1       8.774  32.016  60.453  1.00  0.00    -0.348 OA
BRANCH  22  23
HETATM   23  C   UNL     1       9.378  31.267  61.508  1.00  0.00     0.175 C 
BRANCH  23  24
HETATM   24  C   UNL     1       8.349  31.132  62.627  1.00  0.00     0.022 C 
HETATM   25  C   UNL     1       7.956  32.481  63.202  1.00  0.00     0.007 C 
ENDBRANCH  23  24
ENDBRANCH  22  23
ENDBRANCH  18  22
ENDBRANCH  13  14
ENDBRANCH  11  13
ENDBRANCH   1  11
BRANCH   8  26
HETATM   26  C   UNL     1       5.638  25.090  52.806  1.00  0.00     0.270 C 
HETATM   27  N   UNL     1       4.349  25.046  53.260  1.00  0.00    -0.365 N 
HETATM   28  H   UNL     1       4.146  24.501  54.090  1.00  0.00     0.159 HD
HETATM   29  H   UNL     1       3.624  25.534  52.760  1.00  0.00     0.159 HD
HETATM   30  O   UNL     1       5.938  25.726  51.799  1.00  0.00    -0.266 OA
ENDBRANCH   8  26
TORSDOF 8
ENDMDL
MODEL 7
REMARK VINA RESULT:      -8.1      3.283      8.250
REMARK  8 active torsions:
REMARK  status: ('A' for Active; 'I' for Inactive)
REMARK    1  A    between atoms: C_2  and  C_3 
REMARK    2  A    between atoms: C_3  and  O_4 
REMARK    3  A    between atoms: O_4  and  C_5 
REMARK    4  A    between atoms: C_6  and  O_7 
REMARK    5  A    between atoms: C_11  and  C_12 
REMARK    6  A    between atoms: C_12  and  N_13 
REMARK    7  A    between atoms: N_13  and  C_14 
REMARK    8  A    between atoms: C_21  and  C_22 
REMARK       I    between atoms: C_22  and  N_23 
ROOT
HETATM    1  C   UNL     1       5.503  25.895  55.230  1.00  0.00     0.009 A 
HETATM    2  C   UNL     1       6.284  24.902  55.845  1.00  0.00     0.039 A 
HETATM    3  C   UNL     1       6.925  23.913  55.069  1.00  0.00     0.030 A 
HETATM    4  C   UNL     1       6.751  23.926  53.692  1.00  0.00     0.063 A 
HETATM    5  N   UNL     1       7.476  22.865  53.226  1.00  0.00    -0.277 N 
HETATM    6  H   UNL     1       7.576  22.567  52.262  1.00  0.00     0.189 HD
HETATM    7  N   UNL     1       8.102  22.154  54.181  1.00  0.00    -0.168 NA
HETATM    8  C   UNL     1       7.767  22.790  55.327  1.00  0.00     0.156 A 
HETATM    9  C   UNL     1       5.958  24.869  53.037  1.00  0.00     0.034 A 
HETATM   10  C   UNL     1       5.330  25.834  53.838  1.00  0.00     0.026 A 
ENDROOT
BRANCH   1  11
HETATM   11  N   UNL     1       4.772  26.847  55.951  1.00  0.00    -0.289 NA
HETATM   12  H   UNL     1       3.777  26.637  55.972  1.00  0.00     0.128 HD
BRANCH  11  13
HETATM   13  C   UNL     1       5.034  28.262  55.733  1.00  0.00     0.131 C 
BRANCH  13  14
HETATM   14  C   UNL     1       6.443  28.578  56.179  1.00  0.00    -0.042 A 
HETATM   15  C   UNL     1       7.484  28.615  55.242  1.00  0.00     0.011 A 
HETATM   16  C   UNL     1       8.789  28.920  55.639  1.00  0.00     0.040 A 
HETATM   17  C   UNL     1       9.077  29.178  56.982  1.00  0.00     0.101 A 
HETATM   18  C   UNL     1       8.047  29.089  57.936  1.00  0.00     0.102 A 
HETATM   19  C   UNL     1       6.737  28.807  57.531  1.00  0.00     0.048 A 
BRANCH  17  20
HETATM   20  O   UNL     1      10.328  29.481  57.460  1.00  0.00    -0.353 OA
HETATM   21  C   UNL     1      10.762  30.827  57.321  1.00  0.00     0.210 C 
ENDBRANCH  17  20
BRANCH  18  22
HETATM   22  O   UNL     1       8.387  29.352  59.241  1.00  0.00    -0.348 OA
BRANCH  22  23
HETATM   23  C   UNL     1       8.037  30.650  59.721  1.00  0.00     0.175 C 
BRANCH  23  24
HETATM   24  C   UNL     1       9.154  31.117  60.650  1.00  0.00     0.022 C 
HETATM   25  C   UNL     1       8.612  31.698  61.943  1.00  0.00     0.007 C 
ENDBRANCH  23  24
ENDBRANCH  22  23
ENDBRANCH  18  22
ENDBRANCH  13  14
ENDBRANCH  11  13
ENDBRANCH   1  11
BRANCH   8  26
HETATM   26  C   UNL     1       8.246  22.320  56.633  1.00  0.00     0.270 C 
HETATM   27  N   UNL     1       8.466  23.318  57.542  1.00  0.00    -0.365 N 
HETATM   28  H   UNL     1       8.297  24.276  57.259  1.00  0.00     0.159 HD
HETATM   29  H   UNL     1       8.808  23.093  58.461  1.00  0.00     0.159 HD
HETATM   30  O   UNL     1       8.445  21.142  56.919  1.00  0.00    -0.266 OA
ENDBRANCH   8  26
TORSDOF 8
ENDMDL
MODEL 8
REMARK VINA RESULT:      -8.1      4.399      7.958
REMARK  8 active torsions:
REMARK  status: ('A' for Active; 'I' for Inactive)
REMARK    1  A    between atoms: C_2  and  C_3 
REMARK    2  A    between atoms: C_3  and  O_4 
REMARK    3  A    between atoms: O_4  and  C_5 
REMARK    4  A    between atoms: C_6  and  O_7 
REMARK    5  A    between atoms: C_11  and  C_12 
REMARK    6  A    between atoms: C_12  and  N_13 
REMARK    7  A    between atoms: N_13  and  C_14 
REMARK    8  A    between atoms: C_21  and  C_22 
REMARK       I    between atoms: C_22  and  N_23 
ROOT
HETATM    1  C   UNL     1       6.030  26.940  52.223  1.00  0.00     0.009 A 
HETATM    2  C   UNL     1       5.735  26.811  50.855  1.00  0.00     0.039 A 
HETATM    3  C   UNL     1       4.579  27.413  50.314  1.00  0.00     0.030 A 
HETATM    4  C   UNL     1       3.728  28.111  51.160  1.00  0.00     0.063 A 
HETATM    5  N   UNL     1       2.716  28.564  50.361  1.00  0.00    -0.277 N 
HETATM    6  H   UNL     1       1.911  29.113  50.643  1.00  0.00     0.189 HD
HETATM    7  N   UNL     1       2.826  28.214  49.067  1.00  0.00    -0.168 NA
HETATM    8  C   UNL     1       3.973  27.498  49.024  1.00  0.00     0.156 A 
HETATM    9  C   UNL     1       3.959  28.238  52.529  1.00  0.00     0.034 A 
HETATM   10  C   UNL     1       5.113  27.623  53.037  1.00  0.00     0.026 A 
ENDROOT
BRANCH   1  11
HETATM   11  N   UNL     1       7.111  26.294  52.835  1.00  0.00    -0.289 NA
HETATM   12  H   UNL     1       7.831  26.945  53.136  1.00  0.00     0.128 HD
BRANCH  11  13
HETATM   13  C   UNL     1       7.668  25.097  52.221  1.00  0.00     0.131 C 
BRANCH  13  14
HETATM   14  C   UNL     1       7.756  24.004  53.261  1.00  0.00    -0.042 A 
HETATM   15  C   UNL     1       7.751  22.659  52.868  1.00  0.00     0.011 A 
HETATM   16  C   UNL     1       7.846  21.639  53.819  1.00  0.00     0.040 A 
HETATM   17  C   UNL     1       7.933  21.947  55.179  1.00  0.00     0.101 A 
HETATM   18  C   UNL     1       7.883  23.293  55.586  1.00  0.00     0.102 A 
HETATM   19  C   UNL     1       7.812  24.312  54.628  1.00  0.00     0.048 A 
BRANCH  17  20
HETATM   20  O   UNL     1       8.026  21.011  56.180  1.00  0.00    -0.353 OA
HETATM   21  C   UNL     1       9.227  20.255  56.246  1.00  0.00     0.210 C 
ENDBRANCH  17  20
BRANCH  18  22
HETATM   22  O   UNL     1       7.971  23.537  56.934  1.00  0.00    -0.348 OA
BRANCH  22  23
HETATM   23  C   UNL     1       8.749  24.675  57.306  1.00  0.00     0.175 C 
BRANCH  23  24
HETATM   24  C   UNL     1       7.784  25.778  57.732  1.00  0.00     0.022 C 
HETATM   25  C   UNL     1       8.205  27.136  57.202  1.00  0.00     0.007 C 
ENDBRANCH  23  24
ENDBRANCH  22  23
ENDBRANCH  18  22
ENDBRANCH  13  14
ENDBRANCH  11  13
ENDBRANCH   1  11
BRANCH   8  26
HETATM   26  C   UNL     1       4.465  26.911  47.771  1.00  0.00     0.270 C 
HETATM   27  N   UNL     1       5.648  27.439  47.331  1.00  0.00    -0.365 N 
HETATM   28  H   UNL     1       6.082  28.174  47.877  1.00  0.00     0.159 HD
HETATM   29  H   UNL     1       6.056  27.109  46.473  1.00  0.00     0.159 HD
HETATM   30  O   UNL     1       3.889  26.026  47.143  1.00  0.00    -0.266 OA
ENDBRANCH   8  26
TORSDOF 8
ENDMDL
MODEL 9
REMARK VINA RESULT:      -8.1      3.054      9.151
REMARK  8 active torsions:
REMARK  status: ('A' for Active; 'I' for Inactive)
REMARK    1  A    between atoms: C_2  and  C_3 
REMARK    2  A    between atoms: C_3  and  O_4 
REMARK    3  A    between atoms: O_4  and  C_5 
REMARK    4  A    between atoms: C_6  and  O_7 
REMARK    5  A    between atoms: C_11  and  C_12 
REMARK    6  A    between atoms: C_12  and  N_13 
REMARK    7  A    between atoms: N_13  and  C_14 
REMARK    8  A    between atoms: C_21  and  C_22 
REMARK       I    between atoms: C_22  and  N_23 
ROOT
HETATM    1  C   UNL     1       7.566  25.350  55.526  1.00  0.00     0.009 A 
HETATM    2  C   UNL     1       7.943  24.065  55.953  1.00  0.00     0.039 A 
HETATM    3  C   UNL     1       7.952  22.985  55.045  1.00  0.00     0.030 A 
HETATM    4  C   UNL     1       7.560  23.210  53.733  1.00  0.00     0.063 A 
HETATM    5  N   UNL     1       7.667  21.997  53.111  1.00  0.00    -0.277 N 
HETATM    6  H   UNL     1       7.459  21.784  52.141  1.00  0.00     0.189 HD
HETATM    7  N   UNL     1       8.087  20.997  53.906  1.00  0.00    -0.168 NA
HETATM    8  C   UNL     1       8.264  21.594  55.107  1.00  0.00     0.156 A 
HETATM    9  C   UNL     1       7.144  24.458  53.270  1.00  0.00     0.034 A 
HETATM   10  C   UNL     1       7.141  25.509  54.198  1.00  0.00     0.026 A 
ENDROOT
BRANCH   1  11
HETATM   11  N   UNL     1       7.451  26.441  56.397  1.00  0.00    -0.289 NA
HETATM   12  H   UNL     1       8.100  26.383  57.178  1.00  0.00     0.128 HD
BRANCH  11  13
HETATM   13  C   UNL     1       6.129  26.890  56.807  1.00  0.00     0.131 C 
BRANCH  13  14
HETATM   14  C   UNL     1       6.209  28.338  57.233  1.00  0.00    -0.042 A 
HETATM   15  C   UNL     1       5.055  29.132  57.242  1.00  0.00     0.011 A 
HETATM   16  C   UNL     1       5.113  30.469  57.646  1.00  0.00     0.040 A 
HETATM   17  C   UNL     1       6.329  31.037  58.033  1.00  0.00     0.101 A 
HETATM   18  C   UNL     1       7.502  30.263  57.975  1.00  0.00     0.102 A 
HETATM   19  C   UNL     1       7.435  28.917  57.592  1.00  0.00     0.048 A 
BRANCH  17  20
HETATM   20  O   UNL     1       6.479  32.340  58.441  1.00  0.00    -0.353 OA
HETATM   21  C   UNL     1       5.850  32.711  59.660  1.00  0.00     0.210 C 
ENDBRANCH  17  20
BRANCH  18  22
HETATM   22  O   UNL     1       8.668  30.873  58.365  1.00  0.00    -0.348 OA
BRANCH  22  23
HETATM   23  C   UNL     1       9.106  30.577  59.692  1.00  0.00     0.175 C 
BRANCH  23  24
HETATM   24  C   UNL     1       9.452  31.899  60.371  1.00  0.00     0.022 C 
HETATM   25  C   UNL     1       9.112  31.882  61.850  1.00  0.00     0.007 C 
ENDBRANCH  23  24
ENDBRANCH  22  23
ENDBRANCH  18  22
ENDBRANCH  13  14
ENDBRANCH  11  13
ENDBRANCH   1  11
BRANCH   8  26
HETATM   26  C   UNL     1       8.718  20.836  56.281  1.00  0.00     0.270 C 
HETATM   27  N   UNL     1       9.639  19.865  55.998  1.00  0.00    -0.365 N 
HETATM   28  H   UNL     1       9.928  19.737  55.035  1.00  0.00     0.159 HD
HETATM   29  H   UNL     1       9.999  19.285  56.737  1.00  0.00     0.159 HD
HETATM   30  O   UNL     1       8.325  21.028  57.428  1.00  0.00    -0.266 OA
ENDBRANCH   8  26
TORSDOF 8
ENDMDL
MODEL 10
REMARK VINA RESULT:      -8.0      4.467      9.593
REMARK  8 active torsions:
REMARK  status: ('A' for Active; 'I' for Inactive)
REMARK    1  A    between atoms: C_2  and  C_3 
REMARK    2  A    between atoms: C_3  and  O_4 
REMARK    3  A    between atoms: O_4  and  C_5 
REMARK    4  A    between atoms: C_6  and  O_7 
REMARK    5  A    between atoms: C_11  and  C_12 
REMARK    6  A    between atoms: C_12  and  N_13 
REMARK    7  A    between atoms: N_13  and  C_14 
REMARK    8  A    between atoms: C_21  and  C_22 
REMARK       I    between atoms: C_22  and  N_23 
ROOT
HETATM    1  C   UNL     1       8.899  31.536  59.345  1.00  0.00     0.009 A 
HETATM    2  C   UNL     1       7.844  30.714  58.914  1.00  0.00     0.039 A 
HETATM    3  C   UNL     1       7.997  29.893  57.776  1.00  0.00     0.030 A 
HETATM    4  C   UNL     1       9.196  29.932  57.079  1.00  0.00     0.063 A 
HETATM    5  N   UNL     1       9.042  29.051  56.045  1.00  0.00    -0.277 N 
HETATM    6  H   UNL     1       9.721  28.823  55.326  1.00  0.00     0.189 HD
HETATM    7  N   UNL     1       7.841  28.447  56.001  1.00  0.00    -0.168 NA
HETATM    8  C   UNL     1       7.183  28.962  57.065  1.00  0.00     0.156 A 
HETATM    9  C   UNL     1      10.260  30.756  57.446  1.00  0.00     0.034 A 
HETATM   10  C   UNL     1      10.074  31.563  58.578  1.00  0.00     0.026 A 
ENDROOT
BRANCH   1  11
HETATM   11  N   UNL     1       8.779  32.436  60.411  1.00  0.00    -0.289 NA
HETATM   12  H   UNL     1       9.218  33.332  60.213  1.00  0.00     0.128 HD
BRANCH  11  13
HETATM   13  C   UNL     1       9.046  31.977  61.766  1.00  0.00     0.131 C 
BRANCH  13  14
HETATM   14  C   UNL     1       7.849  32.285  62.637  1.00  0.00    -0.042 A 
HETATM   15  C   UNL     1       8.024  32.930  63.868  1.00  0.00     0.011 A 
HETATM   16  C   UNL     1       6.924  33.234  64.676  1.00  0.00     0.040 A 
HETATM   17  C   UNL     1       5.633  32.883  64.272  1.00  0.00     0.101 A 
HETATM   18  C   UNL     1       5.455  32.186  63.063  1.00  0.00     0.102 A 
HETATM   19  C   UNL     1       6.557  31.906  62.246  1.00  0.00     0.048 A 
BRANCH  17  20
HETATM   20  O   UNL     1       4.499  33.138  65.003  1.00  0.00    -0.353 OA
HETATM   21  C   UNL     1       4.259  34.489  65.370  1.00  0.00     0.210 C 
ENDBRANCH  17  20
BRANCH  18  22
HETATM   22  O   UNL     1       4.165  31.866  62.717  1.00  0.00    -0.348 OA
BRANCH  22  23
HETATM   23  C   UNL     1       3.755  32.279  61.413  1.00  0.00     0.175 C 
BRANCH  23  24
HETATM   24  C   UNL     1       3.555  33.792  61.448  1.00  0.00     0.022 C 
HETATM   25  C   UNL     1       2.329  34.184  62.252  1.00  0.00     0.007 C 
ENDBRANCH  23  24
ENDBRANCH  22  23
ENDBRANCH  18  22
ENDBRANCH  13  14
ENDBRANCH  11  13
ENDBRANCH   1  11
BRANCH   8  26
HETATM   26  C   UNL     1       5.804  28.565  57.379  1.00  0.00     0.270 C 
HETATM   27  N   UNL     1       5.016  29.587  57.832  1.00  0.00    -0.365 N 
HETATM   28  H   UNL     1       5.425  30.510  57.922  1.00  0.00     0.159 HD
HETATM   29  H   UNL     1       4.059  29.408  58.085  1.00  0.00     0.159 HD
HETATM   30  O   UNL     1       5.364  27.425  57.261  1.00  0.00    -0.266 OA
ENDBRANCH   8  26
TORSDOF 8
ENDMDL
