MODEL 1
REMARK VINA RESULT:      -9.6      0.000      0.000
REMARK  6 active torsions:
REMARK  status: ('A' for Active; 'I' for Inactive)
REMARK    1  A    between atoms: C_4  and  C_5 
REMARK    2  A    between atoms: C_7  and  C_8 
REMARK    3  A    between atoms: C_11  and  C_12 
REMARK       I    between atoms: C_12  and  N_13 
REMARK    4  A    between atoms: N_13  and  C_14 
REMARK    5  A    between atoms: C_14  and  C_15 
REMARK    6  A    between atoms: C_18  and  N_19 
REMARK       I    between atoms: N_19  and  C_20 
REMARK       I    between atoms: C_20  and  N_21 
ROOT
HETATM    1  C   UNL     1       8.225  31.391  59.867  1.00  0.00     0.273 C 
HETATM    2  N   UNL     1       7.858  31.088  61.159  1.00  0.00    -0.351 N 
HETATM    3  O   UNL     1       8.951  32.341  59.588  1.00  0.00    -0.266 OA
HETATM    4  H   UNL     1       7.342  30.228  61.308  1.00  0.00     0.163 HD
ENDROOT
BRANCH   1   5
HETATM    5  C   UNL     1       7.667  30.475  58.880  1.00  0.00     0.157 A 
HETATM    6  C   UNL     1       6.553  30.659  58.082  1.00  0.00     0.094 A 
HETATM    7  O   UNL     1       6.397  29.529  57.326  1.00  0.00    -0.293 OA
HETATM    8  C   UNL     1       7.426  28.708  57.697  1.00  0.00     0.180 A 
HETATM    9  N   UNL     1       8.225  29.226  58.612  1.00  0.00    -0.216 NA
BRANCH   6  10
HETATM   10  C   UNL     1       5.629  31.860  58.002  1.00  0.00     0.046 A 
HETATM   11  C   UNL     1       4.163  31.604  57.718  1.00  0.00     0.012 A 
HETATM   12  C   UNL     1       4.581  32.021  59.085  1.00  0.00     0.012 A 
ENDBRANCH   6  10
BRANCH   8  13
HETATM   13  C   UNL     1       7.481  27.401  57.049  1.00  0.00     0.017 A 
HETATM   14  C   UNL     1       7.238  27.244  55.675  1.00  0.00     0.016 A 
HETATM   15  C   UNL     1       7.285  25.981  55.078  1.00  0.00     0.001 A 
HETATM   16  C   UNL     1       7.576  24.858  55.847  1.00  0.00     0.000 A 
HETATM   17  C   UNL     1       7.820  24.994  57.212  1.00  0.00     0.001 A 
HETATM   18  C   UNL     1       7.774  26.257  57.808  1.00  0.00     0.016 A 
ENDBRANCH   8  13
ENDBRANCH   1   5
BRANCH   2  19
HETATM   19  C   UNL     1       8.364  31.858  62.266  1.00  0.00     0.161 C 
BRANCH  19  20
HETATM   20  C   UNL     1       7.281  32.459  63.123  1.00  0.00    -0.040 A 
HETATM   21  C   UNL     1       5.938  32.292  62.766  1.00  0.00     0.011 A 
HETATM   22  C   UNL     1       4.909  32.775  63.582  1.00  0.00     0.030 A 
HETATM   23  C   UNL     1       5.203  33.428  64.779  1.00  0.00     0.035 A 
HETATM   24  C   UNL     1       6.545  33.604  65.138  1.00  0.00     0.030 A 
HETATM   25  C   UNL     1       7.575  33.115  64.325  1.00  0.00     0.011 A 
BRANCH  23  26
HETATM   26  N   UNL     1       4.222  33.928  65.656  1.00  0.00    -0.314 N 
HETATM   27  C   UNL     1       3.649  35.172  65.642  1.00  0.00     0.296 C 
HETATM   28  N   UNL     1       2.778  35.339  66.680  1.00  0.00    -0.254 NA
HETATM   29  O   UNL     1       3.814  36.082  64.843  1.00  0.00    -0.254 OA
HETATM   30  H   UNL     1       3.064  34.971  67.576  1.00  0.00     0.128 HD
HETATM   31  H   UNL     1       2.415  36.285  66.723  1.00  0.00     0.128 HD
HETATM   32  H   UNL     1       3.782  33.265  66.275  1.00  0.00     0.170 HD
ENDBRANCH  23  26
ENDBRANCH  19  20
ENDBRANCH   2  19
TORSDOF 6
ENDMDL
MODEL 2
REMARK VINA RESULT:      -9.6      0.126      1.293
REMARK  6 active torsions:
REMARK  status: ('A' for Active; 'I' for Inactive)
REMARK    1  A    between atoms: C_4  and  C_5 
REMARK    2  A    between atoms: C_7  and  C_8 
REMARK    3  A    between atoms: C_11  and  C_12 
REMARK       I    between atoms: C_12  and  N_13 
REMARK    4  A    between atoms: N_13  and  C_14 
REMARK    5  A    between atoms: C_14  and  C_15 
REMARK    6  A    between atoms: C_18  and  N_19 
REMARK       I    between atoms: N_19  and  C_20 
REMARK       I    between atoms: C_20  and  N_21 
ROOT
HETATM    1  C   UNL     1       8.211  31.477  59.786  1.00  0.00     0.273 C 
HETATM    2  N   UNL     1       7.815  31.254  61.085  1.00  0.00    -0.351 N 
HETATM    3  O   UNL     1       8.977  32.383  59.471  1.00  0.00    -0.266 OA
HETATM    4  H   UNL     1       7.263  30.422  61.268  1.00  0.00     0.163 HD
ENDROOT
BRANCH   1   5
HETATM    5  C   UNL     1       7.630  30.535  58.836  1.00  0.00     0.157 A 
HETATM    6  C   UNL     1       6.476  30.680  58.090  1.00  0.00     0.094 A 
HETATM    7  O   UNL     1       6.314  29.537  57.355  1.00  0.00    -0.293 OA
HETATM    8  C   UNL     1       7.381  28.747  57.686  1.00  0.00     0.180 A 
HETATM    9  N   UNL     1       8.208  29.297  58.557  1.00  0.00    -0.216 NA
BRANCH   6  10
HETATM   10  C   UNL     1       5.519  31.857  58.039  1.00  0.00     0.046 A 
HETATM   11  C   UNL     1       4.066  31.570  57.717  1.00  0.00     0.012 A 
HETATM   12  C   UNL     1       4.447  31.944  59.107  1.00  0.00     0.012 A 
ENDBRANCH   6  10
BRANCH   8  13
HETATM   13  C   UNL     1       7.439  27.433  57.052  1.00  0.00     0.017 A 
HETATM   14  C   UNL     1       7.728  26.270  57.783  1.00  0.00     0.016 A 
HETATM   15  C   UNL     1       7.788  25.024  57.152  1.00  0.00     0.001 A 
HETATM   16  C   UNL     1       7.562  24.925  55.782  1.00  0.00     0.000 A 
HETATM   17  C   UNL     1       7.274  26.069  55.040  1.00  0.00     0.001 A 
HETATM   18  C   UNL     1       7.212  27.314  55.672  1.00  0.00     0.016 A 
ENDBRANCH   8  13
ENDBRANCH   1   5
BRANCH   2  19
HETATM   19  C   UNL     1       8.335  32.058  62.160  1.00  0.00     0.161 C 
BRANCH  19  20
HETATM   20  C   UNL     1       7.280  32.516  63.132  1.00  0.00    -0.040 A 
HETATM   21  C   UNL     1       7.658  33.156  64.318  1.00  0.00     0.011 A 
HETATM   22  C   UNL     1       6.698  33.658  65.204  1.00  0.00     0.030 A 
HETATM   23  C   UNL     1       5.339  33.537  64.917  1.00  0.00     0.035 A 
HETATM   24  C   UNL     1       4.954  32.892  63.736  1.00  0.00     0.030 A 
HETATM   25  C   UNL     1       5.914  32.396  62.845  1.00  0.00     0.011 A 
BRANCH  23  26
HETATM   26  N   UNL     1       4.318  34.028  65.754  1.00  0.00    -0.314 N 
HETATM   27  C   UNL     1       3.714  35.256  65.699  1.00  0.00     0.296 C 
HETATM   28  N   UNL     1       2.807  35.419  66.706  1.00  0.00    -0.254 NA
HETATM   29  O   UNL     1       3.882  36.155  64.888  1.00  0.00    -0.254 OA
HETATM   30  H   UNL     1       3.075  35.076  67.617  1.00  0.00     0.128 HD
HETATM   31  H   UNL     1       2.420  36.356  66.720  1.00  0.00     0.128 HD
HETATM   32  H   UNL     1       3.876  33.365  66.371  1.00  0.00     0.170 HD
ENDBRANCH  23  26
ENDBRANCH  19  20
ENDBRANCH   2  19
TORSDOF 6
ENDMDL
MODEL 3
REMARK VINA RESULT:      -9.2      3.677     10.577
REMARK  6 active torsions:
REMARK  status: ('A' for Active; 'I' for Inactive)
REMARK    1  A    between atoms: C_4  and  C_5 
REMARK    2  A    between atoms: C_7  and  C_8 
REMARK    3  A    between atoms: C_11  and  C_12 
REMARK       I    between atoms: C_12  and  N_13 
REMARK    4  A    between atoms: N_13  and  C_14 
REMARK    5  A    between atoms: C_14  and  C_15 
REMARK    6  A    between atoms: C_18  and  N_19 
REMARK       I    between atoms: N_19  and  C_20 
REMARK       I    between atoms: C_20  and  N_21 
ROOT
HETATM    1  C   UNL     1       6.794  29.134  56.547  1.00  0.00     0.273 C 
HETATM    2  N   UNL     1       6.989  27.772  56.519  1.00  0.00    -0.351 N 
HETATM    3  O   UNL     1       6.143  29.730  55.694  1.00  0.00    -0.266 OA
HETATM    4  H   UNL     1       7.452  27.350  57.318  1.00  0.00     0.163 HD
ENDROOT
BRANCH   1   5
HETATM    5  C   UNL     1       7.435  29.785  57.684  1.00  0.00     0.157 A 
HETATM    6  C   UNL     1       8.775  29.786  58.021  1.00  0.00     0.094 A 
HETATM    7  O   UNL     1       8.910  30.508  59.175  1.00  0.00    -0.293 OA
HETATM    8  C   UNL     1       7.643  30.916  59.488  1.00  0.00     0.180 A 
HETATM    9  N   UNL     1       6.722  30.526  58.625  1.00  0.00    -0.216 NA
BRANCH   6  10
HETATM   10  C   UNL     1       9.938  29.133  57.294  1.00  0.00     0.046 A 
HETATM   11  C   UNL     1      10.370  29.735  55.973  1.00  0.00     0.012 A 
HETATM   12  C   UNL     1      11.229  29.917  57.176  1.00  0.00     0.012 A 
ENDBRANCH   6  10
BRANCH   8  13
HETATM   13  C   UNL     1       7.496  31.698  60.713  1.00  0.00     0.017 A 
HETATM   14  C   UNL     1       6.486  32.662  60.860  1.00  0.00     0.016 A 
HETATM   15  C   UNL     1       6.371  33.406  62.038  1.00  0.00     0.001 A 
HETATM   16  C   UNL     1       7.265  33.195  63.085  1.00  0.00     0.000 A 
HETATM   17  C   UNL     1       8.273  32.242  62.957  1.00  0.00     0.001 A 
HETATM   18  C   UNL     1       8.387  31.498  61.779  1.00  0.00     0.016 A 
ENDBRANCH   8  13
ENDBRANCH   1   5
BRANCH   2  19
HETATM   19  C   UNL     1       6.382  26.963  55.494  1.00  0.00     0.161 C 
BRANCH  19  20
HETATM   20  C   UNL     1       6.896  25.548  55.462  1.00  0.00    -0.040 A 
HETATM   21  C   UNL     1       6.695  24.761  54.321  1.00  0.00     0.011 A 
HETATM   22  C   UNL     1       7.226  23.470  54.234  1.00  0.00     0.030 A 
HETATM   23  C   UNL     1       7.976  22.941  55.284  1.00  0.00     0.035 A 
HETATM   24  C   UNL     1       8.174  23.720  56.430  1.00  0.00     0.030 A 
HETATM   25  C   UNL     1       7.649  25.015  56.515  1.00  0.00     0.011 A 
BRANCH  23  26
HETATM   26  N   UNL     1       8.550  21.656  55.262  1.00  0.00    -0.314 N 
HETATM   27  C   UNL     1       8.302  20.647  54.369  1.00  0.00     0.296 C 
HETATM   28  N   UNL     1       8.990  19.511  54.685  1.00  0.00    -0.254 NA
HETATM   29  O   UNL     1       7.588  20.662  53.377  1.00  0.00    -0.254 OA
HETATM   30  H   UNL     1       9.031  19.263  55.663  1.00  0.00     0.128 HD
HETATM   31  H   UNL     1       8.745  18.737  54.077  1.00  0.00     0.128 HD
HETATM   32  H   UNL     1       9.334  21.495  55.876  1.00  0.00     0.170 HD
ENDBRANCH  23  26
ENDBRANCH  19  20
ENDBRANCH   2  19
TORSDOF 6
ENDMDL
MODEL 4
REMARK VINA RESULT:      -9.2      8.286     12.333
REMARK  6 active torsions:
REMARK  status: ('A' for Active; 'I' for Inactive)
REMARK    1  A    between atoms: C_4  and  C_5 
REMARK    2  A    between atoms: C_7  and  C_8 
REMARK    3  A    between atoms: C_11  and  C_12 
REMARK       I    between atoms: C_12  and  N_13 
REMARK    4  A    between atoms: N_13  and  C_14 
REMARK    5  A    between atoms: C_14  and  C_15 
REMARK    6  A    between atoms: C_18  and  N_19 
REMARK       I    between atoms: N_19  and  C_20 
REMARK       I    between atoms: C_20  and  N_21 
ROOT
HETATM    1  C   UNL     1       6.255  27.056  52.559  1.00  0.00     0.273 C 
HETATM    2  N   UNL     1       5.663  26.774  51.348  1.00  0.00    -0.351 N 
HETATM    3  O   UNL     1       6.580  28.192  52.891  1.00  0.00    -0.266 OA
HETATM    4  H   UNL     1       5.334  25.826  51.199  1.00  0.00     0.163 HD
ENDROOT
BRANCH   1   5
HETATM    5  C   UNL     1       6.449  25.876  53.394  1.00  0.00     0.157 A 
HETATM    6  C   UNL     1       6.078  25.696  54.713  1.00  0.00     0.094 A 
HETATM    7  O   UNL     1       6.481  24.443  55.087  1.00  0.00    -0.293 OA
HETATM    8  C   UNL     1       7.078  23.915  53.975  1.00  0.00     0.180 A 
HETATM    9  N   UNL     1       7.076  24.721  52.929  1.00  0.00    -0.216 NA
BRANCH   6  10
HETATM   10  C   UNL     1       5.355  26.659  55.637  1.00  0.00     0.046 A 
HETATM   11  C   UNL     1       5.033  26.183  57.039  1.00  0.00     0.012 A 
HETATM   12  C   UNL     1       6.111  27.191  56.837  1.00  0.00     0.012 A 
ENDBRANCH   6  10
BRANCH   8  13
HETATM   13  C   UNL     1       7.631  22.570  54.111  1.00  0.00     0.017 A 
HETATM   14  C   UNL     1       8.000  21.804  52.993  1.00  0.00     0.016 A 
HETATM   15  C   UNL     1       8.517  20.515  53.147  1.00  0.00     0.001 A 
HETATM   16  C   UNL     1       8.671  19.974  54.420  1.00  0.00     0.000 A 
HETATM   17  C   UNL     1       8.310  20.718  55.541  1.00  0.00     0.001 A 
HETATM   18  C   UNL     1       7.795  22.008  55.387  1.00  0.00     0.016 A 
ENDBRANCH   8  13
ENDBRANCH   1   5
BRANCH   2  19
HETATM   19  C   UNL     1       5.348  27.830  50.421  1.00  0.00     0.161 C 
BRANCH  19  20
HETATM   20  C   UNL     1       4.040  27.628  49.704  1.00  0.00    -0.040 A 
HETATM   21  C   UNL     1       2.983  28.521  49.920  1.00  0.00     0.011 A 
HETATM   22  C   UNL     1       1.782  28.402  49.212  1.00  0.00     0.030 A 
HETATM   23  C   UNL     1       1.616  27.391  48.266  1.00  0.00     0.035 A 
HETATM   24  C   UNL     1       2.666  26.491  48.051  1.00  0.00     0.030 A 
HETATM   25  C   UNL     1       3.871  26.614  48.753  1.00  0.00     0.011 A 
BRANCH  23  26
HETATM   26  N   UNL     1       0.442  27.218  47.508  1.00  0.00    -0.314 N 
HETATM   27  C   UNL     1      -0.051  28.045  46.534  1.00  0.00     0.296 C 
HETATM   28  N   UNL     1      -1.247  27.600  46.050  1.00  0.00    -0.254 NA
HETATM   29  O   UNL     1       0.444  29.064  46.074  1.00  0.00    -0.254 OA
HETATM   30  H   UNL     1      -1.904  27.240  46.727  1.00  0.00     0.128 HD
HETATM   31  H   UNL     1      -1.656  28.252  45.390  1.00  0.00     0.128 HD
HETATM   32  H   UNL     1      -0.018  26.324  47.578  1.00  0.00     0.170 HD
ENDBRANCH  23  26
ENDBRANCH  19  20
ENDBRANCH   2  19
TORSDOF 6
ENDMDL
MODEL 5
REMARK VINA RESULT:      -9.1      4.154      7.194
REMARK  6 active torsions:
REMARK  status: ('A' for Active; 'I' for Inactive)
REMARK    1  A    between atoms: C_4  and  C_5 
REMARK    2  A    between atoms: C_7  and  C_8 
REMARK    3  A    between atoms: C_11  and  C_12 
REMARK       I    between atoms: C_12  and  N_13 
REMARK    4  A    between atoms: N_13  and  C_14 
REMARK    5  A    between atoms: C_14  and  C_15 
REMARK    6  A    between atoms: C_18  and  N_19 
REMARK       I    between atoms: N_19  and  C_20 
REMARK       I    between atoms: C_20  and  N_21 
ROOT
HETATM    1  C   UNL     1       6.920  27.617  53.983  1.00  0.00     0.273 C 
HETATM    2  N   UNL     1       5.901  28.131  54.753  1.00  0.00    -0.351 N 
HETATM    3  O   UNL     1       7.843  28.306  53.557  1.00  0.00    -0.266 OA
HETATM    4  H   UNL     1       5.237  27.472  55.148  1.00  0.00     0.163 HD
ENDROOT
BRANCH   1   5
HETATM    5  C   UNL     1       6.789  26.187  53.733  1.00  0.00     0.157 A 
HETATM    6  C   UNL     1       5.906  25.549  52.881  1.00  0.00     0.094 A 
HETATM    7  O   UNL     1       6.132  24.203  52.987  1.00  0.00    -0.293 OA
HETATM    8  C   UNL     1       7.145  24.083  53.898  1.00  0.00     0.180 A 
HETATM    9  N   UNL     1       7.587  25.235  54.367  1.00  0.00    -0.216 NA
BRANCH   6  10
HETATM   10  C   UNL     1       4.858  26.159  51.969  1.00  0.00     0.046 A 
HETATM   11  C   UNL     1       5.273  27.331  51.103  1.00  0.00     0.012 A 
HETATM   12  C   UNL     1       5.043  26.001  50.473  1.00  0.00     0.012 A 
ENDBRANCH   6  10
BRANCH   8  13
HETATM   13  C   UNL     1       7.571  22.724  54.220  1.00  0.00     0.017 A 
HETATM   14  C   UNL     1       7.659  22.270  55.546  1.00  0.00     0.016 A 
HETATM   15  C   UNL     1       8.079  20.968  55.832  1.00  0.00     0.001 A 
HETATM   16  C   UNL     1       8.418  20.103  54.795  1.00  0.00     0.000 A 
HETATM   17  C   UNL     1       8.337  20.535  53.474  1.00  0.00     0.001 A 
HETATM   18  C   UNL     1       7.915  21.837  53.189  1.00  0.00     0.016 A 
ENDBRANCH   8  13
ENDBRANCH   1   5
BRANCH   2  19
HETATM   19  C   UNL     1       5.901  29.517  55.142  1.00  0.00     0.161 C 
BRANCH  19  20
HETATM   20  C   UNL     1       6.520  29.761  56.493  1.00  0.00    -0.040 A 
HETATM   21  C   UNL     1       7.692  29.086  56.854  1.00  0.00     0.011 A 
HETATM   22  C   UNL     1       8.330  29.349  58.071  1.00  0.00     0.030 A 
HETATM   23  C   UNL     1       7.812  30.299  58.950  1.00  0.00     0.035 A 
HETATM   24  C   UNL     1       6.636  30.972  58.599  1.00  0.00     0.030 A 
HETATM   25  C   UNL     1       6.001  30.715  57.378  1.00  0.00     0.011 A 
BRANCH  23  26
HETATM   26  N   UNL     1       8.405  30.624  60.185  1.00  0.00    -0.314 N 
HETATM   27  C   UNL     1       9.115  31.753  60.498  1.00  0.00     0.296 C 
HETATM   28  N   UNL     1       9.601  31.709  61.772  1.00  0.00    -0.254 NA
HETATM   29  O   UNL     1       9.331  32.736  59.804  1.00  0.00    -0.254 OA
HETATM   30  H   UNL     1       9.977  30.825  62.084  1.00  0.00     0.128 HD
HETATM   31  H   UNL     1      10.196  32.503  61.979  1.00  0.00     0.128 HD
HETATM   32  H   UNL     1       8.169  30.040  60.973  1.00  0.00     0.170 HD
ENDBRANCH  23  26
ENDBRANCH  19  20
ENDBRANCH   2  19
TORSDOF 6
ENDMDL
MODEL 6
REMARK VINA RESULT:      -8.9      4.256     10.636
REMARK  6 active torsions:
REMARK  status: ('A' for Active; 'I' for Inactive)
REMARK    1  A    between atoms: C_4  and  C_5 
REMARK    2  A    between atoms: C_7  and  C_8 
REMARK    3  A    between atoms: C_11  and  C_12 
REMARK       I    between atoms: C_12  and  N_13 
REMARK    4  A    between atoms: N_13  and  C_14 
REMARK    5  A    between atoms: C_14  and  C_15 
REMARK    6  A    between atoms: C_18  and  N_19 
REMARK       I    between atoms: N_19  and  C_20 
REMARK       I    between atoms: C_20  and  N_21 
ROOT
HETATM    1  C   UNL     1       7.751  28.681  55.186  1.00  0.00     0.273 C 
HETATM    2  N   UNL     1       6.829  27.721  54.838  1.00  0.00    -0.351 N 
HETATM    3  O   UNL     1       8.784  28.873  54.551  1.00  0.00    -0.266 OA
HETATM    4  H   UNL     1       5.957  27.701  55.356  1.00  0.00     0.163 HD
ENDROOT
BRANCH   1   5
HETATM    5  C   UNL     1       7.374  29.438  56.374  1.00  0.00     0.157 A 
HETATM    6  C   UNL     1       6.174  30.072  56.635  1.00  0.00     0.094 A 
HETATM    7  O   UNL     1       6.281  30.670  57.861  1.00  0.00    -0.293 OA
HETATM    8  C   UNL     1       7.544  30.371  58.292  1.00  0.00     0.180 A 
HETATM    9  N   UNL     1       8.238  29.627  57.452  1.00  0.00    -0.216 NA
BRANCH   6  10
HETATM   10  C   UNL     1       4.925  30.133  55.774  1.00  0.00     0.046 A 
HETATM   11  C   UNL     1       3.893  29.038  55.950  1.00  0.00     0.012 A 
HETATM   12  C   UNL     1       3.603  30.406  56.462  1.00  0.00     0.012 A 
ENDBRANCH   6  10
BRANCH   8  13
HETATM   13  C   UNL     1       7.935  30.921  59.588  1.00  0.00     0.017 A 
HETATM   14  C   UNL     1       9.065  30.456  60.280  1.00  0.00     0.016 A 
HETATM   15  C   UNL     1       9.414  30.989  61.523  1.00  0.00     0.001 A 
HETATM   16  C   UNL     1       8.638  31.995  62.092  1.00  0.00     0.000 A 
HETATM   17  C   UNL     1       7.513  32.470  61.420  1.00  0.00     0.001 A 
HETATM   18  C   UNL     1       7.166  31.937  60.176  1.00  0.00     0.016 A 
ENDBRANCH   8  13
ENDBRANCH   1   5
BRANCH   2  19
HETATM   19  C   UNL     1       7.016  26.916  53.658  1.00  0.00     0.161 C 
BRANCH  19  20
HETATM   20  C   UNL     1       7.407  25.493  53.958  1.00  0.00    -0.040 A 
HETATM   21  C   UNL     1       7.853  24.662  52.923  1.00  0.00     0.011 A 
HETATM   22  C   UNL     1       8.293  23.359  53.183  1.00  0.00     0.030 A 
HETATM   23  C   UNL     1       8.302  22.863  54.486  1.00  0.00     0.035 A 
HETATM   24  C   UNL     1       7.850  23.687  55.524  1.00  0.00     0.030 A 
HETATM   25  C   UNL     1       7.417  24.993  55.266  1.00  0.00     0.011 A 
BRANCH  23  26
HETATM   26  N   UNL     1       8.741  21.569  54.825  1.00  0.00    -0.314 N 
HETATM   27  C   UNL     1       8.511  20.405  54.141  1.00  0.00     0.296 C 
HETATM   28  N   UNL     1       9.033  19.324  54.791  1.00  0.00    -0.254 NA
HETATM   29  O   UNL     1       7.939  20.247  53.073  1.00  0.00    -0.254 OA
HETATM   30  H   UNL     1       8.920  19.301  55.794  1.00  0.00     0.128 HD
HETATM   31  H   UNL     1       8.793  18.453  54.332  1.00  0.00     0.128 HD
HETATM   32  H   UNL     1       9.418  21.497  55.569  1.00  0.00     0.170 HD
ENDBRANCH  23  26
ENDBRANCH  19  20
ENDBRANCH   2  19
TORSDOF 6
ENDMDL
MODEL 7
REMARK VINA RESULT:      -8.9      7.602     11.912
REMARK  6 active torsions:
REMARK  status: ('A' for Active; 'I' for Inactive)
REMARK    1  A    between atoms: C_4  and  C_5 
REMARK    2  A    between atoms: C_7  and  C_8 
REMARK    3  A    between atoms: C_11  and  C_12 
REMARK       I    between atoms: C_12  and  N_13 
REMARK    4  A    between atoms: N_13  and  C_14 
REMARK    5  A    between atoms: C_14  and  C_15 
REMARK    6  A    between atoms: C_18  and  N_19 
REMARK       I    between atoms: N_19  and  C_20 
REMARK       I    between atoms: C_20  and  N_21 
ROOT
HETATM    1  C   UNL     1       5.279  27.425  53.562  1.00  0.00     0.273 C 
HETATM    2  N   UNL     1       5.755  27.929  52.373  1.00  0.00    -0.351 N 
HETATM    3  O   UNL     1       4.254  27.838  54.096  1.00  0.00    -0.266 OA
HETATM    4  H   UNL     1       6.551  27.460  51.952  1.00  0.00     0.163 HD
ENDROOT
BRANCH   1   5
HETATM    5  C   UNL     1       6.111  26.361  54.112  1.00  0.00     0.157 A 
HETATM    6  C   UNL     1       7.049  26.449  55.124  1.00  0.00     0.094 A 
HETATM    7  O   UNL     1       7.596  25.206  55.289  1.00  0.00    -0.293 OA
HETATM    8  C   UNL     1       6.964  24.415  54.368  1.00  0.00     0.180 A 
HETATM    9  N   UNL     1       6.057  25.048  53.647  1.00  0.00    -0.216 NA
BRANCH   6  10
HETATM   10  C   UNL     1       7.448  27.661  55.946  1.00  0.00     0.046 A 
HETATM   11  C   UNL     1       6.518  28.094  57.060  1.00  0.00     0.012 A 
HETATM   12  C   UNL     1       7.813  27.441  57.400  1.00  0.00     0.012 A 
ENDBRANCH   6  10
BRANCH   8  13
HETATM   13  C   UNL     1       7.386  23.018  54.313  1.00  0.00     0.017 A 
HETATM   14  C   UNL     1       7.517  22.237  55.472  1.00  0.00     0.016 A 
HETATM   15  C   UNL     1       7.933  20.905  55.395  1.00  0.00     0.001 A 
HETATM   16  C   UNL     1       8.225  20.336  54.158  1.00  0.00     0.000 A 
HETATM   17  C   UNL     1       8.101  21.096  52.997  1.00  0.00     0.001 A 
HETATM   18  C   UNL     1       7.683  22.428  53.074  1.00  0.00     0.016 A 
ENDBRANCH   8  13
ENDBRANCH   1   5
BRANCH   2  19
HETATM   19  C   UNL     1       5.028  28.949  51.664  1.00  0.00     0.161 C 
BRANCH  19  20
HETATM   20  C   UNL     1       4.094  28.403  50.617  1.00  0.00    -0.040 A 
HETATM   21  C   UNL     1       2.806  28.937  50.488  1.00  0.00     0.011 A 
HETATM   22  C   UNL     1       1.943  28.501  49.477  1.00  0.00     0.030 A 
HETATM   23  C   UNL     1       2.353  27.527  48.568  1.00  0.00     0.035 A 
HETATM   24  C   UNL     1       3.637  26.984  48.696  1.00  0.00     0.030 A 
HETATM   25  C   UNL     1       4.504  27.425  49.703  1.00  0.00     0.011 A 
BRANCH  23  26
HETATM   26  N   UNL     1       1.545  27.049  47.519  1.00  0.00    -0.314 N 
HETATM   27  C   UNL     1       0.946  27.781  46.528  1.00  0.00     0.296 C 
HETATM   28  N   UNL     1       0.181  26.998  45.712  1.00  0.00    -0.254 NA
HETATM   29  O   UNL     1       1.032  28.980  46.305  1.00  0.00    -0.254 OA
HETATM   30  H   UNL     1      -0.375  26.284  46.161  1.00  0.00     0.128 HD
HETATM   31  H   UNL     1      -0.330  27.547  45.030  1.00  0.00     0.128 HD
HETATM   32  H   UNL     1       1.512  26.050  47.387  1.00  0.00     0.170 HD
ENDBRANCH  23  26
ENDBRANCH  19  20
ENDBRANCH   2  19
TORSDOF 6
ENDMDL
MODEL 8
REMARK VINA RESULT:      -8.8      3.647      5.543
REMARK  6 active torsions:
REMARK  status: ('A' for Active; 'I' for Inactive)
REMARK    1  A    between atoms: C_4  and  C_5 
REMARK    2  A    between atoms: C_7  and  C_8 
REMARK    3  A    between atoms: C_11  and  C_12 
REMARK       I    between atoms: C_12  and  N_13 
REMARK    4  A    between atoms: N_13  and  C_14 
REMARK    5  A    between atoms: C_14  and  C_15 
REMARK    6  A    between atoms: C_18  and  N_19 
REMARK       I    between atoms: N_19  and  C_20 
REMARK       I    between atoms: C_20  and  N_21 
ROOT
HETATM    1  C   UNL     1       7.896  27.244  57.192  1.00  0.00     0.273 C 
HETATM    2  N   UNL     1       8.335  28.454  56.705  1.00  0.00    -0.351 N 
HETATM    3  O   UNL     1       7.765  27.018  58.391  1.00  0.00    -0.266 OA
HETATM    4  H   UNL     1       8.315  28.588  55.700  1.00  0.00     0.163 HD
ENDROOT
BRANCH   1   5
HETATM    5  C   UNL     1       7.605  26.273  56.144  1.00  0.00     0.157 A 
HETATM    6  C   UNL     1       6.834  26.449  55.010  1.00  0.00     0.094 A 
HETATM    7  O   UNL     1       6.826  25.262  54.329  1.00  0.00    -0.293 OA
HETATM    8  C   UNL     1       7.596  24.417  55.079  1.00  0.00     0.180 A 
HETATM    9  N   UNL     1       8.098  24.969  56.168  1.00  0.00    -0.216 NA
BRANCH   6  10
HETATM   10  C   UNL     1       6.105  27.695  54.540  1.00  0.00     0.046 A 
HETATM   11  C   UNL     1       4.970  27.517  53.552  1.00  0.00     0.012 A 
HETATM   12  C   UNL     1       4.662  27.873  54.965  1.00  0.00     0.012 A 
ENDBRANCH   6  10
BRANCH   8  13
HETATM   13  C   UNL     1       7.733  23.050  54.583  1.00  0.00     0.017 A 
HETATM   14  C   UNL     1       7.860  22.768  53.213  1.00  0.00     0.016 A 
HETATM   15  C   UNL     1       7.980  21.452  52.760  1.00  0.00     0.001 A 
HETATM   16  C   UNL     1       7.974  20.399  53.671  1.00  0.00     0.000 A 
HETATM   17  C   UNL     1       7.849  20.658  55.034  1.00  0.00     0.001 A 
HETATM   18  C   UNL     1       7.731  21.976  55.486  1.00  0.00     0.016 A 
ENDBRANCH   8  13
ENDBRANCH   1   5
BRANCH   2  19
HETATM   19  C   UNL     1       8.618  29.547  57.600  1.00  0.00     0.161 C 
BRANCH  19  20
HETATM   20  C   UNL     1       7.407  30.376  57.937  1.00  0.00    -0.040 A 
HETATM   21  C   UNL     1       6.173  30.076  57.347  1.00  0.00     0.011 A 
HETATM   22  C   UNL     1       5.016  30.781  57.697  1.00  0.00     0.030 A 
HETATM   23  C   UNL     1       5.068  31.796  58.652  1.00  0.00     0.035 A 
HETATM   24  C   UNL     1       6.300  32.105  59.240  1.00  0.00     0.030 A 
HETATM   25  C   UNL     1       7.457  31.395  58.896  1.00  0.00     0.011 A 
BRANCH  23  26
HETATM   26  N   UNL     1       3.945  32.539  59.063  1.00  0.00    -0.314 N 
HETATM   27  C   UNL     1       3.284  32.457  60.259  1.00  0.00     0.296 C 
HETATM   28  N   UNL     1       2.196  33.281  60.294  1.00  0.00    -0.254 NA
HETATM   29  O   UNL     1       3.557  31.778  61.238  1.00  0.00    -0.254 OA
HETATM   30  H   UNL     1       1.633  33.325  59.456  1.00  0.00     0.128 HD
HETATM   31  H   UNL     1       1.656  33.162  61.144  1.00  0.00     0.128 HD
HETATM   32  H   UNL     1       3.675  33.318  58.482  1.00  0.00     0.170 HD
ENDBRANCH  23  26
ENDBRANCH  19  20
ENDBRANCH   2  19
TORSDOF 6
ENDMDL
MODEL 9
REMARK VINA RESULT:      -8.7      1.900      2.685
REMARK  6 active torsions:
REMARK  status: ('A' for Active; 'I' for Inactive)
REMARK    1  A    between atoms: C_4  and  C_5 
REMARK    2  A    between atoms: C_7  and  C_8 
REMARK    3  A    between atoms: C_11  and  C_12 
REMARK       I    between atoms: C_12  and  N_13 
REMARK    4  A    between atoms: N_13  and  C_14 
REMARK    5  A    between atoms: C_14  and  C_15 
REMARK    6  A    between atoms: C_18  and  N_19 
REMARK       I    between atoms: N_19  and  C_20 
REMARK       I    between atoms: C_20  and  N_21 
ROOT
HETATM    1  C   UNL     1       6.407  31.763  58.796  1.00  0.00     0.273 C 
HETATM    2  N   UNL     1       5.925  31.774  60.085  1.00  0.00    -0.351 N 
HETATM    3  O   UNL     1       6.277  32.712  58.029  1.00  0.00    -0.266 OA
HETATM    4  H   UNL     1       6.167  30.990  60.681  1.00  0.00     0.163 HD
ENDROOT
BRANCH   1   5
HETATM    5  C   UNL     1       7.083  30.519  58.444  1.00  0.00     0.157 A 
HETATM    6  C   UNL     1       8.391  30.157  58.705  1.00  0.00     0.094 A 
HETATM    7  O   UNL     1       8.588  28.912  58.173  1.00  0.00    -0.293 OA
HETATM    8  C   UNL     1       7.388  28.571  57.613  1.00  0.00     0.180 A 
HETATM    9  N   UNL     1       6.447  29.487  57.756  1.00  0.00    -0.216 NA
BRANCH   6  10
HETATM   10  C   UNL     1       9.465  30.939  59.441  1.00  0.00     0.046 A 
HETATM   11  C   UNL     1       9.032  32.156  60.233  1.00  0.00     0.012 A 
HETATM   12  C   UNL     1       9.442  30.919  60.956  1.00  0.00     0.012 A 
ENDBRANCH   6  10
BRANCH   8  13
HETATM   13  C   UNL     1       7.329  27.276  56.941  1.00  0.00     0.017 A 
HETATM   14  C   UNL     1       7.043  27.165  55.570  1.00  0.00     0.016 A 
HETATM   15  C   UNL     1       6.982  25.914  54.950  1.00  0.00     0.001 A 
HETATM   16  C   UNL     1       7.205  24.757  55.692  1.00  0.00     0.000 A 
HETATM   17  C   UNL     1       7.490  24.847  57.053  1.00  0.00     0.001 A 
HETATM   18  C   UNL     1       7.553  26.099  57.672  1.00  0.00     0.016 A 
ENDBRANCH   8  13
ENDBRANCH   1   5
BRANCH   2  19
HETATM   19  C   UNL     1       5.277  32.945  60.617  1.00  0.00     0.161 C 
BRANCH  19  20
HETATM   20  C   UNL     1       5.707  33.285  62.019  1.00  0.00    -0.040 A 
HETATM   21  C   UNL     1       6.404  32.340  62.781  1.00  0.00     0.011 A 
HETATM   22  C   UNL     1       6.881  32.654  64.059  1.00  0.00     0.030 A 
HETATM   23  C   UNL     1       6.678  33.923  64.597  1.00  0.00     0.035 A 
HETATM   24  C   UNL     1       5.976  34.871  63.843  1.00  0.00     0.030 A 
HETATM   25  C   UNL     1       5.505  34.560  62.561  1.00  0.00     0.011 A 
BRANCH  23  26
HETATM   26  N   UNL     1       7.139  34.314  65.869  1.00  0.00    -0.314 N 
HETATM   27  C   UNL     1       6.433  34.334  67.042  1.00  0.00     0.296 C 
HETATM   28  N   UNL     1       7.177  34.831  68.073  1.00  0.00    -0.254 NA
HETATM   29  O   UNL     1       5.287  33.963  67.250  1.00  0.00    -0.254 OA
HETATM   30  H   UNL     1       7.757  35.633  67.868  1.00  0.00     0.128 HD
HETATM   31  H   UNL     1       6.633  34.926  68.923  1.00  0.00     0.128 HD
HETATM   32  H   UNL     1       8.132  34.461  65.969  1.00  0.00     0.170 HD
ENDBRANCH  23  26
ENDBRANCH  19  20
ENDBRANCH   2  19
TORSDOF 6
ENDMDL
MODEL 10
REMARK VINA RESULT:      -8.5      9.213     13.148
REMARK  6 active torsions:
REMARK  status: ('A' for Active; 'I' for Inactive)
REMARK    1  A    between atoms: C_4  and  C_5 
REMARK    2  A    between atoms: C_7  and  C_8 
REMARK    3  A    between atoms: C_11  and  C_12 
REMARK       I    between atoms: C_12  and  N_13 
REMARK    4  A    between atoms: N_13  and  C_14 
REMARK    5  A    between atoms: C_14  and  C_15 
REMARK    6  A    between atoms: C_18  and  N_19 
REMARK       I    between atoms: N_19  and  C_20 
REMARK       I    between atoms: C_20  and  N_21 
ROOT
HETATM    1  C   UNL     1       5.540  27.593  50.276  1.00  0.00     0.273 C 
HETATM    2  N   UNL     1       5.378  26.854  49.126  1.00  0.00    -0.351 N 
HETATM    3  O   UNL     1       5.594  28.820  50.275  1.00  0.00    -0.266 OA
HETATM    4  H   UNL     1       5.241  25.854  49.230  1.00  0.00     0.163 HD
ENDROOT
BRANCH   1   5
HETATM    5  C   UNL     1       5.637  26.775  51.479  1.00  0.00     0.157 A 
HETATM    6  C   UNL     1       4.986  26.954  52.685  1.00  0.00     0.094 A 
HETATM    7  O   UNL     1       5.399  25.958  53.528  1.00  0.00    -0.293 OA
HETATM    8  C   UNL     1       6.283  25.215  52.794  1.00  0.00     0.180 A 
HETATM    9  N   UNL     1       6.455  25.649  51.558  1.00  0.00    -0.216 NA
BRANCH   6  10
HETATM   10  C   UNL     1       3.986  28.027  53.075  1.00  0.00     0.046 A 
HETATM   11  C   UNL     1       3.986  28.499  54.515  1.00  0.00     0.012 A 
HETATM   12  C   UNL     1       4.523  29.392  53.452  1.00  0.00     0.012 A 
ENDBRANCH   6  10
BRANCH   8  13
HETATM   13  C   UNL     1       6.905  24.084  53.476  1.00  0.00     0.017 A 
HETATM   14  C   UNL     1       7.555  23.058  52.770  1.00  0.00     0.016 A 
HETATM   15  C   UNL     1       8.134  21.979  53.443  1.00  0.00     0.001 A 
HETATM   16  C   UNL     1       8.070  21.911  54.832  1.00  0.00     0.000 A 
HETATM   17  C   UNL     1       7.430  22.918  55.550  1.00  0.00     0.001 A 
HETATM   18  C   UNL     1       6.853  23.998  54.876  1.00  0.00     0.016 A 
ENDBRANCH   8  13
ENDBRANCH   1   5
BRANCH   2  19
HETATM   19  C   UNL     1       5.211  27.503  47.852  1.00  0.00     0.161 C 
BRANCH  19  20
HETATM   20  C   UNL     1       3.776  27.816  47.522  1.00  0.00    -0.040 A 
HETATM   21  C   UNL     1       2.785  26.851  47.738  1.00  0.00     0.011 A 
HETATM   22  C   UNL     1       1.435  27.139  47.510  1.00  0.00     0.030 A 
HETATM   23  C   UNL     1       1.047  28.403  47.069  1.00  0.00     0.035 A 
HETATM   24  C   UNL     1       2.033  29.371  46.844  1.00  0.00     0.030 A 
HETATM   25  C   UNL     1       3.383  29.086  47.079  1.00  0.00     0.011 A 
BRANCH  23  26
HETATM   26  N   UNL     1      -0.292  28.769  46.831  1.00  0.00    -0.314 N 
HETATM   27  C   UNL     1      -1.108  28.333  45.821  1.00  0.00     0.296 C 
HETATM   28  N   UNL     1      -2.328  28.945  45.858  1.00  0.00    -0.254 NA
HETATM   29  O   UNL     1      -0.878  27.499  44.959  1.00  0.00    -0.254 OA
HETATM   30  H   UNL     1      -2.334  29.934  46.063  1.00  0.00     0.128 HD
HETATM   31  H   UNL     1      -2.905  28.688  45.064  1.00  0.00     0.128 HD
HETATM   32  H   UNL     1      -0.757  29.296  47.555  1.00  0.00     0.170 HD
ENDBRANCH  23  26
ENDBRANCH  19  20
ENDBRANCH   2  19
TORSDOF 6
ENDMDL
