MODEL 1
REMARK VINA RESULT:      -8.3      0.000      0.000
REMARK  5 active torsions:
REMARK  status: ('A' for Active; 'I' for Inactive)
REMARK    1  A    between atoms: C_2  and  C_3 
REMARK       I    between atoms: C_3  and  N_4 
REMARK    2  A    between atoms: N_4  and  C_5 
REMARK    3  A    between atoms: C_5  and  C_6 
REMARK    4  A    between atoms: C_5  and  C_17 
REMARK    5  A    between atoms: C_7  and  O_8 
ROOT
HETATM    1  C   UNL     1       6.091  26.532  54.963  1.00  0.00     0.154 C 
ENDROOT
BRANCH   1   2
HETATM    2  N   UNL     1       5.261  27.170  53.947  1.00  0.00    -0.348 N 
HETATM    3  C   UNL     1       4.288  28.087  54.261  1.00  0.00     0.218 C 
HETATM    4  O   UNL     1       4.000  28.420  55.406  1.00  0.00    -0.274 OA
HETATM    5  H   UNL     1       5.508  27.021  52.982  1.00  0.00     0.163 HD
BRANCH   3   6
HETATM    6  C   UNL     1       3.622  28.726  53.058  1.00  0.00     0.098 C 
HETATM    7  C   UNL     1       4.273  28.346  51.740  1.00  0.00     0.014 C 
ENDBRANCH   3   6
ENDBRANCH   1   2
BRANCH   1   8
HETATM    8  C   UNL     1       6.647  25.223  54.410  1.00  0.00     0.005 A 
HETATM    9  C   UNL     1       6.835  24.103  55.233  1.00  0.00     0.103 A 
HETATM   10  C   UNL     1       7.370  22.899  54.773  1.00  0.00     0.100 A 
HETATM   11  C   UNL     1       7.736  22.809  53.417  1.00  0.00    -0.004 A 
HETATM   12  N   UNL     1       7.525  21.875  55.641  1.00  0.00    -0.257 NA
HETATM   13  C   UNL     1       7.559  23.914  52.568  1.00  0.00     0.014 A 
HETATM   14  C   UNL     1       8.282  21.601  52.966  1.00  0.00     0.015 A 
HETATM   15  C   UNL     1       7.025  25.107  53.062  1.00  0.00     0.013 A 
HETATM   16  C   UNL     1       8.447  20.543  53.853  1.00  0.00     0.020 A 
HETATM   17  C   UNL     1       8.058  20.726  55.167  1.00  0.00     0.117 A 
BRANCH   9  18
HETATM   18  O   UNL     1       6.502  24.179  56.567  1.00  0.00    -0.358 OA
HETATM   19  H   UNL     1       5.613  23.765  56.618  1.00  0.00     0.218 HD
ENDBRANCH   9  18
ENDBRANCH   1   8
BRANCH   1  20
HETATM   20  C   UNL     1       7.212  27.444  55.476  1.00  0.00    -0.031 A 
HETATM   21  C   UNL     1       7.965  28.284  54.637  1.00  0.00     0.009 A 
HETATM   22  C   UNL     1       8.990  29.079  55.156  1.00  0.00     0.001 A 
HETATM   23  C   UNL     1       9.281  29.049  56.517  1.00  0.00     0.000 A 
HETATM   24  C   UNL     1       8.544  28.229  57.365  1.00  0.00     0.001 A 
HETATM   25  C   UNL     1       7.516  27.437  56.851  1.00  0.00     0.009 A 
ENDBRANCH   1  20
TORSDOF 5
ENDMDL
MODEL 2
REMARK VINA RESULT:      -8.0      1.778      4.009
REMARK  5 active torsions:
REMARK  status: ('A' for Active; 'I' for Inactive)
REMARK    1  A    between atoms: C_2  and  C_3 
REMARK       I    between atoms: C_3  and  N_4 
REMARK    2  A    between atoms: N_4  and  C_5 
REMARK    3  A    between atoms: C_5  and  C_6 
REMARK    4  A    between atoms: C_5  and  C_17 
REMARK    5  A    between atoms: C_7  and  O_8 
ROOT
HETATM    1  C   UNL     1       7.514  27.736  53.860  1.00  0.00     0.154 C 
ENDROOT
BRANCH   1   2
HETATM    2  N   UNL     1       8.040  28.092  55.174  1.00  0.00    -0.348 N 
HETATM    3  C   UNL     1       9.131  28.911  55.333  1.00  0.00     0.218 C 
HETATM    4  O   UNL     1       9.782  29.378  54.404  1.00  0.00    -0.274 OA
HETATM    5  H   UNL     1       7.497  27.828  55.980  1.00  0.00     0.163 HD
BRANCH   3   6
HETATM    6  C   UNL     1       9.443  29.260  56.775  1.00  0.00     0.098 C 
HETATM    7  C   UNL     1      10.884  29.687  56.990  1.00  0.00     0.014 C 
ENDBRANCH   3   6
ENDBRANCH   1   2
BRANCH   1   8
HETATM    8  C   UNL     1       7.615  26.226  53.670  1.00  0.00     0.005 A 
HETATM    9  C   UNL     1       7.477  25.343  54.752  1.00  0.00     0.103 A 
HETATM   10  C   UNL     1       7.594  23.958  54.626  1.00  0.00     0.100 A 
HETATM   11  C   UNL     1       7.862  23.427  53.351  1.00  0.00    -0.004 A 
HETATM   12  N   UNL     1       7.458  23.184  55.726  1.00  0.00    -0.257 NA
HETATM   13  C   UNL     1       8.005  24.285  52.249  1.00  0.00     0.014 A 
HETATM   14  C   UNL     1       7.989  22.036  53.235  1.00  0.00     0.015 A 
HETATM   15  C   UNL     1       7.886  25.669  52.410  1.00  0.00     0.013 A 
HETATM   16  C   UNL     1       7.851  21.233  54.362  1.00  0.00     0.020 A 
HETATM   17  C   UNL     1       7.589  21.848  55.573  1.00  0.00     0.117 A 
BRANCH   9  18
HETATM   18  O   UNL     1       7.236  25.846  56.011  1.00  0.00    -0.358 OA
HETATM   19  H   UNL     1       6.629  26.602  55.856  1.00  0.00     0.218 HD
ENDBRANCH   9  18
ENDBRANCH   1   8
BRANCH   1  20
HETATM   20  C   UNL     1       6.081  28.234  53.637  1.00  0.00    -0.031 A 
HETATM   21  C   UNL     1       5.193  28.522  54.688  1.00  0.00     0.009 A 
HETATM   22  C   UNL     1       3.890  28.953  54.427  1.00  0.00     0.001 A 
HETATM   23  C   UNL     1       3.451  29.102  53.114  1.00  0.00     0.000 A 
HETATM   24  C   UNL     1       4.316  28.828  52.058  1.00  0.00     0.001 A 
HETATM   25  C   UNL     1       5.619  28.402  52.317  1.00  0.00     0.009 A 
ENDBRANCH   1  20
TORSDOF 5
ENDMDL
MODEL 3
REMARK VINA RESULT:      -7.7      2.420      6.030
REMARK  5 active torsions:
REMARK  status: ('A' for Active; 'I' for Inactive)
REMARK    1  A    between atoms: C_2  and  C_3 
REMARK       I    between atoms: C_3  and  N_4 
REMARK    2  A    between atoms: N_4  and  C_5 
REMARK    3  A    between atoms: C_5  and  C_6 
REMARK    4  A    between atoms: C_5  and  C_17 
REMARK    5  A    between atoms: C_7  and  O_8 
ROOT
HETATM    1  C   UNL     1       6.898  27.426  53.674  1.00  0.00     0.154 C 
ENDROOT
BRANCH   1   2
HETATM    2  N   UNL     1       5.499  27.732  53.393  1.00  0.00    -0.348 N 
HETATM    3  C   UNL     1       5.121  28.578  52.379  1.00  0.00     0.218 C 
HETATM    4  O   UNL     1       5.907  29.179  51.655  1.00  0.00    -0.274 OA
HETATM    5  H   UNL     1       4.798  27.198  53.880  1.00  0.00     0.163 HD
BRANCH   3   6
HETATM    6  C   UNL     1       3.621  28.668  52.170  1.00  0.00     0.098 C 
HETATM    7  C   UNL     1       3.236  29.059  50.755  1.00  0.00     0.014 C 
ENDBRANCH   3   6
ENDBRANCH   1   2
BRANCH   1   8
HETATM    8  C   UNL     1       7.307  28.100  54.980  1.00  0.00     0.005 A 
HETATM    9  C   UNL     1       8.516  28.803  55.092  1.00  0.00     0.103 A 
HETATM   10  C   UNL     1       8.942  29.407  56.276  1.00  0.00     0.100 A 
HETATM   11  C   UNL     1       8.115  29.303  57.409  1.00  0.00    -0.004 A 
HETATM   12  N   UNL     1      10.128  30.054  56.294  1.00  0.00    -0.257 NA
HETATM   13  C   UNL     1       6.898  28.606  57.328  1.00  0.00     0.014 A 
HETATM   14  C   UNL     1       8.554  29.903  58.597  1.00  0.00     0.015 A 
HETATM   15  C   UNL     1       6.503  28.009  56.128  1.00  0.00     0.013 A 
HETATM   16  C   UNL     1       9.774  30.569  58.624  1.00  0.00     0.020 A 
HETATM   17  C   UNL     1      10.517  30.617  57.460  1.00  0.00     0.117 A 
BRANCH   9  18
HETATM   18  O   UNL     1       9.349  28.897  53.999  1.00  0.00    -0.358 OA
HETATM   19  H   UNL     1      10.228  29.107  54.383  1.00  0.00     0.218 HD
ENDBRANCH   9  18
ENDBRANCH   1   8
BRANCH   1  20
HETATM   20  C   UNL     1       7.183  25.920  53.709  1.00  0.00    -0.031 A 
HETATM   21  C   UNL     1       6.966  25.121  54.845  1.00  0.00     0.009 A 
HETATM   22  C   UNL     1       7.263  23.755  54.827  1.00  0.00     0.001 A 
HETATM   23  C   UNL     1       7.784  23.167  53.678  1.00  0.00     0.000 A 
HETATM   24  C   UNL     1       8.002  23.939  52.540  1.00  0.00     0.001 A 
HETATM   25  C   UNL     1       7.701  25.301  52.554  1.00  0.00     0.009 A 
ENDBRANCH   1  20
TORSDOF 5
ENDMDL
MODEL 4
REMARK VINA RESULT:      -7.7      1.647      5.909
REMARK  5 active torsions:
REMARK  status: ('A' for Active; 'I' for Inactive)
REMARK    1  A    between atoms: C_2  and  C_3 
REMARK       I    between atoms: C_3  and  N_4 
REMARK    2  A    between atoms: N_4  and  C_5 
REMARK    3  A    between atoms: C_5  and  C_6 
REMARK    4  A    between atoms: C_5  and  C_17 
REMARK    5  A    between atoms: C_7  and  O_8 
ROOT
HETATM    1  C   UNL     1       6.677  24.674  54.788  1.00  0.00     0.154 C 
ENDROOT
BRANCH   1   2
HETATM    2  N   UNL     1       7.400  25.548  55.707  1.00  0.00    -0.348 N 
HETATM    3  C   UNL     1       6.966  25.788  56.988  1.00  0.00     0.218 C 
HETATM    4  O   UNL     1       5.929  25.334  57.460  1.00  0.00    -0.274 OA
HETATM    5  H   UNL     1       8.309  25.874  55.422  1.00  0.00     0.163 HD
BRANCH   3   6
HETATM    6  C   UNL     1       7.919  26.623  57.821  1.00  0.00     0.098 C 
HETATM    7  C   UNL     1       8.458  27.835  57.083  1.00  0.00     0.014 C 
ENDBRANCH   3   6
ENDBRANCH   1   2
BRANCH   1   8
HETATM    8  C   UNL     1       6.211  25.486  53.583  1.00  0.00     0.005 A 
HETATM    9  C   UNL     1       5.212  26.463  53.704  1.00  0.00     0.103 A 
HETATM   10  C   UNL     1       4.734  27.205  52.621  1.00  0.00     0.100 A 
HETATM   11  C   UNL     1       5.286  26.956  51.351  1.00  0.00    -0.004 A 
HETATM   12  N   UNL     1       3.761  28.119  52.829  1.00  0.00    -0.257 NA
HETATM   13  C   UNL     1       6.288  25.984  51.199  1.00  0.00     0.014 A 
HETATM   14  C   UNL     1       4.795  27.697  50.269  1.00  0.00     0.015 A 
HETATM   15  C   UNL     1       6.741  25.256  52.303  1.00  0.00     0.013 A 
HETATM   16  C   UNL     1       3.792  28.639  50.474  1.00  0.00     0.020 A 
HETATM   17  C   UNL     1       3.312  28.811  51.759  1.00  0.00     0.117 A 
BRANCH   9  18
HETATM   18  O   UNL     1       4.645  26.705  54.935  1.00  0.00    -0.358 OA
HETATM   19  H   UNL     1       5.413  26.841  55.531  1.00  0.00     0.218 HD
ENDBRANCH   9  18
ENDBRANCH   1   8
BRANCH   1  20
HETATM   20  C   UNL     1       7.499  23.454  54.356  1.00  0.00    -0.031 A 
HETATM   21  C   UNL     1       7.136  22.621  53.284  1.00  0.00     0.009 A 
HETATM   22  C   UNL     1       7.912  21.508  52.948  1.00  0.00     0.001 A 
HETATM   23  C   UNL     1       9.061  21.209  53.675  1.00  0.00     0.000 A 
HETATM   24  C   UNL     1       9.442  22.025  54.737  1.00  0.00     0.001 A 
HETATM   25  C   UNL     1       8.671  23.139  55.072  1.00  0.00     0.009 A 
ENDBRANCH   1  20
TORSDOF 5
ENDMDL
MODEL 5
REMARK VINA RESULT:      -7.6      2.778      4.706
REMARK  5 active torsions:
REMARK  status: ('A' for Active; 'I' for Inactive)
REMARK    1  A    between atoms: C_2  and  C_3 
REMARK       I    between atoms: C_3  and  N_4 
REMARK    2  A    between atoms: N_4  and  C_5 
REMARK    3  A    between atoms: C_5  and  C_6 
REMARK    4  A    between atoms: C_5  and  C_17 
REMARK    5  A    between atoms: C_7  and  O_8 
ROOT
HETATM    1  C   UNL     1       7.424  28.954  55.907  1.00  0.00     0.154 C 
ENDROOT
BRANCH   1   2
HETATM    2  N   UNL     1       8.461  29.412  56.827  1.00  0.00    -0.348 N 
HETATM    3  C   UNL     1       9.714  29.776  56.400  1.00  0.00     0.218 C 
HETATM    4  O   UNL     1      10.090  29.714  55.234  1.00  0.00    -0.274 OA
HETATM    5  H   UNL     1       8.193  29.584  57.783  1.00  0.00     0.163 HD
BRANCH   3   6
HETATM    6  C   UNL     1      10.605  30.339  57.492  1.00  0.00     0.098 C 
HETATM    7  C   UNL     1       9.884  31.306  58.414  1.00  0.00     0.014 C 
ENDBRANCH   3   6
ENDBRANCH   1   2
BRANCH   1   8
HETATM    8  C   UNL     1       7.447  27.431  55.841  1.00  0.00     0.005 A 
HETATM    9  C   UNL     1       7.530  26.754  54.614  1.00  0.00     0.103 A 
HETATM   10  C   UNL     1       7.521  25.362  54.508  1.00  0.00     0.100 A 
HETATM   11  C   UNL     1       7.426  24.607  55.691  1.00  0.00    -0.004 A 
HETATM   12  N   UNL     1       7.594  24.796  53.283  1.00  0.00    -0.257 NA
HETATM   13  C   UNL     1       7.343  25.255  56.934  1.00  0.00     0.014 A 
HETATM   14  C   UNL     1       7.408  23.210  55.575  1.00  0.00     0.015 A 
HETATM   15  C   UNL     1       7.348  26.651  57.005  1.00  0.00     0.013 A 
HETATM   16  C   UNL     1       7.481  22.620  54.318  1.00  0.00     0.020 A 
HETATM   17  C   UNL     1       7.571  23.446  53.214  1.00  0.00     0.117 A 
BRANCH   9  18
HETATM   18  O   UNL     1       7.602  27.477  53.445  1.00  0.00    -0.358 OA
HETATM   19  H   UNL     1       7.637  28.412  53.741  1.00  0.00     0.218 HD
ENDBRANCH   9  18
ENDBRANCH   1   8
BRANCH   1  20
HETATM   20  C   UNL     1       6.030  29.478  56.273  1.00  0.00    -0.031 A 
HETATM   21  C   UNL     1       4.926  29.399  55.407  1.00  0.00     0.009 A 
HETATM   22  C   UNL     1       3.682  29.912  55.785  1.00  0.00     0.001 A 
HETATM   23  C   UNL     1       3.520  30.512  57.030  1.00  0.00     0.000 A 
HETATM   24  C   UNL     1       4.599  30.595  57.905  1.00  0.00     0.001 A 
HETATM   25  C   UNL     1       5.841  30.079  57.533  1.00  0.00     0.009 A 
ENDBRANCH   1  20
TORSDOF 5
ENDMDL
MODEL 6
REMARK VINA RESULT:      -7.5      9.150     11.888
REMARK  5 active torsions:
REMARK  status: ('A' for Active; 'I' for Inactive)
REMARK    1  A    between atoms: C_2  and  C_3 
REMARK       I    between atoms: C_3  and  N_4 
REMARK    2  A    between atoms: N_4  and  C_5 
REMARK    3  A    between atoms: C_5  and  C_6 
REMARK    4  A    between atoms: C_5  and  C_17 
REMARK    5  A    between atoms: C_7  and  O_8 
ROOT
HETATM    1  C   UNL     1       4.414  33.349  63.758  1.00  0.00     0.154 C 
ENDROOT
BRANCH   1   2
HETATM    2  N   UNL     1       3.607  33.889  62.668  1.00  0.00    -0.348 N 
HETATM    3  C   UNL     1       2.245  34.041  62.767  1.00  0.00     0.218 C 
HETATM    4  O   UNL     1       1.584  33.706  63.744  1.00  0.00    -0.274 OA
HETATM    5  H   UNL     1       4.093  34.278  61.877  1.00  0.00     0.163 HD
BRANCH   3   6
HETATM    6  C   UNL     1       1.608  34.732  61.576  1.00  0.00     0.098 C 
HETATM    7  C   UNL     1       2.347  34.484  60.273  1.00  0.00     0.014 C 
ENDBRANCH   3   6
ENDBRANCH   1   2
BRANCH   1   8
HETATM    8  C   UNL     1       5.784  32.949  63.220  1.00  0.00     0.005 A 
HETATM    9  C   UNL     1       5.921  32.290  61.989  1.00  0.00     0.103 A 
HETATM   10  C   UNL     1       7.152  31.879  61.476  1.00  0.00     0.100 A 
HETATM   11  C   UNL     1       8.308  32.142  62.233  1.00  0.00    -0.004 A 
HETATM   12  N   UNL     1       7.188  31.239  60.286  1.00  0.00    -0.257 NA
HETATM   13  C   UNL     1       8.204  32.801  63.468  1.00  0.00     0.014 A 
HETATM   14  C   UNL     1       9.539  31.717  61.716  1.00  0.00     0.015 A 
HETATM   15  C   UNL     1       6.955  33.195  63.956  1.00  0.00     0.013 A 
HETATM   16  C   UNL     1       9.584  31.057  60.493  1.00  0.00     0.020 A 
HETATM   17  C   UNL     1       8.394  30.843  59.823  1.00  0.00     0.117 A 
BRANCH   9  18
HETATM   18  O   UNL     1       4.798  32.005  61.244  1.00  0.00    -0.358 OA
HETATM   19  H   UNL     1       4.877  31.047  61.046  1.00  0.00     0.218 HD
ENDBRANCH   9  18
ENDBRANCH   1   8
BRANCH   1  20
HETATM   20  C   UNL     1       4.538  34.315  64.942  1.00  0.00    -0.031 A 
HETATM   21  C   UNL     1       4.615  35.711  64.792  1.00  0.00     0.009 A 
HETATM   22  C   UNL     1       4.748  36.544  65.906  1.00  0.00     0.001 A 
HETATM   23  C   UNL     1       4.809  35.999  67.186  1.00  0.00     0.000 A 
HETATM   24  C   UNL     1       4.729  34.621  67.357  1.00  0.00     0.001 A 
HETATM   25  C   UNL     1       4.591  33.787  66.246  1.00  0.00     0.009 A 
ENDBRANCH   1  20
TORSDOF 5
ENDMDL
MODEL 7
REMARK VINA RESULT:      -7.5      2.111      6.221
REMARK  5 active torsions:
REMARK  status: ('A' for Active; 'I' for Inactive)
REMARK    1  A    between atoms: C_2  and  C_3 
REMARK       I    between atoms: C_3  and  N_4 
REMARK    2  A    between atoms: N_4  and  C_5 
REMARK    3  A    between atoms: C_5  and  C_6 
REMARK    4  A    between atoms: C_5  and  C_17 
REMARK    5  A    between atoms: C_7  and  O_8 
ROOT
HETATM    1  C   UNL     1       5.468  27.186  54.615  1.00  0.00     0.154 C 
ENDROOT
BRANCH   1   2
HETATM    2  N   UNL     1       6.207  26.228  53.799  1.00  0.00    -0.348 N 
HETATM    3  C   UNL     1       6.518  24.967  54.245  1.00  0.00     0.218 C 
HETATM    4  O   UNL     1       6.247  24.546  55.365  1.00  0.00    -0.274 OA
HETATM    5  H   UNL     1       6.373  26.468  52.835  1.00  0.00     0.163 HD
BRANCH   3   6
HETATM    6  C   UNL     1       7.179  24.084  53.204  1.00  0.00     0.098 C 
HETATM    7  C   UNL     1       7.915  24.868  52.132  1.00  0.00     0.014 C 
ENDBRANCH   3   6
ENDBRANCH   1   2
BRANCH   1   8
HETATM    8  C   UNL     1       6.429  27.871  55.582  1.00  0.00     0.005 A 
HETATM    9  C   UNL     1       7.630  28.443  55.135  1.00  0.00     0.103 A 
HETATM   10  C   UNL     1       8.551  29.050  55.990  1.00  0.00     0.100 A 
HETATM   11  C   UNL     1       8.255  29.088  57.365  1.00  0.00    -0.004 A 
HETATM   12  N   UNL     1       9.688  29.565  55.473  1.00  0.00    -0.257 NA
HETATM   13  C   UNL     1       7.061  28.524  57.843  1.00  0.00     0.014 A 
HETATM   14  C   UNL     1       9.189  29.690  58.219  1.00  0.00     0.015 A 
HETATM   15  C   UNL     1       6.162  27.919  56.960  1.00  0.00     0.013 A 
HETATM   16  C   UNL     1      10.362  30.221  57.694  1.00  0.00     0.020 A 
HETATM   17  C   UNL     1      10.565  30.135  56.330  1.00  0.00     0.117 A 
BRANCH   9  18
HETATM   18  O   UNL     1       7.946  28.396  53.796  1.00  0.00    -0.358 OA
HETATM   19  H   UNL     1       8.753  28.949  53.719  1.00  0.00     0.218 HD
ENDBRANCH   9  18
ENDBRANCH   1   8
BRANCH   1  20
HETATM   20  C   UNL     1       4.692  28.209  53.777  1.00  0.00    -0.031 A 
HETATM   21  C   UNL     1       4.180  29.407  54.305  1.00  0.00     0.009 A 
HETATM   22  C   UNL     1       3.462  30.295  53.499  1.00  0.00     0.001 A 
HETATM   23  C   UNL     1       3.242  30.002  52.156  1.00  0.00     0.000 A 
HETATM   24  C   UNL     1       3.745  28.824  51.612  1.00  0.00     0.001 A 
HETATM   25  C   UNL     1       4.467  27.938  52.414  1.00  0.00     0.009 A 
ENDBRANCH   1  20
TORSDOF 5
ENDMDL
MODEL 8
REMARK VINA RESULT:      -7.5      2.478      5.847
REMARK  5 active torsions:
REMARK  status: ('A' for Active; 'I' for Inactive)
REMARK    1  A    between atoms: C_2  and  C_3 
REMARK       I    between atoms: C_3  and  N_4 
REMARK    2  A    between atoms: N_4  and  C_5 
REMARK    3  A    between atoms: C_5  and  C_6 
REMARK    4  A    between atoms: C_5  and  C_17 
REMARK    5  A    between atoms: C_7  and  O_8 
ROOT
HETATM    1  C   UNL     1       7.192  25.255  53.147  1.00  0.00     0.154 C 
ENDROOT
BRANCH   1   2
HETATM    2  N   UNL     1       6.123  25.080  52.169  1.00  0.00    -0.348 N 
HETATM    3  C   UNL     1       5.700  26.099  51.351  1.00  0.00     0.218 C 
HETATM    4  O   UNL     1       6.141  27.243  51.392  1.00  0.00    -0.274 OA
HETATM    5  H   UNL     1       5.786  24.144  52.010  1.00  0.00     0.163 HD
BRANCH   3   6
HETATM    6  C   UNL     1       4.668  25.683  50.321  1.00  0.00     0.098 C 
HETATM    7  C   UNL     1       4.570  26.643  49.149  1.00  0.00     0.014 C 
ENDBRANCH   3   6
ENDBRANCH   1   2
BRANCH   1   8
HETATM    8  C   UNL     1       6.683  26.115  54.300  1.00  0.00     0.005 A 
HETATM    9  C   UNL     1       7.216  27.388  54.552  1.00  0.00     0.103 A 
HETATM   10  C   UNL     1       6.801  28.193  55.614  1.00  0.00     0.100 A 
HETATM   11  C   UNL     1       5.799  27.699  56.469  1.00  0.00    -0.004 A 
HETATM   12  N   UNL     1       7.379  29.402  55.788  1.00  0.00    -0.257 NA
HETATM   13  C   UNL     1       5.245  26.428  56.242  1.00  0.00     0.014 A 
HETATM   14  C   UNL     1       5.395  28.508  57.539  1.00  0.00     0.015 A 
HETATM   15  C   UNL     1       5.687  25.645  55.172  1.00  0.00     0.013 A 
HETATM   16  C   UNL     1       5.986  29.753  57.725  1.00  0.00     0.020 A 
HETATM   17  C   UNL     1       6.963  30.151  56.833  1.00  0.00     0.117 A 
BRANCH   9  18
HETATM   18  O   UNL     1       8.213  27.879  53.738  1.00  0.00    -0.358 OA
HETATM   19  H   UNL     1       7.770  28.021  52.874  1.00  0.00     0.218 HD
ENDBRANCH   9  18
ENDBRANCH   1   8
BRANCH   1  20
HETATM   20  C   UNL     1       7.762  23.924  53.651  1.00  0.00    -0.031 A 
HETATM   21  C   UNL     1       8.456  23.794  54.867  1.00  0.00     0.009 A 
HETATM   22  C   UNL     1       8.973  22.559  55.267  1.00  0.00     0.001 A 
HETATM   23  C   UNL     1       8.807  21.435  54.462  1.00  0.00     0.000 A 
HETATM   24  C   UNL     1       8.118  21.540  53.258  1.00  0.00     0.001 A 
HETATM   25  C   UNL     1       7.596  22.772  52.858  1.00  0.00     0.009 A 
ENDBRANCH   1  20
TORSDOF 5
ENDMDL
MODEL 9
REMARK VINA RESULT:      -7.4      4.925      6.990
REMARK  5 active torsions:
REMARK  status: ('A' for Active; 'I' for Inactive)
REMARK    1  A    between atoms: C_2  and  C_3 
REMARK       I    between atoms: C_3  and  N_4 
REMARK    2  A    between atoms: N_4  and  C_5 
REMARK    3  A    between atoms: C_5  and  C_6 
REMARK    4  A    between atoms: C_5  and  C_17 
REMARK    5  A    between atoms: C_7  and  O_8 
ROOT
HETATM    1  C   UNL     1       6.932  31.268  58.501  1.00  0.00     0.154 C 
ENDROOT
BRANCH   1   2
HETATM    2  N   UNL     1       7.522  31.157  59.831  1.00  0.00    -0.348 N 
HETATM    3  C   UNL     1       8.601  31.911  60.223  1.00  0.00     0.218 C 
HETATM    4  O   UNL     1       9.188  32.704  59.494  1.00  0.00    -0.274 OA
HETATM    5  H   UNL     1       7.032  30.601  60.513  1.00  0.00     0.163 HD
BRANCH   3   6
HETATM    6  C   UNL     1       8.986  31.738  61.680  1.00  0.00     0.098 C 
HETATM    7  C   UNL     1       8.011  32.395  62.640  1.00  0.00     0.014 C 
ENDBRANCH   3   6
ENDBRANCH   1   2
BRANCH   1   8
HETATM    8  C   UNL     1       6.606  29.873  57.977  1.00  0.00     0.005 A 
HETATM    9  C   UNL     1       7.570  28.854  57.963  1.00  0.00     0.103 A 
HETATM   10  C   UNL     1       7.321  27.574  57.463  1.00  0.00     0.100 A 
HETATM   11  C   UNL     1       6.040  27.299  56.951  1.00  0.00    -0.004 A 
HETATM   12  N   UNL     1       8.313  26.658  57.480  1.00  0.00    -0.257 NA
HETATM   13  C   UNL     1       5.054  28.299  56.951  1.00  0.00     0.014 A 
HETATM   14  C   UNL     1       5.801  26.016  56.441  1.00  0.00     0.015 A 
HETATM   15  C   UNL     1       5.337  29.572  57.455  1.00  0.00     0.013 A 
HETATM   16  C   UNL     1       6.818  25.068  56.453  1.00  0.00     0.020 A 
HETATM   17  C   UNL     1       8.044  25.432  56.977  1.00  0.00     0.117 A 
BRANCH   9  18
HETATM   18  O   UNL     1       8.835  29.111  58.441  1.00  0.00    -0.358 OA
HETATM   19  H   UNL     1       9.221  28.221  58.592  1.00  0.00     0.218 HD
ENDBRANCH   9  18
ENDBRANCH   1   8
BRANCH   1  20
HETATM   20  C   UNL     1       5.701  32.180  58.470  1.00  0.00    -0.031 A 
HETATM   21  C   UNL     1       5.263  32.844  57.311  1.00  0.00     0.009 A 
HETATM   22  C   UNL     1       4.144  33.681  57.345  1.00  0.00     0.001 A 
HETATM   23  C   UNL     1       3.447  33.871  58.535  1.00  0.00     0.000 A 
HETATM   24  C   UNL     1       3.860  33.219  59.693  1.00  0.00     0.001 A 
HETATM   25  C   UNL     1       4.974  32.378  59.660  1.00  0.00     0.009 A 
ENDBRANCH   1  20
TORSDOF 5
ENDMDL
MODEL 10
REMARK VINA RESULT:      -7.4      1.780      6.148
REMARK  5 active torsions:
REMARK  status: ('A' for Active; 'I' for Inactive)
REMARK    1  A    between atoms: C_2  and  C_3 
REMARK       I    between atoms: C_3  and  N_4 
REMARK    2  A    between atoms: N_4  and  C_5 
REMARK    3  A    between atoms: C_5  and  C_6 
REMARK    4  A    between atoms: C_5  and  C_17 
REMARK    5  A    between atoms: C_7  and  O_8 
ROOT
HETATM    1  C   UNL     1       6.168  26.385  54.330  1.00  0.00     0.154 C 
ENDROOT
BRANCH   1   2
HETATM    2  N   UNL     1       6.837  25.116  54.062  1.00  0.00    -0.348 N 
HETATM    3  C   UNL     1       6.932  24.120  55.003  1.00  0.00     0.218 C 
HETATM    4  O   UNL     1       6.510  24.215  56.150  1.00  0.00    -0.274 OA
HETATM    5  H   UNL     1       7.118  24.929  53.112  1.00  0.00     0.163 HD
BRANCH   3   6
HETATM    6  C   UNL     1       7.554  22.835  54.490  1.00  0.00     0.098 C 
HETATM    7  C   UNL     1       7.818  22.852  52.995  1.00  0.00     0.014 C 
ENDBRANCH   3   6
ENDBRANCH   1   2
BRANCH   1   8
HETATM    8  C   UNL     1       7.163  27.356  54.958  1.00  0.00     0.005 A 
HETATM    9  C   UNL     1       7.105  27.682  56.321  1.00  0.00     0.103 A 
HETATM   10  C   UNL     1       7.977  28.590  56.926  1.00  0.00     0.100 A 
HETATM   11  C   UNL     1       8.959  29.202  56.127  1.00  0.00    -0.004 A 
HETATM   12  N   UNL     1       7.840  28.852  58.245  1.00  0.00    -0.257 NA
HETATM   13  C   UNL     1       9.042  28.895  54.759  1.00  0.00     0.014 A 
HETATM   14  C   UNL     1       9.823  30.119  56.739  1.00  0.00     0.015 A 
HETATM   15  C   UNL     1       8.151  27.985  54.182  1.00  0.00     0.013 A 
HETATM   16  C   UNL     1       9.688  30.396  58.095  1.00  0.00     0.020 A 
HETATM   17  C   UNL     1       8.691  29.745  58.798  1.00  0.00     0.117 A 
BRANCH   9  18
HETATM   18  O   UNL     1       6.137  27.109  57.115  1.00  0.00    -0.358 OA
HETATM   19  H   UNL     1       5.901  27.815  57.754  1.00  0.00     0.218 HD
ENDBRANCH   9  18
ENDBRANCH   1   8
BRANCH   1  20
HETATM   20  C   UNL     1       5.509  26.986  53.084  1.00  0.00    -0.031 A 
HETATM   21  C   UNL     1       4.627  28.080  53.131  1.00  0.00     0.009 A 
HETATM   22  C   UNL     1       4.038  28.575  51.964  1.00  0.00     0.001 A 
HETATM   23  C   UNL     1       4.317  27.986  50.734  1.00  0.00     0.000 A 
HETATM   24  C   UNL     1       5.191  26.906  50.664  1.00  0.00     0.001 A 
HETATM   25  C   UNL     1       5.785  26.413  51.827  1.00  0.00     0.009 A 
ENDBRANCH   1  20
TORSDOF 5
ENDMDL
