MODEL 1
REMARK VINA RESULT:     -10.4      0.000      0.000
REMARK  8 active torsions:
REMARK  status: ('A' for Active; 'I' for Inactive)
REMARK    1  A    between atoms: O_2  and  C_3 
REMARK    2  A    between atoms: C_11  and  C_12 
REMARK       I    between atoms: C_12  and  N_13 
REMARK    3  A    between atoms: N_13  and  C_14 
REMARK    4  A    between atoms: C_14  and  C_15 
REMARK    5  A    between atoms: C_15  and  C_16 
REMARK    6  A    between atoms: C_16  and  C_17 
REMARK    7  A    between atoms: C_17  and  O_18 
REMARK    8  A    between atoms: O_18  and  C_19 
ROOT
HETATM    1  C   UNL     1       9.453  31.513  59.035  1.00  0.00     0.268 C 
HETATM    2  N   UNL     1       9.161  30.273  58.527  1.00  0.00    -0.345 N 
HETATM    3  O   UNL     1      10.216  32.292  58.472  1.00  0.00    -0.266 OA
HETATM    4  H   UNL     1       8.597  29.628  59.061  1.00  0.00     0.163 HD
ENDROOT
BRANCH   2   5
HETATM    5  C   UNL     1       9.830  29.784  57.353  1.00  0.00     0.217 C 
BRANCH   5   6
HETATM    6  C   UNL     1       8.859  28.981  56.503  1.00  0.00    -0.085 C 
BRANCH   6   7
HETATM    7  C   UNL     1       8.026  28.292  55.773  1.00  0.00    -0.078 C 
BRANCH   7   8
HETATM    8  C   UNL     1       7.056  27.490  54.923  1.00  0.00     0.269 C 
BRANCH   8   9
HETATM    9  O   UNL     1       6.725  26.296  55.627  1.00  0.00    -0.339 OA
BRANCH   9  10
HETATM   10  C   UNL     1       7.051  25.110  55.026  1.00  0.00     0.072 A 
HETATM   11  C   UNL     1       7.175  23.871  55.659  1.00  0.00     0.069 A 
HETATM   12  C   UNL     1       7.517  22.723  54.955  1.00  0.00     0.069 A 
HETATM   13  C   UNL     1       7.739  22.823  53.565  1.00  0.00    -0.007 A 
HETATM   14  N   UNL     1       7.626  21.556  55.615  1.00  0.00    -0.260 NA
HETATM   15  C   UNL     1       7.613  24.063  52.920  1.00  0.00     0.016 A 
HETATM   16  C   UNL     1       8.084  21.659  52.866  1.00  0.00     0.015 A 
HETATM   17  C   UNL     1       7.270  25.198  53.652  1.00  0.00     0.038 A 
HETATM   18  C   UNL     1       8.198  20.454  53.547  1.00  0.00     0.020 A 
HETATM   19  C   UNL     1       7.961  20.455  54.908  1.00  0.00     0.117 A 
ENDBRANCH   9  10
ENDBRANCH   8   9
ENDBRANCH   7   8
ENDBRANCH   6   7
ENDBRANCH   5   6
ENDBRANCH   2   5
BRANCH   1  20
HETATM   20  C   UNL     1       8.802  31.849  60.280  1.00  0.00     0.102 A 
HETATM   21  N   UNL     1       7.428  31.933  60.358  1.00  0.00    -0.351 N 
HETATM   22  C   UNL     1       7.020  32.251  61.631  1.00  0.00     0.045 A 
HETATM   23  H   UNL     1       6.816  31.769  59.569  1.00  0.00     0.166 HD
HETATM   24  C   UNL     1       5.727  32.416  62.151  1.00  0.00     0.067 A 
HETATM   25  C   UNL     1       8.170  32.402  62.398  1.00  0.00    -0.007 A 
HETATM   26  C   UNL     1       5.610  32.749  63.505  1.00  0.00     0.070 A 
HETATM   27  C   UNL     1       6.753  32.921  64.288  1.00  0.00     0.038 A 
HETATM   28  C   UNL     1       8.037  32.750  63.753  1.00  0.00     0.016 A 
HETATM   29  C   UNL     1       9.281  32.143  61.545  1.00  0.00     0.049 A 
BRANCH  26  30
HETATM   30  O   UNL     1       4.431  32.940  64.178  1.00  0.00    -0.356 OA
HETATM   31  C   UNL     1       4.457  33.845  65.274  1.00  0.00     0.210 C 
ENDBRANCH  26  30
ENDBRANCH   1  20
TORSDOF 8
ENDMDL
MODEL 2
REMARK VINA RESULT:      -9.7      1.558      1.694
REMARK  8 active torsions:
REMARK  status: ('A' for Active; 'I' for Inactive)
REMARK    1  A    between atoms: O_2  and  C_3 
REMARK    2  A    between atoms: C_11  and  C_12 
REMARK       I    between atoms: C_12  and  N_13 
REMARK    3  A    between atoms: N_13  and  C_14 
REMARK    4  A    between atoms: C_14  and  C_15 
REMARK    5  A    between atoms: C_15  and  C_16 
REMARK    6  A    between atoms: C_16  and  C_17 
REMARK    7  A    between atoms: C_17  and  O_18 
REMARK    8  A    between atoms: O_18  and  C_19 
ROOT
HETATM    1  C   UNL     1       7.434  31.589  59.291  1.00  0.00     0.268 C 
HETATM    2  N   UNL     1       8.368  30.601  59.109  1.00  0.00    -0.345 N 
HETATM    3  O   UNL     1       6.717  31.994  58.381  1.00  0.00    -0.266 OA
HETATM    4  H   UNL     1       8.996  30.356  59.859  1.00  0.00     0.163 HD
ENDROOT
BRANCH   2   5
HETATM    5  C   UNL     1       8.625  30.065  57.800  1.00  0.00     0.217 C 
BRANCH   5   6
HETATM    6  C   UNL     1       8.071  28.654  57.703  1.00  0.00    -0.085 C 
BRANCH   6   7
HETATM    7  C   UNL     1       7.595  27.442  57.620  1.00  0.00    -0.078 C 
BRANCH   7   8
HETATM    8  C   UNL     1       7.040  26.032  57.522  1.00  0.00     0.269 C 
BRANCH   8   9
HETATM    9  O   UNL     1       8.135  25.127  57.405  1.00  0.00    -0.339 OA
BRANCH   9  10
HETATM   10  C   UNL     1       8.100  24.241  56.363  1.00  0.00     0.072 A 
HETATM   11  C   UNL     1       8.500  22.903  56.404  1.00  0.00     0.069 A 
HETATM   12  C   UNL     1       8.428  22.085  55.283  1.00  0.00     0.069 A 
HETATM   13  C   UNL     1       7.935  22.631  54.079  1.00  0.00    -0.007 A 
HETATM   14  N   UNL     1       8.829  20.804  55.378  1.00  0.00    -0.260 NA
HETATM   15  C   UNL     1       7.528  23.972  54.029  1.00  0.00     0.016 A 
HETATM   16  C   UNL     1       7.868  21.797  52.955  1.00  0.00     0.015 A 
HETATM   17  C   UNL     1       7.612  24.770  55.169  1.00  0.00     0.038 A 
HETATM   18  C   UNL     1       8.283  20.475  53.051  1.00  0.00     0.020 A 
HETATM   19  C   UNL     1       8.751  20.031  54.273  1.00  0.00     0.117 A 
ENDBRANCH   9  10
ENDBRANCH   8   9
ENDBRANCH   7   8
ENDBRANCH   6   7
ENDBRANCH   5   6
ENDBRANCH   2   5
BRANCH   1  20
HETATM   20  C   UNL     1       7.345  32.127  60.629  1.00  0.00     0.102 A 
HETATM   21  N   UNL     1       6.309  32.965  60.986  1.00  0.00    -0.351 N 
HETATM   22  C   UNL     1       6.409  33.348  62.301  1.00  0.00     0.045 A 
HETATM   23  H   UNL     1       5.575  33.243  60.347  1.00  0.00     0.166 HD
HETATM   24  C   UNL     1       5.570  34.169  63.071  1.00  0.00     0.067 A 
HETATM   25  C   UNL     1       7.562  32.756  62.808  1.00  0.00    -0.007 A 
HETATM   26  C   UNL     1       5.927  34.392  64.405  1.00  0.00     0.070 A 
HETATM   27  C   UNL     1       7.089  33.821  64.928  1.00  0.00     0.038 A 
HETATM   28  C   UNL     1       7.914  33.001  64.146  1.00  0.00     0.016 A 
HETATM   29  C   UNL     1       8.138  31.989  61.755  1.00  0.00     0.049 A 
BRANCH  26  30
HETATM   30  O   UNL     1       5.222  35.158  65.298  1.00  0.00    -0.356 OA
HETATM   31  C   UNL     1       4.078  34.559  65.893  1.00  0.00     0.210 C 
ENDBRANCH  26  30
ENDBRANCH   1  20
TORSDOF 8
ENDMDL
MODEL 3
REMARK VINA RESULT:      -9.1      2.098     11.758
REMARK  8 active torsions:
REMARK  status: ('A' for Active; 'I' for Inactive)
REMARK    1  A    between atoms: O_2  and  C_3 
REMARK    2  A    between atoms: C_11  and  C_12 
REMARK       I    between atoms: C_12  and  N_13 
REMARK    3  A    between atoms: N_13  and  C_14 
REMARK    4  A    between atoms: C_14  and  C_15 
REMARK    5  A    between atoms: C_15  and  C_16 
REMARK    6  A    between atoms: C_16  and  C_17 
REMARK    7  A    between atoms: C_17  and  O_18 
REMARK    8  A    between atoms: O_18  and  C_19 
ROOT
HETATM    1  C   UNL     1       5.964  27.082  55.323  1.00  0.00     0.268 C 
HETATM    2  N   UNL     1       6.303  27.359  56.623  1.00  0.00    -0.345 N 
HETATM    3  O   UNL     1       5.294  27.849  54.639  1.00  0.00    -0.266 OA
HETATM    4  H   UNL     1       6.781  26.666  57.179  1.00  0.00     0.163 HD
ENDROOT
BRANCH   2   5
HETATM    5  C   UNL     1       5.788  28.528  57.282  1.00  0.00     0.217 C 
BRANCH   5   6
HETATM    6  C   UNL     1       6.938  29.372  57.807  1.00  0.00    -0.085 C 
BRANCH   6   7
HETATM    7  C   UNL     1       7.923  30.097  58.258  1.00  0.00    -0.078 C 
BRANCH   7   8
HETATM    8  C   UNL     1       9.072  30.941  58.783  1.00  0.00     0.269 C 
BRANCH   8   9
HETATM    9  O   UNL     1       8.567  32.235  59.104  1.00  0.00    -0.339 OA
BRANCH   9  10
HETATM   10  C   UNL     1       8.165  32.440  60.395  1.00  0.00     0.072 A 
HETATM   11  C   UNL     1       6.930  32.952  60.803  1.00  0.00     0.069 A 
HETATM   12  C   UNL     1       6.622  33.128  62.147  1.00  0.00     0.069 A 
HETATM   13  C   UNL     1       7.586  32.776  63.114  1.00  0.00    -0.007 A 
HETATM   14  N   UNL     1       5.419  33.628  62.483  1.00  0.00    -0.260 NA
HETATM   15  C   UNL     1       8.828  32.258  62.714  1.00  0.00     0.016 A 
HETATM   16  C   UNL     1       7.264  32.958  64.465  1.00  0.00     0.015 A 
HETATM   17  C   UNL     1       9.110  32.093  61.359  1.00  0.00     0.038 A 
HETATM   18  C   UNL     1       6.023  33.475  64.814  1.00  0.00     0.020 A 
HETATM   19  C   UNL     1       5.144  33.791  63.796  1.00  0.00     0.117 A 
ENDBRANCH   9  10
ENDBRANCH   8   9
ENDBRANCH   7   8
ENDBRANCH   6   7
ENDBRANCH   5   6
ENDBRANCH   2   5
BRANCH   1  20
HETATM   20  C   UNL     1       6.450  25.823  54.805  1.00  0.00     0.102 A 
HETATM   21  N   UNL     1       6.735  24.773  55.651  1.00  0.00    -0.351 N 
HETATM   22  C   UNL     1       7.169  23.674  54.952  1.00  0.00     0.045 A 
HETATM   23  H   UNL     1       6.624  24.824  56.656  1.00  0.00     0.166 HD
HETATM   24  C   UNL     1       7.544  22.400  55.410  1.00  0.00     0.067 A 
HETATM   25  C   UNL     1       7.189  24.031  53.608  1.00  0.00    -0.007 A 
HETATM   26  C   UNL     1       7.954  21.463  54.456  1.00  0.00     0.070 A 
HETATM   27  C   UNL     1       7.996  21.808  53.104  1.00  0.00     0.038 A 
HETATM   28  C   UNL     1       7.616  23.083  52.663  1.00  0.00     0.016 A 
HETATM   29  C   UNL     1       6.731  25.378  53.525  1.00  0.00     0.049 A 
BRANCH  26  30
HETATM   30  O   UNL     1       8.345  20.176  54.724  1.00  0.00    -0.356 OA
HETATM   31  C   UNL     1       8.640  19.865  56.079  1.00  0.00     0.210 C 
ENDBRANCH  26  30
ENDBRANCH   1  20
TORSDOF 8
ENDMDL
MODEL 4
REMARK VINA RESULT:      -9.0      2.298      3.327
REMARK  8 active torsions:
REMARK  status: ('A' for Active; 'I' for Inactive)
REMARK    1  A    between atoms: O_2  and  C_3 
REMARK    2  A    between atoms: C_11  and  C_12 
REMARK       I    between atoms: C_12  and  N_13 
REMARK    3  A    between atoms: N_13  and  C_14 
REMARK    4  A    between atoms: C_14  and  C_15 
REMARK    5  A    between atoms: C_15  and  C_16 
REMARK    6  A    between atoms: C_16  and  C_17 
REMARK    7  A    between atoms: C_17  and  O_18 
REMARK    8  A    between atoms: O_18  and  C_19 
ROOT
HETATM    1  C   UNL     1       7.716  31.284  59.297  1.00  0.00     0.268 C 
HETATM    2  N   UNL     1       8.687  30.324  59.172  1.00  0.00    -0.345 N 
HETATM    3  O   UNL     1       7.077  31.704  58.337  1.00  0.00    -0.266 OA
HETATM    4  H   UNL     1       9.249  30.066  59.969  1.00  0.00     0.163 HD
ENDROOT
BRANCH   2   5
HETATM    5  C   UNL     1       9.079  29.840  57.876  1.00  0.00     0.217 C 
BRANCH   5   6
HETATM    6  C   UNL     1       8.401  28.508  57.597  1.00  0.00    -0.085 C 
BRANCH   6   7
HETATM    7  C   UNL     1       7.819  27.367  57.357  1.00  0.00    -0.078 C 
BRANCH   7   8
HETATM    8  C   UNL     1       7.142  26.036  57.076  1.00  0.00     0.269 C 
BRANCH   8   9
HETATM    9  O   UNL     1       7.768  25.446  55.939  1.00  0.00    -0.339 OA
BRANCH   9  10
HETATM   10  C   UNL     1       7.139  25.603  54.734  1.00  0.00     0.072 A 
HETATM   11  C   UNL     1       6.872  26.817  54.095  1.00  0.00     0.069 A 
HETATM   12  C   UNL     1       6.219  26.867  52.869  1.00  0.00     0.069 A 
HETATM   13  C   UNL     1       5.823  25.656  52.264  1.00  0.00    -0.007 A 
HETATM   14  N   UNL     1       5.985  28.063  52.299  1.00  0.00    -0.260 NA
HETATM   15  C   UNL     1       6.090  24.432  52.897  1.00  0.00     0.016 A 
HETATM   16  C   UNL     1       5.165  25.719  51.028  1.00  0.00     0.015 A 
HETATM   17  C   UNL     1       6.745  24.412  54.127  1.00  0.00     0.038 A 
HETATM   18  C   UNL     1       4.922  26.953  50.439  1.00  0.00     0.020 A 
HETATM   19  C   UNL     1       5.348  28.085  51.108  1.00  0.00     0.117 A 
ENDBRANCH   9  10
ENDBRANCH   8   9
ENDBRANCH   7   8
ENDBRANCH   6   7
ENDBRANCH   5   6
ENDBRANCH   2   5
BRANCH   1  20
HETATM   20  C   UNL     1       7.488  31.772  60.638  1.00  0.00     0.102 A 
HETATM   21  N   UNL     1       6.210  31.873  61.145  1.00  0.00    -0.351 N 
HETATM   22  C   UNL     1       6.222  32.345  62.435  1.00  0.00     0.045 A 
HETATM   23  H   UNL     1       5.383  31.618  60.621  1.00  0.00     0.166 HD
HETATM   24  C   UNL     1       5.160  32.580  63.322  1.00  0.00     0.067 A 
HETATM   25  C   UNL     1       7.552  32.582  62.767  1.00  0.00    -0.007 A 
HETATM   26  C   UNL     1       5.473  33.075  64.593  1.00  0.00     0.070 A 
HETATM   27  C   UNL     1       6.801  33.334  64.939  1.00  0.00     0.038 A 
HETATM   28  C   UNL     1       7.850  33.092  64.042  1.00  0.00     0.016 A 
HETATM   29  C   UNL     1       8.339  32.214  61.637  1.00  0.00     0.049 A 
BRANCH  26  30
HETATM   30  O   UNL     1       4.566  33.353  65.583  1.00  0.00    -0.356 OA
HETATM   31  C   UNL     1       4.592  34.667  66.125  1.00  0.00     0.210 C 
ENDBRANCH  26  30
ENDBRANCH   1  20
TORSDOF 8
ENDMDL
MODEL 5
REMARK VINA RESULT:      -8.8      2.353     11.944
REMARK  8 active torsions:
REMARK  status: ('A' for Active; 'I' for Inactive)
REMARK    1  A    between atoms: O_2  and  C_3 
REMARK    2  A    between atoms: C_11  and  C_12 
REMARK       I    between atoms: C_12  and  N_13 
REMARK    3  A    between atoms: N_13  and  C_14 
REMARK    4  A    between atoms: C_14  and  C_15 
REMARK    5  A    between atoms: C_15  and  C_16 
REMARK    6  A    between atoms: C_16  and  C_17 
REMARK    7  A    between atoms: C_17  and  O_18 
REMARK    8  A    between atoms: O_18  and  C_19 
ROOT
HETATM    1  C   UNL     1       5.560  27.989  56.088  1.00  0.00     0.268 C 
HETATM    2  N   UNL     1       6.371  29.056  56.378  1.00  0.00    -0.345 N 
HETATM    3  O   UNL     1       4.336  28.076  56.076  1.00  0.00    -0.266 OA
HETATM    4  H   UNL     1       7.368  28.925  56.462  1.00  0.00     0.163 HD
ENDROOT
BRANCH   2   5
HETATM    5  C   UNL     1       5.811  30.313  56.793  1.00  0.00     0.217 C 
BRANCH   5   6
HETATM    6  C   UNL     1       6.601  30.868  57.966  1.00  0.00    -0.085 C 
BRANCH   6   7
HETATM    7  C   UNL     1       7.278  31.345  58.973  1.00  0.00    -0.078 C 
BRANCH   7   8
HETATM    8  C   UNL     1       8.066  31.903  60.146  1.00  0.00     0.269 C 
BRANCH   8   9
HETATM    9  O   UNL     1       7.687  31.189  61.320  1.00  0.00    -0.339 OA
BRANCH   9  10
HETATM   10  C   UNL     1       7.168  31.923  62.352  1.00  0.00     0.072 A 
HETATM   11  C   UNL     1       5.822  32.249  62.537  1.00  0.00     0.069 A 
HETATM   12  C   UNL     1       5.398  33.008  63.621  1.00  0.00     0.069 A 
HETATM   13  C   UNL     1       6.360  33.453  64.553  1.00  0.00    -0.007 A 
HETATM   14  N   UNL     1       4.090  33.296  63.749  1.00  0.00    -0.260 NA
HETATM   15  C   UNL     1       7.713  33.127  64.377  1.00  0.00     0.016 A 
HETATM   16  C   UNL     1       5.920  34.217  65.642  1.00  0.00     0.015 A 
HETATM   17  C   UNL     1       8.110  32.365  63.280  1.00  0.00     0.038 A 
HETATM   18  C   UNL     1       4.570  34.516  65.774  1.00  0.00     0.020 A 
HETATM   19  C   UNL     1       3.704  34.037  64.811  1.00  0.00     0.117 A 
ENDBRANCH   9  10
ENDBRANCH   8   9
ENDBRANCH   7   8
ENDBRANCH   6   7
ENDBRANCH   5   6
ENDBRANCH   2   5
BRANCH   1  20
HETATM   20  C   UNL     1       6.240  26.748  55.792  1.00  0.00     0.102 A 
HETATM   21  N   UNL     1       6.021  26.090  54.601  1.00  0.00    -0.351 N 
HETATM   22  C   UNL     1       6.774  24.943  54.520  1.00  0.00     0.045 A 
HETATM   23  H   UNL     1       5.389  26.428  53.887  1.00  0.00     0.166 HD
HETATM   24  C   UNL     1       6.872  23.996  53.489  1.00  0.00     0.067 A 
HETATM   25  C   UNL     1       7.486  24.843  55.710  1.00  0.00    -0.007 A 
HETATM   26  C   UNL     1       7.729  22.909  53.686  1.00  0.00     0.070 A 
HETATM   27  C   UNL     1       8.441  22.782  54.881  1.00  0.00     0.038 A 
HETATM   28  C   UNL     1       8.334  23.738  55.899  1.00  0.00     0.016 A 
HETATM   29  C   UNL     1       7.150  25.981  56.499  1.00  0.00     0.049 A 
BRANCH  26  30
HETATM   30  O   UNL     1       7.951  21.898  52.786  1.00  0.00    -0.356 OA
HETATM   31  C   UNL     1       7.852  20.568  53.278  1.00  0.00     0.210 C 
ENDBRANCH  26  30
ENDBRANCH   1  20
TORSDOF 8
ENDMDL
MODEL 6
REMARK VINA RESULT:      -8.6      1.881      2.636
REMARK  8 active torsions:
REMARK  status: ('A' for Active; 'I' for Inactive)
REMARK    1  A    between atoms: O_2  and  C_3 
REMARK    2  A    between atoms: C_11  and  C_12 
REMARK       I    between atoms: C_12  and  N_13 
REMARK    3  A    between atoms: N_13  and  C_14 
REMARK    4  A    between atoms: C_14  and  C_15 
REMARK    5  A    between atoms: C_15  and  C_16 
REMARK    6  A    between atoms: C_16  and  C_17 
REMARK    7  A    between atoms: C_17  and  O_18 
REMARK    8  A    between atoms: O_18  and  C_19 
ROOT
HETATM    1  C   UNL     1       6.719  31.619  59.080  1.00  0.00     0.268 C 
HETATM    2  N   UNL     1       7.559  30.657  59.582  1.00  0.00    -0.345 N 
HETATM    3  O   UNL     1       6.650  31.872  57.881  1.00  0.00    -0.266 OA
HETATM    4  H   UNL     1       7.650  30.538  60.579  1.00  0.00     0.163 HD
ENDROOT
BRANCH   2   5
HETATM    5  C   UNL     1       8.485  29.970  58.724  1.00  0.00     0.217 C 
BRANCH   5   6
HETATM    6  C   UNL     1       7.787  28.808  58.037  1.00  0.00    -0.085 C 
BRANCH   6   7
HETATM    7  C   UNL     1       7.188  27.811  57.447  1.00  0.00    -0.078 C 
BRANCH   7   8
HETATM    8  C   UNL     1       6.492  26.649  56.759  1.00  0.00     0.269 C 
BRANCH   8   9
HETATM    9  O   UNL     1       7.286  26.247  55.646  1.00  0.00    -0.339 OA
BRANCH   9  10
HETATM   10  C   UNL     1       7.597  24.917  55.554  1.00  0.00     0.072 A 
HETATM   11  C   UNL     1       7.479  24.120  54.413  1.00  0.00     0.069 A 
HETATM   12  C   UNL     1       7.818  22.773  54.427  1.00  0.00     0.069 A 
HETATM   13  C   UNL     1       8.293  22.207  55.628  1.00  0.00    -0.007 A 
HETATM   14  N   UNL     1       7.682  22.051  53.299  1.00  0.00    -0.260 NA
HETATM   15  C   UNL     1       8.417  23.000  56.779  1.00  0.00     0.016 A 
HETATM   16  C   UNL     1       8.630  20.847  55.630  1.00  0.00     0.015 A 
HETATM   17  C   UNL     1       8.069  24.349  56.736  1.00  0.00     0.038 A 
HETATM   18  C   UNL     1       8.490  20.100  54.467  1.00  0.00     0.020 A 
HETATM   19  C   UNL     1       8.017  20.742  53.339  1.00  0.00     0.117 A 
ENDBRANCH   9  10
ENDBRANCH   8   9
ENDBRANCH   7   8
ENDBRANCH   6   7
ENDBRANCH   5   6
ENDBRANCH   2   5
BRANCH   1  20
HETATM   20  C   UNL     1       5.915  32.319  60.055  1.00  0.00     0.102 A 
HETATM   21  N   UNL     1       6.016  32.022  61.398  1.00  0.00    -0.351 N 
HETATM   22  C   UNL     1       5.175  32.809  62.146  1.00  0.00     0.045 A 
HETATM   23  H   UNL     1       6.641  31.316  61.765  1.00  0.00     0.166 HD
HETATM   24  C   UNL     1       4.975  32.854  63.535  1.00  0.00     0.067 A 
HETATM   25  C   UNL     1       4.489  33.628  61.256  1.00  0.00    -0.007 A 
HETATM   26  C   UNL     1       4.037  33.768  64.026  1.00  0.00     0.070 A 
HETATM   27  C   UNL     1       3.326  34.587  63.147  1.00  0.00     0.038 A 
HETATM   28  C   UNL     1       3.540  34.532  61.763  1.00  0.00     0.016 A 
HETATM   29  C   UNL     1       4.963  33.318  59.948  1.00  0.00     0.049 A 
BRANCH  26  30
HETATM   30  O   UNL     1       3.721  33.950  65.348  1.00  0.00    -0.356 OA
HETATM   31  C   UNL     1       4.801  33.930  66.273  1.00  0.00     0.210 C 
ENDBRANCH  26  30
ENDBRANCH   1  20
TORSDOF 8
ENDMDL
MODEL 7
REMARK VINA RESULT:      -8.0      2.740      4.246
REMARK  8 active torsions:
REMARK  status: ('A' for Active; 'I' for Inactive)
REMARK    1  A    between atoms: O_2  and  C_3 
REMARK    2  A    between atoms: C_11  and  C_12 
REMARK       I    between atoms: C_12  and  N_13 
REMARK    3  A    between atoms: N_13  and  C_14 
REMARK    4  A    between atoms: C_14  and  C_15 
REMARK    5  A    between atoms: C_15  and  C_16 
REMARK    6  A    between atoms: C_16  and  C_17 
REMARK    7  A    between atoms: C_17  and  O_18 
REMARK    8  A    between atoms: O_18  and  C_19 
ROOT
HETATM    1  C   UNL     1       4.411  32.533  61.473  1.00  0.00     0.268 C 
HETATM    2  N   UNL     1       4.933  33.175  60.379  1.00  0.00    -0.345 N 
HETATM    3  O   UNL     1       3.536  31.677  61.379  1.00  0.00    -0.266 OA
HETATM    4  H   UNL     1       5.589  33.932  60.503  1.00  0.00     0.163 HD
ENDROOT
BRANCH   2   5
HETATM    5  C   UNL     1       4.392  32.949  59.067  1.00  0.00     0.217 C 
BRANCH   5   6
HETATM    6  C   UNL     1       5.164  31.838  58.375  1.00  0.00    -0.085 C 
BRANCH   6   7
HETATM    7  C   UNL     1       5.825  30.884  57.782  1.00  0.00    -0.078 C 
BRANCH   7   8
HETATM    8  C   UNL     1       6.595  29.772  57.090  1.00  0.00     0.269 C 
BRANCH   8   9
HETATM    9  O   UNL     1       5.799  28.589  57.122  1.00  0.00    -0.339 OA
BRANCH   9  10
HETATM   10  C   UNL     1       6.422  27.414  56.802  1.00  0.00     0.072 A 
HETATM   11  C   UNL     1       6.066  26.547  55.766  1.00  0.00     0.069 A 
HETATM   12  C   UNL     1       6.764  25.369  55.528  1.00  0.00     0.069 A 
HETATM   13  C   UNL     1       7.859  25.052  56.359  1.00  0.00    -0.007 A 
HETATM   14  N   UNL     1       6.376  24.570  54.518  1.00  0.00    -0.260 NA
HETATM   15  C   UNL     1       8.226  25.918  57.400  1.00  0.00     0.016 A 
HETATM   16  C   UNL     1       8.554  23.862  56.109  1.00  0.00     0.015 A 
HETATM   17  C   UNL     1       7.507  27.092  57.617  1.00  0.00     0.038 A 
HETATM   18  C   UNL     1       8.154  23.035  55.067  1.00  0.00     0.020 A 
HETATM   19  C   UNL     1       7.070  23.430  54.308  1.00  0.00     0.117 A 
ENDBRANCH   9  10
ENDBRANCH   8   9
ENDBRANCH   7   8
ENDBRANCH   6   7
ENDBRANCH   5   6
ENDBRANCH   2   5
BRANCH   1  20
HETATM   20  C   UNL     1       4.961  32.925  62.750  1.00  0.00     0.102 A 
HETATM   21  N   UNL     1       4.135  33.290  63.792  1.00  0.00    -0.351 N 
HETATM   22  C   UNL     1       4.861  33.612  64.913  1.00  0.00     0.045 A 
HETATM   23  H   UNL     1       3.126  33.304  63.722  1.00  0.00     0.166 HD
HETATM   24  C   UNL     1       4.428  34.014  66.187  1.00  0.00     0.067 A 
HETATM   25  C   UNL     1       6.204  33.474  64.579  1.00  0.00    -0.007 A 
HETATM   26  C   UNL     1       5.407  34.284  67.149  1.00  0.00     0.070 A 
HETATM   27  C   UNL     1       6.761  34.167  66.828  1.00  0.00     0.038 A 
HETATM   28  C   UNL     1       7.176  33.762  65.553  1.00  0.00     0.016 A 
HETATM   29  C   UNL     1       6.257  33.037  63.224  1.00  0.00     0.049 A 
BRANCH  26  30
HETATM   30  O   UNL     1       5.164  34.679  68.440  1.00  0.00    -0.356 OA
HETATM   31  C   UNL     1       6.297  35.010  69.232  1.00  0.00     0.210 C 
ENDBRANCH  26  30
ENDBRANCH   1  20
TORSDOF 8
ENDMDL
MODEL 8
REMARK VINA RESULT:      -8.0      2.901     11.393
REMARK  8 active torsions:
REMARK  status: ('A' for Active; 'I' for Inactive)
REMARK    1  A    between atoms: O_2  and  C_3 
REMARK    2  A    between atoms: C_11  and  C_12 
REMARK       I    between atoms: C_12  and  N_13 
REMARK    3  A    between atoms: N_13  and  C_14 
REMARK    4  A    between atoms: C_14  and  C_15 
REMARK    5  A    between atoms: C_15  and  C_16 
REMARK    6  A    between atoms: C_16  and  C_17 
REMARK    7  A    between atoms: C_17  and  O_18 
REMARK    8  A    between atoms: O_18  and  C_19 
ROOT
HETATM    1  C   UNL     1       6.522  29.065  56.723  1.00  0.00     0.268 C 
HETATM    2  N   UNL     1       5.245  29.241  56.254  1.00  0.00    -0.345 N 
HETATM    3  O   UNL     1       7.187  29.987  57.184  1.00  0.00    -0.266 OA
HETATM    4  H   UNL     1       4.762  28.477  55.805  1.00  0.00     0.163 HD
ENDROOT
BRANCH   2   5
HETATM    5  C   UNL     1       4.663  30.552  56.183  1.00  0.00     0.217 C 
BRANCH   5   6
HETATM    6  C   UNL     1       4.155  30.967  57.554  1.00  0.00    -0.085 C 
BRANCH   6   7
HETATM    7  C   UNL     1       3.717  31.322  58.730  1.00  0.00    -0.078 C 
BRANCH   7   8
HETATM    8  C   UNL     1       3.210  31.737  60.101  1.00  0.00     0.269 C 
BRANCH   8   9
HETATM    9  O   UNL     1       3.701  33.045  60.383  1.00  0.00    -0.339 OA
BRANCH   9  10
HETATM   10  C   UNL     1       4.520  33.179  61.471  1.00  0.00     0.072 A 
HETATM   11  C   UNL     1       4.112  33.369  62.793  1.00  0.00     0.069 A 
HETATM   12  C   UNL     1       5.029  33.500  63.828  1.00  0.00     0.069 A 
HETATM   13  C   UNL     1       6.405  33.435  63.524  1.00  0.00    -0.007 A 
HETATM   14  N   UNL     1       4.581  33.685  65.083  1.00  0.00    -0.260 NA
HETATM   15  C   UNL     1       6.825  33.240  62.200  1.00  0.00     0.016 A 
HETATM   16  C   UNL     1       7.321  33.568  64.576  1.00  0.00     0.015 A 
HETATM   17  C   UNL     1       5.882  33.113  61.181  1.00  0.00     0.038 A 
HETATM   18  C   UNL     1       6.859  33.760  65.872  1.00  0.00     0.020 A 
HETATM   19  C   UNL     1       5.493  33.810  66.071  1.00  0.00     0.117 A 
ENDBRANCH   9  10
ENDBRANCH   8   9
ENDBRANCH   7   8
ENDBRANCH   6   7
ENDBRANCH   5   6
ENDBRANCH   2   5
BRANCH   1  20
HETATM   20  C   UNL     1       7.038  27.718  56.641  1.00  0.00     0.102 A 
HETATM   21  N   UNL     1       6.769  26.923  55.548  1.00  0.00    -0.351 N 
HETATM   22  C   UNL     1       7.364  25.691  55.669  1.00  0.00     0.045 A 
HETATM   23  H   UNL     1       6.209  27.229  54.763  1.00  0.00     0.166 HD
HETATM   24  C   UNL     1       7.365  24.596  54.790  1.00  0.00     0.067 A 
HETATM   25  C   UNL     1       8.022  25.679  56.894  1.00  0.00    -0.007 A 
HETATM   26  C   UNL     1       8.064  23.450  55.182  1.00  0.00     0.070 A 
HETATM   27  C   UNL     1       8.718  23.412  56.416  1.00  0.00     0.038 A 
HETATM   28  C   UNL     1       8.709  24.515  57.281  1.00  0.00     0.016 A 
HETATM   29  C   UNL     1       7.818  26.954  57.494  1.00  0.00     0.049 A 
BRANCH  26  30
HETATM   30  O   UNL     1       8.176  22.297  54.448  1.00  0.00    -0.356 OA
HETATM   31  C   UNL     1       7.830  22.377  53.072  1.00  0.00     0.210 C 
ENDBRANCH  26  30
ENDBRANCH   1  20
TORSDOF 8
ENDMDL
MODEL 9
REMARK VINA RESULT:      -8.0      3.474      4.303
REMARK  8 active torsions:
REMARK  status: ('A' for Active; 'I' for Inactive)
REMARK    1  A    between atoms: O_2  and  C_3 
REMARK    2  A    between atoms: C_11  and  C_12 
REMARK       I    between atoms: C_12  and  N_13 
REMARK    3  A    between atoms: N_13  and  C_14 
REMARK    4  A    between atoms: C_14  and  C_15 
REMARK    5  A    between atoms: C_15  and  C_16 
REMARK    6  A    between atoms: C_16  and  C_17 
REMARK    7  A    between atoms: C_17  and  O_18 
REMARK    8  A    between atoms: O_18  and  C_19 
ROOT
HETATM    1  C   UNL     1       8.203  31.983  59.672  1.00  0.00     0.268 C 
HETATM    2  N   UNL     1       9.525  31.638  59.544  1.00  0.00    -0.345 N 
HETATM    3  O   UNL     1       7.428  31.987  58.721  1.00  0.00    -0.266 OA
HETATM    4  H   UNL     1      10.149  31.729  60.331  1.00  0.00     0.163 HD
ENDROOT
BRANCH   2   5
HETATM    5  C   UNL     1      10.091  31.368  58.251  1.00  0.00     0.217 C 
BRANCH   5   6
HETATM    6  C   UNL     1       9.600  30.022  57.744  1.00  0.00    -0.085 C 
BRANCH   6   7
HETATM    7  C   UNL     1       9.178  28.867  57.309  1.00  0.00    -0.078 C 
BRANCH   7   8
HETATM    8  C   UNL     1       8.687  27.522  56.802  1.00  0.00     0.269 C 
BRANCH   8   9
HETATM    9  O   UNL     1       7.292  27.423  57.076  1.00  0.00    -0.339 OA
BRANCH   9  10
HETATM   10  C   UNL     1       6.435  27.813  56.083  1.00  0.00     0.072 A 
HETATM   11  C   UNL     1       6.722  27.857  54.716  1.00  0.00     0.069 A 
HETATM   12  C   UNL     1       5.778  28.275  53.786  1.00  0.00     0.069 A 
HETATM   13  C   UNL     1       4.501  28.661  54.245  1.00  0.00    -0.007 A 
HETATM   14  N   UNL     1       6.109  28.301  52.482  1.00  0.00    -0.260 NA
HETATM   15  C   UNL     1       4.203  28.618  55.615  1.00  0.00     0.016 A 
HETATM   16  C   UNL     1       3.559  29.082  53.297  1.00  0.00     0.015 A 
HETATM   17  C   UNL     1       5.169  28.195  56.526  1.00  0.00     0.038 A 
HETATM   18  C   UNL     1       3.899  29.109  51.951  1.00  0.00     0.020 A 
HETATM   19  C   UNL     1       5.174  28.713  51.598  1.00  0.00     0.117 A 
ENDBRANCH   9  10
ENDBRANCH   8   9
ENDBRANCH   7   8
ENDBRANCH   6   7
ENDBRANCH   5   6
ENDBRANCH   2   5
BRANCH   1  20
HETATM   20  C   UNL     1       7.776  32.340  61.006  1.00  0.00     0.102 A 
HETATM   21  N   UNL     1       6.441  32.532  61.292  1.00  0.00    -0.351 N 
HETATM   22  C   UNL     1       6.257  32.852  62.615  1.00  0.00     0.045 A 
HETATM   23  H   UNL     1       5.706  32.436  60.604  1.00  0.00     0.166 HD
HETATM   24  C   UNL     1       5.075  33.107  63.328  1.00  0.00     0.067 A 
HETATM   25  C   UNL     1       7.518  32.892  63.201  1.00  0.00    -0.007 A 
HETATM   26  C   UNL     1       5.191  33.417  64.688  1.00  0.00     0.070 A 
HETATM   27  C   UNL     1       6.450  33.478  65.290  1.00  0.00     0.038 A 
HETATM   28  C   UNL     1       7.620  33.218  64.565  1.00  0.00     0.016 A 
HETATM   29  C   UNL     1       8.463  32.565  62.186  1.00  0.00     0.049 A 
BRANCH  26  30
HETATM   30  O   UNL     1       4.146  33.685  65.534  1.00  0.00    -0.356 OA
HETATM   31  C   UNL     1       3.413  34.878  65.288  1.00  0.00     0.210 C 
ENDBRANCH  26  30
ENDBRANCH   1  20
TORSDOF 8
ENDMDL
MODEL 10
REMARK VINA RESULT:      -7.9      2.596      3.209
REMARK  8 active torsions:
REMARK  status: ('A' for Active; 'I' for Inactive)
REMARK    1  A    between atoms: O_2  and  C_3 
REMARK    2  A    between atoms: C_11  and  C_12 
REMARK       I    between atoms: C_12  and  N_13 
REMARK    3  A    between atoms: N_13  and  C_14 
REMARK    4  A    between atoms: C_14  and  C_15 
REMARK    5  A    between atoms: C_15  and  C_16 
REMARK    6  A    between atoms: C_16  and  C_17 
REMARK    7  A    between atoms: C_17  and  O_18 
REMARK    8  A    between atoms: O_18  and  C_19 
ROOT
HETATM    1  C   UNL     1       6.553  31.596  59.074  1.00  0.00     0.268 C 
HETATM    2  N   UNL     1       7.348  30.631  59.636  1.00  0.00    -0.345 N 
HETATM    3  O   UNL     1       6.615  31.891  57.885  1.00  0.00    -0.266 OA
HETATM    4  H   UNL     1       7.328  30.477  60.633  1.00  0.00     0.163 HD
ENDROOT
BRANCH   2   5
HETATM    5  C   UNL     1       8.380  29.991  58.868  1.00  0.00     0.217 C 
BRANCH   5   6
HETATM    6  C   UNL     1       7.800  28.808  58.110  1.00  0.00    -0.085 C 
BRANCH   6   7
HETATM    7  C   UNL     1       7.302  27.793  57.459  1.00  0.00    -0.078 C 
BRANCH   7   8
HETATM    8  C   UNL     1       6.724  26.611  56.701  1.00  0.00     0.269 C 
BRANCH   8   9
HETATM    9  O   UNL     1       7.657  26.225  55.694  1.00  0.00    -0.339 OA
BRANCH   9  10
HETATM   10  C   UNL     1       7.870  24.884  55.527  1.00  0.00     0.072 A 
HETATM   11  C   UNL     1       7.752  24.173  54.330  1.00  0.00     0.069 A 
HETATM   12  C   UNL     1       7.986  22.804  54.269  1.00  0.00     0.069 A 
HETATM   13  C   UNL     1       8.354  22.127  55.451  1.00  0.00    -0.007 A 
HETATM   14  N   UNL     1       7.855  22.168  53.091  1.00  0.00    -0.260 NA
HETATM   15  C   UNL     1       8.478  22.834  56.657  1.00  0.00     0.016 A 
HETATM   16  C   UNL     1       8.587  20.748  55.377  1.00  0.00     0.015 A 
HETATM   17  C   UNL     1       8.236  24.206  56.689  1.00  0.00     0.038 A 
HETATM   18  C   UNL     1       8.451  20.090  54.161  1.00  0.00     0.020 A 
HETATM   19  C   UNL     1       8.087  20.838  53.058  1.00  0.00     0.117 A 
ENDBRANCH   9  10
ENDBRANCH   8   9
ENDBRANCH   7   8
ENDBRANCH   6   7
ENDBRANCH   5   6
ENDBRANCH   2   5
BRANCH   1  20
HETATM   20  C   UNL     1       5.628  32.247  59.974  1.00  0.00     0.102 A 
HETATM   21  N   UNL     1       4.441  32.771  59.509  1.00  0.00    -0.351 N 
HETATM   22  C   UNL     1       3.710  33.330  60.529  1.00  0.00     0.045 A 
HETATM   23  H   UNL     1       4.159  32.732  58.538  1.00  0.00     0.166 HD
HETATM   24  C   UNL     1       2.450  33.951  60.505  1.00  0.00     0.067 A 
HETATM   25  C   UNL     1       4.460  33.184  61.691  1.00  0.00    -0.007 A 
HETATM   26  C   UNL     1       1.945  34.439  61.715  1.00  0.00     0.070 A 
HETATM   27  C   UNL     1       2.690  34.316  62.889  1.00  0.00     0.038 A 
HETATM   28  C   UNL     1       3.944  33.692  62.896  1.00  0.00     0.016 A 
HETATM   29  C   UNL     1       5.657  32.499  61.335  1.00  0.00     0.049 A 
BRANCH  26  30
HETATM   30  O   UNL     1       0.735  35.063  61.876  1.00  0.00    -0.356 OA
HETATM   31  C   UNL     1      -0.310  34.673  60.993  1.00  0.00     0.210 C 
ENDBRANCH  26  30
ENDBRANCH   1  20
TORSDOF 8
ENDMDL
