MODEL 1
REMARK VINA RESULT:      -9.5      0.000      0.000
REMARK  6 active torsions:
REMARK  status: ('A' for Active; 'I' for Inactive)
REMARK    1  A    between atoms: C_2  and  O_3 
REMARK    2  A    between atoms: O_3  and  C_4 
REMARK    3  A    between atoms: C_5  and  O_6 
REMARK    4  A    between atoms: O_6  and  C_7 
REMARK    5  A    between atoms: C_7  and  C_8 
REMARK    6  A    between atoms: C_16  and  C_17 
ROOT
HETATM    1  C   UNL     1       5.251  26.995  53.420  1.00  0.00     0.102 A 
HETATM    2  C   UNL     1       5.503  25.673  53.035  1.00  0.00     0.102 A 
HETATM    3  C   UNL     1       5.593  25.361  51.672  1.00  0.00     0.040 A 
HETATM    4  C   UNL     1       5.499  26.358  50.699  1.00  0.00     0.014 A 
HETATM    5  C   UNL     1       5.315  27.699  51.060  1.00  0.00    -0.007 A 
HETATM    6  C   UNL     1       5.170  27.989  52.427  1.00  0.00     0.051 A 
ENDROOT
BRANCH   5   7
HETATM    7  C   UNL     1       5.195  28.778  49.988  1.00  0.00     0.264 C 
HETATM    8  O   UNL     1       3.830  29.183  49.781  1.00  0.00    -0.321 OA
HETATM    9  C   UNL     1       3.121  28.338  48.967  1.00  0.00     0.087 A 
HETATM   10  C   UNL     1       3.728  27.537  48.002  1.00  0.00     0.065 A 
HETATM   11  C   UNL     1       1.736  28.321  49.113  1.00  0.00     0.038 A 
HETATM   12  C   UNL     1       5.185  27.651  47.825  1.00  0.00     0.256 C 
HETATM   13  C   UNL     1       2.964  26.694  47.194  1.00  0.00     0.020 A 
HETATM   14  O   UNL     1       5.785  27.095  46.916  1.00  0.00    -0.267 OA
HETATM   15  N   UNL     1       5.818  28.448  48.734  1.00  0.00    -0.326 N 
HETATM   16  H   UNL     1       6.825  28.469  48.661  1.00  0.00     0.165 HD
HETATM   17  C   UNL     1       1.578  26.660  47.357  1.00  0.00     0.001 A 
HETATM   18  C   UNL     1       0.965  27.474  48.311  1.00  0.00     0.003 A 
ENDBRANCH   5   7
BRANCH   1  19
HETATM   19  O   UNL     1       5.069  27.514  54.673  1.00  0.00    -0.349 OA
BRANCH  19  20
HETATM   20  C   UNL     1       5.884  28.574  55.161  1.00  0.00     0.171 C 
HETATM   21  C   UNL     1       7.327  28.134  55.339  1.00  0.00     0.034 C 
ENDBRANCH  19  20
ENDBRANCH   1  19
BRANCH   2  22
HETATM   22  O   UNL     1       5.586  24.679  53.972  1.00  0.00    -0.344 OA
BRANCH  22  23
HETATM   23  C   UNL     1       6.884  24.535  54.557  1.00  0.00     0.214 C 
BRANCH  23  24
HETATM   24  C   UNL     1       7.328  23.104  54.379  1.00  0.00    -0.034 A 
HETATM   25  C   UNL     1       7.463  22.260  55.491  1.00  0.00     0.009 A 
HETATM   26  C   UNL     1       7.879  20.938  55.330  1.00  0.00     0.001 A 
HETATM   27  C   UNL     1       8.171  20.448  54.058  1.00  0.00     0.000 A 
HETATM   28  C   UNL     1       8.054  21.282  52.947  1.00  0.00     0.001 A 
HETATM   29  C   UNL     1       7.638  22.605  53.106  1.00  0.00     0.009 A 
ENDBRANCH  23  24
ENDBRANCH  22  23
ENDBRANCH   2  22
TORSDOF 6
ENDMDL
MODEL 2
REMARK VINA RESULT:      -9.2      1.842      2.344
REMARK  6 active torsions:
REMARK  status: ('A' for Active; 'I' for Inactive)
REMARK    1  A    between atoms: C_2  and  O_3 
REMARK    2  A    between atoms: O_3  and  C_4 
REMARK    3  A    between atoms: C_5  and  O_6 
REMARK    4  A    between atoms: O_6  and  C_7 
REMARK    5  A    between atoms: C_7  and  C_8 
REMARK    6  A    between atoms: C_16  and  C_17 
ROOT
HETATM    1  C   UNL     1       7.241  27.350  54.107  1.00  0.00     0.102 A 
HETATM    2  C   UNL     1       6.916  25.991  54.029  1.00  0.00     0.102 A 
HETATM    3  C   UNL     1       5.738  25.603  53.377  1.00  0.00     0.040 A 
HETATM    4  C   UNL     1       4.919  26.546  52.751  1.00  0.00     0.014 A 
HETATM    5  C   UNL     1       5.257  27.906  52.755  1.00  0.00    -0.007 A 
HETATM    6  C   UNL     1       6.411  28.286  53.461  1.00  0.00     0.051 A 
ENDROOT
BRANCH   5   7
HETATM    7  C   UNL     1       4.347  28.930  52.084  1.00  0.00     0.264 C 
HETATM    8  O   UNL     1       3.484  28.323  51.105  1.00  0.00    -0.321 OA
HETATM    9  C   UNL     1       4.088  28.109  49.893  1.00  0.00     0.087 A 
HETATM   10  C   UNL     1       5.167  28.870  49.445  1.00  0.00     0.065 A 
HETATM   11  C   UNL     1       3.564  27.104  49.083  1.00  0.00     0.038 A 
HETATM   12  C   UNL     1       5.633  29.977  50.295  1.00  0.00     0.256 C 
HETATM   13  C   UNL     1       5.748  28.617  48.201  1.00  0.00     0.020 A 
HETATM   14  O   UNL     1       6.477  30.782  49.927  1.00  0.00    -0.267 OA
HETATM   15  N   UNL     1       5.033  30.061  51.518  1.00  0.00    -0.326 N 
HETATM   16  H   UNL     1       5.402  30.773  52.132  1.00  0.00     0.165 HD
HETATM   17  C   UNL     1       5.237  27.594  47.402  1.00  0.00     0.001 A 
HETATM   18  C   UNL     1       4.145  26.842  47.840  1.00  0.00     0.003 A 
ENDBRANCH   5   7
BRANCH   1  19
HETATM   19  O   UNL     1       8.296  27.956  54.733  1.00  0.00    -0.349 OA
BRANCH  19  20
HETATM   20  C   UNL     1       8.097  28.848  55.824  1.00  0.00     0.171 C 
HETATM   21  C   UNL     1       9.035  28.537  56.979  1.00  0.00     0.034 C 
ENDBRANCH  19  20
ENDBRANCH   1  19
BRANCH   2  22
HETATM   22  O   UNL     1       7.698  25.052  54.646  1.00  0.00    -0.344 OA
BRANCH  22  23
HETATM   23  C   UNL     1       6.960  24.020  55.307  1.00  0.00     0.214 C 
BRANCH  23  24
HETATM   24  C   UNL     1       7.488  22.686  54.837  1.00  0.00    -0.034 A 
HETATM   25  C   UNL     1       7.791  21.678  55.764  1.00  0.00     0.009 A 
HETATM   26  C   UNL     1       8.285  20.446  55.333  1.00  0.00     0.001 A 
HETATM   27  C   UNL     1       8.487  20.212  53.974  1.00  0.00     0.000 A 
HETATM   28  C   UNL     1       8.204  21.211  53.046  1.00  0.00     0.001 A 
HETATM   29  C   UNL     1       7.709  22.445  53.474  1.00  0.00     0.009 A 
ENDBRANCH  23  24
ENDBRANCH  22  23
ENDBRANCH   2  22
TORSDOF 6
ENDMDL
MODEL 3
REMARK VINA RESULT:      -9.2      4.213      7.707
REMARK  6 active torsions:
REMARK  status: ('A' for Active; 'I' for Inactive)
REMARK    1  A    between atoms: C_2  and  O_3 
REMARK    2  A    between atoms: O_3  and  C_4 
REMARK    3  A    between atoms: C_5  and  O_6 
REMARK    4  A    between atoms: O_6  and  C_7 
REMARK    5  A    between atoms: C_7  and  C_8 
REMARK    6  A    between atoms: C_16  and  C_17 
ROOT
HETATM    1  C   UNL     1       6.568  25.675  55.744  1.00  0.00     0.102 A 
HETATM    2  C   UNL     1       7.360  25.113  56.753  1.00  0.00     0.102 A 
HETATM    3  C   UNL     1       8.328  25.904  57.386  1.00  0.00     0.040 A 
HETATM    4  C   UNL     1       8.470  27.257  57.069  1.00  0.00     0.014 A 
HETATM    5  C   UNL     1       7.644  27.861  56.113  1.00  0.00    -0.007 A 
HETATM    6  C   UNL     1       6.716  27.042  55.446  1.00  0.00     0.051 A 
ENDROOT
BRANCH   5   7
HETATM    7  C   UNL     1       7.819  29.335  55.762  1.00  0.00     0.264 C 
HETATM    8  O   UNL     1       8.903  29.938  56.491  1.00  0.00    -0.321 OA
HETATM    9  C   UNL     1       8.570  30.312  57.768  1.00  0.00     0.087 A 
HETATM   10  C   UNL     1       7.264  30.623  58.143  1.00  0.00     0.065 A 
HETATM   11  C   UNL     1       9.601  30.405  58.699  1.00  0.00     0.038 A 
HETATM   12  C   UNL     1       6.220  30.594  57.107  1.00  0.00     0.256 C 
HETATM   13  C   UNL     1       6.973  31.002  59.455  1.00  0.00     0.020 A 
HETATM   14  O   UNL     1       5.078  30.982  57.309  1.00  0.00    -0.267 OA
HETATM   15  N   UNL     1       6.625  30.127  55.890  1.00  0.00    -0.326 N 
HETATM   16  H   UNL     1       5.894  30.036  55.198  1.00  0.00     0.165 HD
HETATM   17  C   UNL     1       8.003  31.071  60.393  1.00  0.00     0.001 A 
HETATM   18  C   UNL     1       9.315  30.777  60.015  1.00  0.00     0.003 A 
ENDBRANCH   5   7
BRANCH   1  19
HETATM   19  O   UNL     1       5.613  25.086  54.961  1.00  0.00    -0.349 OA
BRANCH  19  20
HETATM   20  C   UNL     1       5.181  25.683  53.744  1.00  0.00     0.171 C 
HETATM   21  C   UNL     1       5.255  24.705  52.584  1.00  0.00     0.034 C 
ENDBRANCH  19  20
ENDBRANCH   1  19
BRANCH   2  22
HETATM   22  O   UNL     1       7.245  23.787  57.069  1.00  0.00    -0.344 OA
BRANCH  22  23
HETATM   23  C   UNL     1       8.432  23.024  56.831  1.00  0.00     0.214 C 
BRANCH  23  24
HETATM   24  C   UNL     1       8.286  22.324  55.501  1.00  0.00    -0.034 A 
HETATM   25  C   UNL     1       8.419  23.042  54.304  1.00  0.00     0.009 A 
HETATM   26  C   UNL     1       8.279  22.399  53.073  1.00  0.00     0.001 A 
HETATM   27  C   UNL     1       7.998  21.034  53.027  1.00  0.00     0.000 A 
HETATM   28  C   UNL     1       7.849  20.314  54.211  1.00  0.00     0.001 A 
HETATM   29  C   UNL     1       7.989  20.956  55.443  1.00  0.00     0.009 A 
ENDBRANCH  23  24
ENDBRANCH  22  23
ENDBRANCH   2  22
TORSDOF 6
ENDMDL
MODEL 4
REMARK VINA RESULT:      -9.0      4.772      8.908
REMARK  6 active torsions:
REMARK  status: ('A' for Active; 'I' for Inactive)
REMARK    1  A    between atoms: C_2  and  O_3 
REMARK    2  A    between atoms: O_3  and  C_4 
REMARK    3  A    between atoms: C_5  and  O_6 
REMARK    4  A    between atoms: O_6  and  C_7 
REMARK    5  A    between atoms: C_7  and  C_8 
REMARK    6  A    between atoms: C_16  and  C_17 
ROOT
HETATM    1  C   UNL     1       6.512  29.956  57.166  1.00  0.00     0.102 A 
HETATM    2  C   UNL     1       7.828  29.766  57.604  1.00  0.00     0.102 A 
HETATM    3  C   UNL     1       8.288  28.465  57.850  1.00  0.00     0.040 A 
HETATM    4  C   UNL     1       7.474  27.357  57.605  1.00  0.00     0.014 A 
HETATM    5  C   UNL     1       6.177  27.516  57.102  1.00  0.00    -0.007 A 
HETATM    6  C   UNL     1       5.710  28.827  56.913  1.00  0.00     0.051 A 
ENDROOT
BRANCH   5   7
HETATM    7  C   UNL     1       5.290  26.299  56.854  1.00  0.00     0.264 C 
HETATM    8  O   UNL     1       5.932  25.074  57.253  1.00  0.00    -0.321 OA
HETATM    9  C   UNL     1       6.813  24.584  56.325  1.00  0.00     0.087 A 
HETATM   10  C   UNL     1       6.703  24.861  54.963  1.00  0.00     0.065 A 
HETATM   11  C   UNL     1       7.833  23.754  56.784  1.00  0.00     0.038 A 
HETATM   12  C   UNL     1       5.561  25.672  54.512  1.00  0.00     0.256 C 
HETATM   13  C   UNL     1       7.623  24.336  54.054  1.00  0.00     0.020 A 
HETATM   14  O   UNL     1       5.304  25.851  53.330  1.00  0.00    -0.267 OA
HETATM   15  N   UNL     1       4.787  26.188  55.511  1.00  0.00    -0.326 N 
HETATM   16  H   UNL     1       4.047  26.805  55.207  1.00  0.00     0.165 HD
HETATM   17  C   UNL     1       8.659  23.525  54.519  1.00  0.00     0.001 A 
HETATM   18  C   UNL     1       8.761  23.231  55.880  1.00  0.00     0.003 A 
ENDBRANCH   5   7
BRANCH   1  19
HETATM   19  O   UNL     1       5.839  31.121  56.919  1.00  0.00    -0.349 OA
BRANCH  19  20
HETATM   20  C   UNL     1       4.641  31.447  57.614  1.00  0.00     0.171 C 
HETATM   21  C   UNL     1       4.928  31.933  59.025  1.00  0.00     0.034 C 
ENDBRANCH  19  20
ENDBRANCH   1  19
BRANCH   2  22
HETATM   22  O   UNL     1       8.637  30.839  57.862  1.00  0.00    -0.344 OA
BRANCH  22  23
HETATM   23  C   UNL     1       9.583  30.618  58.911  1.00  0.00     0.214 C 
BRANCH  23  24
HETATM   24  C   UNL     1       8.999  31.153  60.196  1.00  0.00    -0.034 A 
HETATM   25  C   UNL     1       8.353  32.398  60.217  1.00  0.00     0.009 A 
HETATM   26  C   UNL     1       7.817  32.898  61.404  1.00  0.00     0.001 A 
HETATM   27  C   UNL     1       7.929  32.163  62.584  1.00  0.00     0.000 A 
HETATM   28  C   UNL     1       8.582  30.932  62.578  1.00  0.00     0.001 A 
HETATM   29  C   UNL     1       9.118  30.430  61.391  1.00  0.00     0.009 A 
ENDBRANCH  23  24
ENDBRANCH  22  23
ENDBRANCH   2  22
TORSDOF 6
ENDMDL
MODEL 5
REMARK VINA RESULT:      -8.9      5.039      9.405
REMARK  6 active torsions:
REMARK  status: ('A' for Active; 'I' for Inactive)
REMARK    1  A    between atoms: C_2  and  O_3 
REMARK    2  A    between atoms: O_3  and  C_4 
REMARK    3  A    between atoms: C_5  and  O_6 
REMARK    4  A    between atoms: O_6  and  C_7 
REMARK    5  A    between atoms: C_7  and  C_8 
REMARK    6  A    between atoms: C_16  and  C_17 
ROOT
HETATM    1  C   UNL     1       5.560  28.421  57.011  1.00  0.00     0.102 A 
HETATM    2  C   UNL     1       6.676  27.657  57.368  1.00  0.00     0.102 A 
HETATM    3  C   UNL     1       7.784  28.290  57.948  1.00  0.00     0.040 A 
HETATM    4  C   UNL     1       7.763  29.657  58.232  1.00  0.00     0.014 A 
HETATM    5  C   UNL     1       6.632  30.433  57.947  1.00  0.00    -0.007 A 
HETATM    6  C   UNL     1       5.551  29.796  57.314  1.00  0.00     0.051 A 
ENDROOT
BRANCH   5   7
HETATM    7  C   UNL     1       6.627  31.929  58.245  1.00  0.00     0.264 C 
HETATM    8  O   UNL     1       7.845  32.357  58.880  1.00  0.00    -0.321 OA
HETATM    9  C   UNL     1       7.877  32.118  60.230  1.00  0.00     0.087 A 
HETATM   10  C   UNL     1       6.722  32.026  61.005  1.00  0.00     0.065 A 
HETATM   11  C   UNL     1       9.128  31.998  60.830  1.00  0.00     0.038 A 
HETATM   12  C   UNL     1       5.426  32.245  60.344  1.00  0.00     0.256 C 
HETATM   13  C   UNL     1       6.805  31.785  62.377  1.00  0.00     0.020 A 
HETATM   14  O   UNL     1       4.374  32.320  60.963  1.00  0.00    -0.267 OA
HETATM   15  N   UNL     1       5.484  32.388  58.988  1.00  0.00    -0.326 N 
HETATM   16  H   UNL     1       4.589  32.464  58.524  1.00  0.00     0.165 HD
HETATM   17  C   UNL     1       8.058  31.640  62.974  1.00  0.00     0.001 A 
HETATM   18  C   UNL     1       9.217  31.750  62.202  1.00  0.00     0.003 A 
ENDBRANCH   5   7
BRANCH   1  19
HETATM   19  O   UNL     1       4.404  28.033  56.389  1.00  0.00    -0.349 OA
BRANCH  19  20
HETATM   20  C   UNL     1       4.096  28.456  55.066  1.00  0.00     0.171 C 
HETATM   21  C   UNL     1       5.075  27.885  54.054  1.00  0.00     0.034 C 
ENDBRANCH  19  20
ENDBRANCH   1  19
BRANCH   2  22
HETATM   22  O   UNL     1       6.721  26.318  57.088  1.00  0.00    -0.344 OA
BRANCH  22  23
HETATM   23  C   UNL     1       8.045  25.785  56.996  1.00  0.00     0.214 C 
BRANCH  23  24
HETATM   24  C   UNL     1       8.067  24.759  55.889  1.00  0.00    -0.034 A 
HETATM   25  C   UNL     1       7.274  24.933  54.745  1.00  0.00     0.009 A 
HETATM   26  C   UNL     1       7.288  23.983  53.723  1.00  0.00     0.001 A 
HETATM   27  C   UNL     1       8.087  22.847  53.837  1.00  0.00     0.000 A 
HETATM   28  C   UNL     1       8.868  22.656  54.976  1.00  0.00     0.001 A 
HETATM   29  C   UNL     1       8.856  23.605  55.999  1.00  0.00     0.009 A 
ENDBRANCH  23  24
ENDBRANCH  22  23
ENDBRANCH   2  22
TORSDOF 6
ENDMDL
MODEL 6
REMARK VINA RESULT:      -8.8      5.280      9.452
REMARK  6 active torsions:
REMARK  status: ('A' for Active; 'I' for Inactive)
REMARK    1  A    between atoms: C_2  and  O_3 
REMARK    2  A    between atoms: O_3  and  C_4 
REMARK    3  A    between atoms: C_5  and  O_6 
REMARK    4  A    between atoms: O_6  and  C_7 
REMARK    5  A    between atoms: C_7  and  C_8 
REMARK    6  A    between atoms: C_16  and  C_17 
ROOT
HETATM    1  C   UNL     1       7.632  28.824  57.111  1.00  0.00     0.102 A 
HETATM    2  C   UNL     1       6.497  28.021  56.947  1.00  0.00     0.102 A 
HETATM    3  C   UNL     1       5.238  28.534  57.287  1.00  0.00     0.040 A 
HETATM    4  C   UNL     1       5.094  29.851  57.726  1.00  0.00     0.014 A 
HETATM    5  C   UNL     1       6.204  30.698  57.835  1.00  0.00    -0.007 A 
HETATM    6  C   UNL     1       7.467  30.154  57.544  1.00  0.00     0.051 A 
ENDROOT
BRANCH   5   7
HETATM    7  C   UNL     1       6.037  32.131  58.332  1.00  0.00     0.264 C 
HETATM    8  O   UNL     1       7.265  32.664  58.860  1.00  0.00    -0.321 OA
HETATM    9  C   UNL     1       7.526  32.278  60.149  1.00  0.00     0.087 A 
HETATM   10  C   UNL     1       6.521  31.919  61.045  1.00  0.00     0.065 A 
HETATM   11  C   UNL     1       8.856  32.283  60.563  1.00  0.00     0.038 A 
HETATM   12  C   UNL     1       5.125  32.010  60.591  1.00  0.00     0.256 C 
HETATM   13  C   UNL     1       6.835  31.535  62.350  1.00  0.00     0.020 A 
HETATM   14  O   UNL     1       4.174  31.850  61.343  1.00  0.00    -0.267 OA
HETATM   15  N   UNL     1       4.963  32.318  59.271  1.00  0.00    -0.326 N 
HETATM   16  H   UNL     1       4.009  32.308  58.940  1.00  0.00     0.165 HD
HETATM   17  C   UNL     1       8.170  31.517  62.756  1.00  0.00     0.001 A 
HETATM   18  C   UNL     1       9.178  31.894  61.866  1.00  0.00     0.003 A 
ENDBRANCH   5   7
BRANCH   1  19
HETATM   19  O   UNL     1       8.949  28.520  56.901  1.00  0.00    -0.349 OA
BRANCH  19  20
HETATM   20  C   UNL     1       9.828  29.438  56.262  1.00  0.00     0.171 C 
HETATM   21  C   UNL     1      11.084  29.676  57.085  1.00  0.00     0.034 C 
ENDBRANCH  19  20
ENDBRANCH   1  19
BRANCH   2  22
HETATM   22  O   UNL     1       6.619  26.724  56.530  1.00  0.00    -0.344 OA
BRANCH  22  23
HETATM   23  C   UNL     1       6.032  26.464  55.251  1.00  0.00     0.214 C 
BRANCH  23  24
HETATM   24  C   UNL     1       6.749  25.290  54.630  1.00  0.00    -0.034 A 
HETATM   25  C   UNL     1       7.237  25.372  53.318  1.00  0.00     0.009 A 
HETATM   26  C   UNL     1       7.896  24.286  52.739  1.00  0.00     0.001 A 
HETATM   27  C   UNL     1       8.066  23.107  53.462  1.00  0.00     0.000 A 
HETATM   28  C   UNL     1       7.573  23.010  54.761  1.00  0.00     0.001 A 
HETATM   29  C   UNL     1       6.914  24.095  55.343  1.00  0.00     0.009 A 
ENDBRANCH  23  24
ENDBRANCH  22  23
ENDBRANCH   2  22
TORSDOF 6
ENDMDL
MODEL 7
REMARK VINA RESULT:      -8.8      2.722      8.070
REMARK  6 active torsions:
REMARK  status: ('A' for Active; 'I' for Inactive)
REMARK    1  A    between atoms: C_2  and  O_3 
REMARK    2  A    between atoms: O_3  and  C_4 
REMARK    3  A    between atoms: C_5  and  O_6 
REMARK    4  A    between atoms: O_6  and  C_7 
REMARK    5  A    between atoms: C_7  and  C_8 
REMARK    6  A    between atoms: C_16  and  C_17 
ROOT
HETATM    1  C   UNL     1       6.179  24.722  53.000  1.00  0.00     0.102 A 
HETATM    2  C   UNL     1       5.629  25.797  52.292  1.00  0.00     0.102 A 
HETATM    3  C   UNL     1       4.970  26.815  52.994  1.00  0.00     0.040 A 
HETATM    4  C   UNL     1       4.910  26.804  54.389  1.00  0.00     0.014 A 
HETATM    5  C   UNL     1       5.511  25.775  55.126  1.00  0.00    -0.007 A 
HETATM    6  C   UNL     1       6.120  24.732  54.407  1.00  0.00     0.051 A 
ENDROOT
BRANCH   5   7
HETATM    7  C   UNL     1       5.425  25.763  56.649  1.00  0.00     0.264 C 
HETATM    8  O   UNL     1       5.122  27.065  57.182  1.00  0.00    -0.321 OA
HETATM    9  C   UNL     1       6.214  27.889  57.280  1.00  0.00     0.087 A 
HETATM   10  C   UNL     1       7.513  27.403  57.414  1.00  0.00     0.065 A 
HETATM   11  C   UNL     1       5.983  29.263  57.272  1.00  0.00     0.038 A 
HETATM   12  C   UNL     1       7.702  25.947  57.504  1.00  0.00     0.256 C 
HETATM   13  C   UNL     1       8.594  28.282  57.514  1.00  0.00     0.020 A 
HETATM   14  O   UNL     1       8.782  25.436  57.760  1.00  0.00    -0.267 OA
HETATM   15  N   UNL     1       6.573  25.204  57.310  1.00  0.00    -0.326 N 
HETATM   16  H   UNL     1       6.713  24.203  57.297  1.00  0.00     0.165 HD
HETATM   17  C   UNL     1       8.364  29.657  57.481  1.00  0.00     0.001 A 
HETATM   18  C   UNL     1       7.061  30.147  57.365  1.00  0.00     0.003 A 
ENDBRANCH   5   7
BRANCH   1  19
HETATM   19  O   UNL     1       6.809  23.603  52.528  1.00  0.00    -0.349 OA
BRANCH  19  20
HETATM   20  C   UNL     1       8.095  23.221  53.003  1.00  0.00     0.171 C 
HETATM   21  C   UNL     1       8.178  21.725  53.252  1.00  0.00     0.034 C 
ENDBRANCH  19  20
ENDBRANCH   1  19
BRANCH   2  22
HETATM   22  O   UNL     1       5.666  25.821  50.925  1.00  0.00    -0.344 OA
BRANCH  22  23
HETATM   23  C   UNL     1       5.259  27.066  50.351  1.00  0.00     0.214 C 
BRANCH  23  24
HETATM   24  C   UNL     1       4.347  26.774  49.184  1.00  0.00    -0.034 A 
HETATM   25  C   UNL     1       3.902  27.814  48.355  1.00  0.00     0.009 A 
HETATM   26  C   UNL     1       3.054  27.547  47.278  1.00  0.00     0.001 A 
HETATM   27  C   UNL     1       2.636  26.242  47.026  1.00  0.00     0.000 A 
HETATM   28  C   UNL     1       3.060  25.203  47.852  1.00  0.00     0.001 A 
HETATM   29  C   UNL     1       3.909  25.467  48.929  1.00  0.00     0.009 A 
ENDBRANCH  23  24
ENDBRANCH  22  23
ENDBRANCH   2  22
TORSDOF 6
ENDMDL
MODEL 8
REMARK VINA RESULT:      -8.4      9.543     13.441
REMARK  6 active torsions:
REMARK  status: ('A' for Active; 'I' for Inactive)
REMARK    1  A    between atoms: C_2  and  O_3 
REMARK    2  A    between atoms: O_3  and  C_4 
REMARK    3  A    between atoms: C_5  and  O_6 
REMARK    4  A    between atoms: O_6  and  C_7 
REMARK    5  A    between atoms: C_7  and  C_8 
REMARK    6  A    between atoms: C_16  and  C_17 
ROOT
HETATM    1  C   UNL     1       6.517  32.130  61.838  1.00  0.00     0.102 A 
HETATM    2  C   UNL     1       7.853  31.880  62.173  1.00  0.00     0.102 A 
HETATM    3  C   UNL     1       8.361  32.373  63.382  1.00  0.00     0.040 A 
HETATM    4  C   UNL     1       7.540  33.054  64.283  1.00  0.00     0.014 A 
HETATM    5  C   UNL     1       6.182  33.258  64.004  1.00  0.00    -0.007 A 
HETATM    6  C   UNL     1       5.699  32.807  62.763  1.00  0.00     0.051 A 
ENDROOT
BRANCH   5   7
HETATM    7  C   UNL     1       5.297  34.018  64.987  1.00  0.00     0.264 C 
HETATM    8  O   UNL     1       3.899  33.765  64.760  1.00  0.00    -0.321 OA
HETATM    9  C   UNL     1       3.360  34.511  63.744  1.00  0.00     0.087 A 
HETATM   10  C   UNL     1       3.881  35.745  63.359  1.00  0.00     0.065 A 
HETATM   11  C   UNL     1       2.228  34.005  63.108  1.00  0.00     0.038 A 
HETATM   12  C   UNL     1       5.024  36.280  64.115  1.00  0.00     0.256 C 
HETATM   13  C   UNL     1       3.295  36.470  62.320  1.00  0.00     0.020 A 
HETATM   14  O   UNL     1       5.460  37.409  63.942  1.00  0.00    -0.267 OA
HETATM   15  N   UNL     1       5.549  35.433  65.048  1.00  0.00    -0.326 N 
HETATM   16  H   UNL     1       6.378  35.769  65.517  1.00  0.00     0.165 HD
HETATM   17  C   UNL     1       2.177  35.951  61.667  1.00  0.00     0.001 A 
HETATM   18  C   UNL     1       1.642  34.723  62.063  1.00  0.00     0.003 A 
ENDBRANCH   5   7
BRANCH   1  19
HETATM   19  O   UNL     1       5.829  31.799  60.702  1.00  0.00    -0.349 OA
BRANCH  19  20
HETATM   20  C   UNL     1       5.474  32.784  59.738  1.00  0.00     0.171 C 
HETATM   21  C   UNL     1       3.966  32.919  59.606  1.00  0.00     0.034 C 
ENDBRANCH  19  20
ENDBRANCH   1  19
BRANCH   2  22
HETATM   22  O   UNL     1       8.678  31.226  61.298  1.00  0.00    -0.344 OA
BRANCH  22  23
HETATM   23  C   UNL     1       9.058  32.005  60.161  1.00  0.00     0.214 C 
BRANCH  23  24
HETATM   24  C   UNL     1       9.285  31.067  58.999  1.00  0.00    -0.034 A 
HETATM   25  C   UNL     1       8.415  29.990  58.777  1.00  0.00     0.009 A 
HETATM   26  C   UNL     1       8.626  29.119  57.708  1.00  0.00     0.001 A 
HETATM   27  C   UNL     1       9.712  29.311  56.855  1.00  0.00     0.000 A 
HETATM   28  C   UNL     1      10.592  30.369  57.075  1.00  0.00     0.001 A 
HETATM   29  C   UNL     1      10.382  31.242  58.144  1.00  0.00     0.009 A 
ENDBRANCH  23  24
ENDBRANCH  22  23
ENDBRANCH   2  22
TORSDOF 6
ENDMDL
MODEL 9
REMARK VINA RESULT:      -8.4      8.657     12.903
REMARK  6 active torsions:
REMARK  status: ('A' for Active; 'I' for Inactive)
REMARK    1  A    between atoms: C_2  and  O_3 
REMARK    2  A    between atoms: O_3  and  C_4 
REMARK    3  A    between atoms: C_5  and  O_6 
REMARK    4  A    between atoms: O_6  and  C_7 
REMARK    5  A    between atoms: C_7  and  C_8 
REMARK    6  A    between atoms: C_16  and  C_17 
ROOT
HETATM    1  C   UNL     1       6.781  32.525  59.897  1.00  0.00     0.102 A 
HETATM    2  C   UNL     1       8.098  32.474  60.368  1.00  0.00     0.102 A 
HETATM    3  C   UNL     1       8.331  32.433  61.749  1.00  0.00     0.040 A 
HETATM    4  C   UNL     1       7.271  32.380  62.656  1.00  0.00     0.014 A 
HETATM    5  C   UNL     1       5.944  32.361  62.209  1.00  0.00    -0.007 A 
HETATM    6  C   UNL     1       5.724  32.458  60.824  1.00  0.00     0.051 A 
ENDROOT
BRANCH   5   7
HETATM    7  C   UNL     1       4.791  32.321  63.208  1.00  0.00     0.264 C 
HETATM    8  O   UNL     1       3.615  32.976  62.702  1.00  0.00    -0.321 OA
HETATM    9  C   UNL     1       3.643  34.341  62.834  1.00  0.00     0.087 A 
HETATM   10  C   UNL     1       4.389  34.986  63.818  1.00  0.00     0.065 A 
HETATM   11  C   UNL     1       2.861  35.086  61.955  1.00  0.00     0.038 A 
HETATM   12  C   UNL     1       5.132  34.155  64.779  1.00  0.00     0.256 C 
HETATM   13  C   UNL     1       4.384  36.378  63.916  1.00  0.00     0.020 A 
HETATM   14  O   UNL     1       5.701  34.623  65.756  1.00  0.00    -0.267 OA
HETATM   15  N   UNL     1       5.118  32.815  64.519  1.00  0.00    -0.326 N 
HETATM   16  H   UNL     1       5.688  32.251  65.133  1.00  0.00     0.165 HD
HETATM   17  C   UNL     1       3.620  37.125  63.019  1.00  0.00     0.001 A 
HETATM   18  C   UNL     1       2.857  36.480  62.044  1.00  0.00     0.003 A 
ENDBRANCH   5   7
BRANCH   1  19
HETATM   19  O   UNL     1       6.322  32.624  58.612  1.00  0.00    -0.349 OA
BRANCH  19  20
HETATM   20  C   UNL     1       4.945  32.846  58.332  1.00  0.00     0.171 C 
HETATM   21  C   UNL     1       4.745  34.052  57.429  1.00  0.00     0.034 C 
ENDBRANCH  19  20
ENDBRANCH   1  19
BRANCH   2  22
HETATM   22  O   UNL     1       9.152  32.537  59.497  1.00  0.00    -0.344 OA
BRANCH  22  23
HETATM   23  C   UNL     1      10.003  31.388  59.525  1.00  0.00     0.214 C 
BRANCH  23  24
HETATM   24  C   UNL     1       9.713  30.553  58.302  1.00  0.00    -0.034 A 
HETATM   25  C   UNL     1       8.554  29.767  58.239  1.00  0.00     0.009 A 
HETATM   26  C   UNL     1       8.286  28.989  57.110  1.00  0.00     0.001 A 
HETATM   27  C   UNL     1       9.178  28.985  56.039  1.00  0.00     0.000 A 
HETATM   28  C   UNL     1      10.340  29.751  56.097  1.00  0.00     0.001 A 
HETATM   29  C   UNL     1      10.610  30.530  57.224  1.00  0.00     0.009 A 
ENDBRANCH  23  24
ENDBRANCH  22  23
ENDBRANCH   2  22
TORSDOF 6
ENDMDL
MODEL 10
REMARK VINA RESULT:      -8.3      5.775      9.909
REMARK  6 active torsions:
REMARK  status: ('A' for Active; 'I' for Inactive)
REMARK    1  A    between atoms: C_2  and  O_3 
REMARK    2  A    between atoms: O_3  and  C_4 
REMARK    3  A    between atoms: C_5  and  O_6 
REMARK    4  A    between atoms: O_6  and  C_7 
REMARK    5  A    between atoms: C_7  and  C_8 
REMARK    6  A    between atoms: C_16  and  C_17 
ROOT
HETATM    1  C   UNL     1       7.424  30.657  58.412  1.00  0.00     0.102 A 
HETATM    2  C   UNL     1       6.606  31.640  58.979  1.00  0.00     0.102 A 
HETATM    3  C   UNL     1       5.379  31.944  58.374  1.00  0.00     0.040 A 
HETATM    4  C   UNL     1       4.936  31.240  57.253  1.00  0.00     0.014 A 
HETATM    5  C   UNL     1       5.705  30.205  56.705  1.00  0.00    -0.007 A 
HETATM    6  C   UNL     1       6.957  29.948  57.289  1.00  0.00     0.051 A 
ENDROOT
BRANCH   5   7
HETATM    7  C   UNL     1       5.220  29.453  55.469  1.00  0.00     0.264 C 
HETATM    8  O   UNL     1       4.559  28.222  55.813  1.00  0.00    -0.321 OA
HETATM    9  C   UNL     1       5.420  27.185  56.069  1.00  0.00     0.087 A 
HETATM   10  C   UNL     1       6.701  27.120  55.526  1.00  0.00     0.065 A 
HETATM   11  C   UNL     1       4.958  26.155  56.885  1.00  0.00     0.038 A 
HETATM   12  C   UNL     1       7.116  28.187  54.602  1.00  0.00     0.256 C 
HETATM   13  C   UNL     1       7.541  26.043  55.814  1.00  0.00     0.020 A 
HETATM   14  O   UNL     1       8.164  28.145  53.972  1.00  0.00    -0.267 OA
HETATM   15  N   UNL     1       6.232  29.220  54.474  1.00  0.00    -0.326 N 
HETATM   16  H   UNL     1       6.547  29.988  53.899  1.00  0.00     0.165 HD
HETATM   17  C   UNL     1       7.086  25.024  56.651  1.00  0.00     0.001 A 
HETATM   18  C   UNL     1       5.796  25.077  57.181  1.00  0.00     0.003 A 
ENDBRANCH   5   7
BRANCH   1  19
HETATM   19  O   UNL     1       8.670  30.238  58.793  1.00  0.00    -0.349 OA
BRANCH  19  20
HETATM   20  C   UNL     1       9.830  31.015  58.517  1.00  0.00     0.171 C 
HETATM   21  C   UNL     1      10.556  30.515  57.279  1.00  0.00     0.034 C 
ENDBRANCH  19  20
ENDBRANCH   1  19
BRANCH   2  22
HETATM   22  O   UNL     1       7.026  32.350  60.070  1.00  0.00    -0.344 OA
BRANCH  22  23
HETATM   23  C   UNL     1       5.978  33.038  60.759  1.00  0.00     0.214 C 
BRANCH  23  24
HETATM   24  C   UNL     1       6.437  33.309  62.172  1.00  0.00    -0.034 A 
HETATM   25  C   UNL     1       5.809  34.296  62.944  1.00  0.00     0.009 A 
HETATM   26  C   UNL     1       6.235  34.552  64.248  1.00  0.00     0.001 A 
HETATM   27  C   UNL     1       7.298  33.831  64.790  1.00  0.00     0.000 A 
HETATM   28  C   UNL     1       7.939  32.858  64.026  1.00  0.00     0.001 A 
HETATM   29  C   UNL     1       7.514  32.599  62.721  1.00  0.00     0.009 A 
ENDBRANCH  23  24
ENDBRANCH  22  23
ENDBRANCH   2  22
TORSDOF 6
ENDMDL
