MODEL 1
REMARK VINA RESULT:      -9.8      0.000      0.000
REMARK  7 active torsions:
REMARK  status: ('A' for Active; 'I' for Inactive)
REMARK    1  A    between atoms: C_7  and  C_8 
REMARK    2  A    between atoms: C_8  and  N_9 
REMARK    3  A    between atoms: C_13  and  C_14 
REMARK    4  A    between atoms: C_14  and  C_15 
REMARK    5  A    between atoms: C_15  and  C_16 
REMARK    6  A    between atoms: N_26  and  C_27 
REMARK    7  A    between atoms: C_27  and  C_28 
ROOT
HETATM    1  C   UNL     1       6.895  25.339  55.109  1.00  0.00     0.123 C 
HETATM    2  N   UNL     1       5.719  24.633  54.624  1.00  0.00    -0.324 N 
HETATM    3  C   UNL     1       5.188  25.180  53.478  1.00  0.00     0.326 C 
HETATM    4  O   UNL     1       4.265  24.683  52.861  1.00  0.00    -0.247 OA
HETATM    5  N   UNL     1       5.837  26.346  53.229  1.00  0.00    -0.268 N 
HETATM    6  C   UNL     1       6.787  26.569  54.180  1.00  0.00     0.257 C 
HETATM    7  O   UNL     1       7.462  27.584  54.295  1.00  0.00    -0.270 OA
HETATM    8  H   UNL     1       5.409  23.716  54.931  1.00  0.00     0.165 HD
ENDROOT
BRANCH   1   9
HETATM    9  C   UNL     1       6.734  25.652  56.635  1.00  0.00     0.027 C 
HETATM   10  C   UNL     1       5.469  26.452  57.009  1.00  0.00     0.035 C 
HETATM   11  C   UNL     1       5.576  27.952  56.778  1.00  0.00     0.235 C 
HETATM   12  N   UNL     1       6.762  28.524  57.509  1.00  0.00    -0.067 N 
HETATM   13  H   UNL     1       6.542  28.479  58.511  1.00  0.00     0.280 HD
HETATM   14  C   UNL     1       8.063  27.805  57.284  1.00  0.00     0.235 C 
HETATM   15  C   UNL     1       7.925  26.292  57.368  1.00  0.00     0.035 C 
BRANCH  12  16
HETATM   16  C   UNL     1       6.961  30.003  57.194  1.00  0.00     0.277 C 
BRANCH  16  17
HETATM   17  C   UNL     1       6.798  30.900  58.361  1.00  0.00     0.011 A 
HETATM   18  C   UNL     1       7.613  31.068  59.473  1.00  0.00     0.035 A 
HETATM   19  C   UNL     1       8.911  30.450  59.850  1.00  0.00     0.070 C 
HETATM   20  N   UNL     1       6.988  32.019  60.249  1.00  0.00    -0.278 N 
HETATM   21  C   UNL     1       7.436  32.585  61.503  1.00  0.00     0.179 C 
HETATM   22  N   UNL     1       5.836  32.457  59.718  1.00  0.00    -0.185 NA
HETATM   23  C   UNL     1       5.736  31.809  58.563  1.00  0.00     0.149 A 
ENDBRANCH  16  17
ENDBRANCH  12  16
ENDBRANCH   1   9
BRANCH   1  24
HETATM   24  C   UNL     1       8.205  24.602  54.687  1.00  0.00     0.082 C 
BRANCH  24  25
HETATM   25  C   UNL     1       8.116  23.100  54.481  1.00  0.00    -0.034 A 
HETATM   26  C   UNL     1       8.165  22.158  55.525  1.00  0.00     0.040 A 
HETATM   27 CL   UNL     1       8.361  22.609  57.180  1.00  0.00    -0.084 Cl
HETATM   28  C   UNL     1       8.097  20.785  55.258  1.00  0.00     0.024 A 
HETATM   29  C   UNL     1       7.992  20.325  53.948  1.00  0.00     0.002 A 
HETATM   30  C   UNL     1       7.974  21.236  52.899  1.00  0.00     0.001 A 
HETATM   31  C   UNL     1       8.048  22.605  53.163  1.00  0.00     0.009 A 
ENDBRANCH  24  25
ENDBRANCH   1  24
BRANCH   5  32
HETATM   32  C   UNL     1       5.507  27.252  52.151  1.00  0.00     0.141 C 
BRANCH  32  33
HETATM   33  C   UNL     1       4.255  28.007  52.480  1.00  0.00     0.004 A 
HETATM   34  C   UNL     1       4.282  29.148  53.466  1.00  0.00     0.007 A 
HETATM   35  C   UNL     1       4.072  29.424  52.001  1.00  0.00     0.007 A 
ENDBRANCH  32  33
ENDBRANCH   5  32
TORSDOF 7
ENDMDL
MODEL 2
REMARK VINA RESULT:      -9.4      1.362      2.061
REMARK  7 active torsions:
REMARK  status: ('A' for Active; 'I' for Inactive)
REMARK    1  A    between atoms: C_7  and  C_8 
REMARK    2  A    between atoms: C_8  and  N_9 
REMARK    3  A    between atoms: C_13  and  C_14 
REMARK    4  A    between atoms: C_14  and  C_15 
REMARK    5  A    between atoms: C_15  and  C_16 
REMARK    6  A    between atoms: N_26  and  C_27 
REMARK    7  A    between atoms: C_27  and  C_28 
ROOT
HETATM    1  C   UNL     1       6.552  25.772  55.314  1.00  0.00     0.123 C 
HETATM    2  N   UNL     1       5.460  24.958  54.803  1.00  0.00    -0.324 N 
HETATM    3  C   UNL     1       4.918  25.443  53.635  1.00  0.00     0.326 C 
HETATM    4  O   UNL     1       4.062  24.859  52.998  1.00  0.00    -0.247 OA
HETATM    5  N   UNL     1       5.468  26.660  53.389  1.00  0.00    -0.268 N 
HETATM    6  C   UNL     1       6.364  26.977  54.365  1.00  0.00     0.257 C 
HETATM    7  O   UNL     1       6.943  28.050  54.486  1.00  0.00    -0.270 OA
HETATM    8  H   UNL     1       5.223  24.021  55.114  1.00  0.00     0.165 HD
ENDROOT
BRANCH   1   9
HETATM    9  C   UNL     1       6.317  26.087  56.830  1.00  0.00     0.027 C 
HETATM   10  C   UNL     1       5.044  26.902  57.140  1.00  0.00     0.035 C 
HETATM   11  C   UNL     1       5.182  28.400  56.915  1.00  0.00     0.235 C 
HETATM   12  N   UNL     1       6.335  28.957  57.707  1.00  0.00    -0.067 N 
HETATM   13  H   UNL     1       6.064  28.915  58.696  1.00  0.00     0.280 HD
HETATM   14  C   UNL     1       7.638  28.222  57.548  1.00  0.00     0.235 C 
HETATM   15  C   UNL     1       7.476  26.711  57.623  1.00  0.00     0.035 C 
BRANCH  12  16
HETATM   16  C   UNL     1       6.569  30.434  57.405  1.00  0.00     0.277 C 
BRANCH  16  17
HETATM   17  C   UNL     1       6.685  31.290  58.608  1.00  0.00     0.011 A 
HETATM   18  C   UNL     1       5.700  31.970  59.312  1.00  0.00     0.035 A 
HETATM   19  C   UNL     1       4.227  32.045  59.130  1.00  0.00     0.070 C 
HETATM   20  N   UNL     1       6.356  32.614  60.337  1.00  0.00    -0.278 N 
HETATM   21  C   UNL     1       5.790  33.435  61.385  1.00  0.00     0.179 C 
HETATM   22  N   UNL     1       7.682  32.402  60.328  1.00  0.00    -0.185 NA
HETATM   23  C   UNL     1       7.878  31.576  59.307  1.00  0.00     0.149 A 
ENDBRANCH  16  17
ENDBRANCH  12  16
ENDBRANCH   1   9
BRANCH   1  24
HETATM   24  C   UNL     1       7.935  25.150  54.942  1.00  0.00     0.082 C 
BRANCH  24  25
HETATM   25  C   UNL     1       7.951  23.680  54.561  1.00  0.00    -0.034 A 
HETATM   26  C   UNL     1       7.920  23.211  53.235  1.00  0.00     0.040 A 
HETATM   27 CL   UNL     1       7.831  24.267  51.873  1.00  0.00    -0.084 Cl
HETATM   28  C   UNL     1       7.918  21.838  52.959  1.00  0.00     0.024 A 
HETATM   29  C   UNL     1       7.935  20.909  53.996  1.00  0.00     0.002 A 
HETATM   30  C   UNL     1       7.933  21.350  55.314  1.00  0.00     0.001 A 
HETATM   31  C   UNL     1       7.929  22.718  55.591  1.00  0.00     0.009 A 
ENDBRANCH  24  25
ENDBRANCH   1  24
BRANCH   5  32
HETATM   32  C   UNL     1       5.093  27.521  52.289  1.00  0.00     0.141 C 
BRANCH  32  33
HETATM   33  C   UNL     1       5.645  26.981  51.005  1.00  0.00     0.004 A 
HETATM   34  C   UNL     1       4.730  26.385  49.965  1.00  0.00     0.007 A 
HETATM   35  C   UNL     1       5.400  27.708  49.706  1.00  0.00     0.007 A 
ENDBRANCH  32  33
ENDBRANCH   5  32
TORSDOF 7
ENDMDL
MODEL 3
REMARK VINA RESULT:      -9.2      2.630      7.150
REMARK  7 active torsions:
REMARK  status: ('A' for Active; 'I' for Inactive)
REMARK    1  A    between atoms: C_7  and  C_8 
REMARK    2  A    between atoms: C_8  and  N_9 
REMARK    3  A    between atoms: C_13  and  C_14 
REMARK    4  A    between atoms: C_14  and  C_15 
REMARK    5  A    between atoms: C_15  and  C_16 
REMARK    6  A    between atoms: N_26  and  C_27 
REMARK    7  A    between atoms: C_27  and  C_28 
ROOT
HETATM    1  C   UNL     1       7.204  25.383  54.486  1.00  0.00     0.123 C 
HETATM    2  N   UNL     1       7.789  26.499  53.760  1.00  0.00    -0.324 N 
HETATM    3  C   UNL     1       7.826  27.666  54.490  1.00  0.00     0.326 C 
HETATM    4  O   UNL     1       8.361  28.686  54.099  1.00  0.00    -0.247 OA
HETATM    5  N   UNL     1       7.135  27.463  55.641  1.00  0.00    -0.268 N 
HETATM    6  C   UNL     1       6.656  26.188  55.685  1.00  0.00     0.257 C 
HETATM    7  O   UNL     1       5.904  25.734  56.538  1.00  0.00    -0.270 OA
HETATM    8  H   UNL     1       8.316  26.434  52.895  1.00  0.00     0.165 HD
ENDROOT
BRANCH   1   9
HETATM    9  C   UNL     1       6.111  24.690  53.605  1.00  0.00     0.027 C 
HETATM   10  C   UNL     1       6.478  24.523  52.116  1.00  0.00     0.035 C 
HETATM   11  C   UNL     1       6.277  25.771  51.271  1.00  0.00     0.235 C 
HETATM   12  N   UNL     1       4.861  26.272  51.381  1.00  0.00    -0.067 N 
HETATM   13  H   UNL     1       4.267  25.590  50.897  1.00  0.00     0.280 HD
HETATM   14  C   UNL     1       4.343  26.429  52.785  1.00  0.00     0.235 C 
HETATM   15  C   UNL     1       4.676  25.241  53.673  1.00  0.00     0.035 C 
BRANCH  12  16
HETATM   16  C   UNL     1       4.668  27.591  50.640  1.00  0.00     0.277 C 
BRANCH  16  17
HETATM   17  C   UNL     1       3.953  27.463  49.349  1.00  0.00     0.011 A 
HETATM   18  C   UNL     1       2.697  27.926  48.980  1.00  0.00     0.035 A 
HETATM   19  C   UNL     1       1.678  28.718  49.717  1.00  0.00     0.070 C 
HETATM   20  N   UNL     1       2.524  27.525  47.673  1.00  0.00    -0.278 N 
HETATM   21  C   UNL     1       1.399  27.780  46.801  1.00  0.00     0.179 C 
HETATM   22  N   UNL     1       3.571  26.835  47.193  1.00  0.00    -0.185 NA
HETATM   23  C   UNL     1       4.448  26.826  48.190  1.00  0.00     0.149 A 
ENDBRANCH  16  17
ENDBRANCH  12  16
ENDBRANCH   1   9
BRANCH   1  24
HETATM   24  C   UNL     1       8.314  24.453  55.071  1.00  0.00     0.082 C 
BRANCH  24  25
HETATM   25  C   UNL     1       8.227  22.975  54.732  1.00  0.00    -0.034 A 
HETATM   26  C   UNL     1       8.123  21.952  55.693  1.00  0.00     0.040 A 
HETATM   27 CL   UNL     1       8.111  22.265  57.391  1.00  0.00    -0.084 Cl
HETATM   28  C   UNL     1       8.066  20.608  55.307  1.00  0.00     0.024 A 
HETATM   29  C   UNL     1       8.124  20.256  53.961  1.00  0.00     0.002 A 
HETATM   30  C   UNL     1       8.258  21.247  52.997  1.00  0.00     0.001 A 
HETATM   31  C   UNL     1       8.321  22.589  53.380  1.00  0.00     0.009 A 
ENDBRANCH  24  25
ENDBRANCH   1  24
BRANCH   5  32
HETATM   32  C   UNL     1       6.885  28.484  56.635  1.00  0.00     0.141 C 
BRANCH  32  33
HETATM   33  C   UNL     1       7.959  28.456  57.679  1.00  0.00     0.004 A 
HETATM   34  C   UNL     1       9.203  29.296  57.525  1.00  0.00     0.007 A 
HETATM   35  C   UNL     1       8.183  29.650  58.573  1.00  0.00     0.007 A 
ENDBRANCH  32  33
ENDBRANCH   5  32
TORSDOF 7
ENDMDL
MODEL 4
REMARK VINA RESULT:      -8.9      2.875      7.072
REMARK  7 active torsions:
REMARK  status: ('A' for Active; 'I' for Inactive)
REMARK    1  A    between atoms: C_7  and  C_8 
REMARK    2  A    between atoms: C_8  and  N_9 
REMARK    3  A    between atoms: C_13  and  C_14 
REMARK    4  A    between atoms: C_14  and  C_15 
REMARK    5  A    between atoms: C_15  and  C_16 
REMARK    6  A    between atoms: N_26  and  C_27 
REMARK    7  A    between atoms: C_27  and  C_28 
ROOT
HETATM    1  C   UNL     1       5.754  26.360  54.522  1.00  0.00     0.123 C 
HETATM    2  N   UNL     1       6.957  26.784  53.822  1.00  0.00    -0.324 N 
HETATM    3  C   UNL     1       7.605  27.832  54.435  1.00  0.00     0.326 C 
HETATM    4  O   UNL     1       8.677  28.269  54.062  1.00  0.00    -0.247 OA
HETATM    5  N   UNL     1       6.818  28.279  55.447  1.00  0.00    -0.268 N 
HETATM    6  C   UNL     1       5.674  27.541  55.515  1.00  0.00     0.257 C 
HETATM    7  O   UNL     1       4.719  27.766  56.248  1.00  0.00    -0.270 OA
HETATM    8  H   UNL     1       7.426  26.269  53.083  1.00  0.00     0.165 HD
ENDROOT
BRANCH   1   9
HETATM    9  C   UNL     1       4.558  26.266  53.517  1.00  0.00     0.027 C 
HETATM   10  C   UNL     1       4.852  25.483  52.220  1.00  0.00     0.035 C 
HETATM   11  C   UNL     1       5.600  26.275  51.159  1.00  0.00     0.235 C 
HETATM   12  N   UNL     1       4.864  27.543  50.818  1.00  0.00    -0.067 N 
HETATM   13  H   UNL     1       4.013  27.266  50.315  1.00  0.00     0.280 HD
HETATM   14  C   UNL     1       4.458  28.386  51.995  1.00  0.00     0.235 C 
HETATM   15  C   UNL     1       3.845  27.570  53.122  1.00  0.00     0.035 C 
BRANCH  12  16
HETATM   16  C   UNL     1       5.654  28.413  49.845  1.00  0.00     0.277 C 
BRANCH  16  17
HETATM   17  C   UNL     1       4.814  29.254  48.962  1.00  0.00     0.011 A 
HETATM   18  C   UNL     1       3.952  28.883  47.938  1.00  0.00     0.035 A 
HETATM   19  C   UNL     1       3.557  27.551  47.412  1.00  0.00     0.070 C 
HETATM   20  N   UNL     1       3.435  30.061  47.445  1.00  0.00    -0.278 N 
HETATM   21  C   UNL     1       2.460  30.237  46.391  1.00  0.00     0.179 C 
HETATM   22  N   UNL     1       3.913  31.148  48.071  1.00  0.00    -0.185 NA
HETATM   23  C   UNL     1       4.718  30.663  49.009  1.00  0.00     0.149 A 
ENDBRANCH  16  17
ENDBRANCH  12  16
ENDBRANCH   1   9
BRANCH   1  24
HETATM   24  C   UNL     1       6.030  25.093  55.392  1.00  0.00     0.082 C 
BRANCH  24  25
HETATM   25  C   UNL     1       7.085  24.124  54.885  1.00  0.00    -0.034 A 
HETATM   26  C   UNL     1       8.307  23.881  55.539  1.00  0.00     0.040 A 
HETATM   27 CL   UNL     1       8.764  24.687  56.994  1.00  0.00    -0.084 Cl
HETATM   28  C   UNL     1       9.241  22.986  55.002  1.00  0.00     0.024 A 
HETATM   29  C   UNL     1       8.983  22.329  53.802  1.00  0.00     0.002 A 
HETATM   30  C   UNL     1       7.796  22.579  53.124  1.00  0.00     0.001 A 
HETATM   31  C   UNL     1       6.865  23.475  53.654  1.00  0.00     0.009 A 
ENDBRANCH  24  25
ENDBRANCH   1  24
BRANCH   5  32
HETATM   32  C   UNL     1       7.124  29.424  56.277  1.00  0.00     0.141 C 
BRANCH  32  33
HETATM   33  C   UNL     1       8.020  29.013  57.406  1.00  0.00     0.004 A 
HETATM   34  C   UNL     1       9.492  29.337  57.376  1.00  0.00     0.007 A 
HETATM   35  C   UNL     1       8.586  30.049  58.344  1.00  0.00     0.007 A 
ENDBRANCH  32  33
ENDBRANCH   5  32
TORSDOF 7
ENDMDL
MODEL 5
REMARK VINA RESULT:      -8.7      2.036      2.839
REMARK  7 active torsions:
REMARK  status: ('A' for Active; 'I' for Inactive)
REMARK    1  A    between atoms: C_7  and  C_8 
REMARK    2  A    between atoms: C_8  and  N_9 
REMARK    3  A    between atoms: C_13  and  C_14 
REMARK    4  A    between atoms: C_14  and  C_15 
REMARK    5  A    between atoms: C_15  and  C_16 
REMARK    6  A    between atoms: N_26  and  C_27 
REMARK    7  A    between atoms: C_27  and  C_28 
ROOT
HETATM    1  C   UNL     1       6.212  26.986  55.188  1.00  0.00     0.123 C 
HETATM    2  N   UNL     1       5.195  27.585  56.039  1.00  0.00    -0.324 N 
HETATM    3  C   UNL     1       4.348  28.434  55.364  1.00  0.00     0.326 C 
HETATM    4  O   UNL     1       3.376  28.958  55.873  1.00  0.00    -0.247 OA
HETATM    5  N   UNL     1       4.829  28.594  54.105  1.00  0.00    -0.268 N 
HETATM    6  C   UNL     1       5.966  27.861  53.938  1.00  0.00     0.257 C 
HETATM    7  O   UNL     1       6.694  27.881  52.953  1.00  0.00    -0.270 OA
HETATM    8  H   UNL     1       4.958  27.286  56.980  1.00  0.00     0.165 HD
ENDROOT
BRANCH   1   9
HETATM    9  C   UNL     1       7.623  27.159  55.843  1.00  0.00     0.027 C 
HETATM   10  C   UNL     1       7.646  27.068  57.383  1.00  0.00     0.035 C 
HETATM   11  C   UNL     1       7.228  28.343  58.099  1.00  0.00     0.235 C 
HETATM   12  N   UNL     1       8.073  29.508  57.656  1.00  0.00    -0.067 N 
HETATM   13  H   UNL     1       9.015  29.352  58.034  1.00  0.00     0.280 HD
HETATM   14  C   UNL     1       8.191  29.687  56.168  1.00  0.00     0.235 C 
HETATM   15  C   UNL     1       8.461  28.382  55.435  1.00  0.00     0.035 C 
BRANCH  12  16
HETATM   16  C   UNL     1       7.594  30.821  58.269  1.00  0.00     0.277 C 
BRANCH  16  17
HETATM   17  C   UNL     1       8.028  31.032  59.669  1.00  0.00     0.011 A 
HETATM   18  C   UNL     1       7.414  31.744  60.692  1.00  0.00     0.035 A 
HETATM   19  C   UNL     1       6.130  32.488  60.746  1.00  0.00     0.070 C 
HETATM   20  N   UNL     1       8.249  31.620  61.780  1.00  0.00    -0.278 N 
HETATM   21  C   UNL     1       8.061  32.145  63.115  1.00  0.00     0.179 C 
HETATM   22  N   UNL     1       9.348  30.895  61.521  1.00  0.00    -0.185 NA
HETATM   23  C   UNL     1       9.201  30.509  60.258  1.00  0.00     0.149 A 
ENDBRANCH  16  17
ENDBRANCH  12  16
ENDBRANCH   1   9
BRANCH   1  24
HETATM   24  C   UNL     1       5.812  25.535  54.775  1.00  0.00     0.082 C 
BRANCH  24  25
HETATM   25  C   UNL     1       6.905  24.480  54.814  1.00  0.00    -0.034 A 
HETATM   26  C   UNL     1       7.688  24.117  53.702  1.00  0.00     0.040 A 
HETATM   27 CL   UNL     1       7.473  24.821  52.141  1.00  0.00    -0.084 Cl
HETATM   28  C   UNL     1       8.666  23.121  53.808  1.00  0.00     0.024 A 
HETATM   29  C   UNL     1       8.873  22.460  55.015  1.00  0.00     0.002 A 
HETATM   30  C   UNL     1       8.090  22.779  56.117  1.00  0.00     0.001 A 
HETATM   31  C   UNL     1       7.110  23.768  56.013  1.00  0.00     0.009 A 
ENDBRANCH  24  25
ENDBRANCH   1  24
BRANCH   5  32
HETATM   32  C   UNL     1       4.254  29.478  53.115  1.00  0.00     0.141 C 
BRANCH  32  33
HETATM   33  C   UNL     1       3.378  28.700  52.181  1.00  0.00     0.004 A 
HETATM   34  C   UNL     1       2.470  29.408  51.208  1.00  0.00     0.007 A 
HETATM   35  C   UNL     1       3.679  28.668  50.703  1.00  0.00     0.007 A 
ENDBRANCH  32  33
ENDBRANCH   5  32
TORSDOF 7
ENDMDL
MODEL 6
REMARK VINA RESULT:      -8.4      3.563      8.705
REMARK  7 active torsions:
REMARK  status: ('A' for Active; 'I' for Inactive)
REMARK    1  A    between atoms: C_7  and  C_8 
REMARK    2  A    between atoms: C_8  and  N_9 
REMARK    3  A    between atoms: C_13  and  C_14 
REMARK    4  A    between atoms: C_14  and  C_15 
REMARK    5  A    between atoms: C_15  and  C_16 
REMARK    6  A    between atoms: N_26  and  C_27 
REMARK    7  A    between atoms: C_27  and  C_28 
ROOT
HETATM    1  C   UNL     1       4.639  28.314  52.601  1.00  0.00     0.123 C 
HETATM    2  N   UNL     1       4.188  27.439  51.530  1.00  0.00    -0.324 N 
HETATM    3  C   UNL     1       5.017  26.361  51.321  1.00  0.00     0.326 C 
HETATM    4  O   UNL     1       4.768  25.463  50.539  1.00  0.00    -0.247 OA
HETATM    5  N   UNL     1       6.128  26.530  52.084  1.00  0.00    -0.268 N 
HETATM    6  C   UNL     1       6.039  27.689  52.795  1.00  0.00     0.257 C 
HETATM    7  O   UNL     1       6.924  28.174  53.488  1.00  0.00    -0.270 OA
HETATM    8  H   UNL     1       3.270  27.455  51.098  1.00  0.00     0.165 HD
ENDROOT
BRANCH   1   9
HETATM    9  C   UNL     1       4.647  29.799  52.106  1.00  0.00     0.027 C 
HETATM   10  C   UNL     1       3.272  30.356  51.682  1.00  0.00     0.035 C 
HETATM   11  C   UNL     1       2.833  29.958  50.281  1.00  0.00     0.235 C 
HETATM   12  N   UNL     1       3.867  30.357  49.262  1.00  0.00    -0.067 N 
HETATM   13  H   UNL     1       3.850  31.381  49.206  1.00  0.00     0.280 HD
HETATM   14  C   UNL     1       5.275  29.929  49.574  1.00  0.00     0.235 C 
HETATM   15  C   UNL     1       5.664  30.191  51.021  1.00  0.00     0.035 C 
BRANCH  12  16
HETATM   16  C   UNL     1       3.505  29.860  47.865  1.00  0.00     0.277 C 
BRANCH  16  17
HETATM   17  C   UNL     1       3.675  28.401  47.676  1.00  0.00     0.011 A 
HETATM   18  C   UNL     1       2.743  27.377  47.782  1.00  0.00     0.035 A 
HETATM   19  C   UNL     1       1.287  27.392  48.078  1.00  0.00     0.070 C 
HETATM   20  N   UNL     1       3.436  26.217  47.513  1.00  0.00    -0.278 N 
HETATM   21  C   UNL     1       2.927  24.865  47.457  1.00  0.00     0.179 C 
HETATM   22  N   UNL     1       4.736  26.429  47.257  1.00  0.00    -0.185 NA
HETATM   23  C   UNL     1       4.876  27.748  47.320  1.00  0.00     0.149 A 
ENDBRANCH  16  17
ENDBRANCH  12  16
ENDBRANCH   1   9
BRANCH   1  24
HETATM   24  C   UNL     1       3.860  28.029  53.923  1.00  0.00     0.082 C 
BRANCH  24  25
HETATM   25  C   UNL     1       4.352  28.726  55.180  1.00  0.00    -0.034 A 
HETATM   26  C   UNL     1       5.031  28.073  56.226  1.00  0.00     0.040 A 
HETATM   27 CL   UNL     1       5.361  26.379  56.211  1.00  0.00    -0.084 Cl
HETATM   28  C   UNL     1       5.439  28.777  57.365  1.00  0.00     0.024 A 
HETATM   29  C   UNL     1       5.169  30.138  57.490  1.00  0.00     0.002 A 
HETATM   30  C   UNL     1       4.472  30.794  56.484  1.00  0.00     0.001 A 
HETATM   31  C   UNL     1       4.058  30.093  55.349  1.00  0.00     0.009 A 
ENDBRANCH  24  25
ENDBRANCH   1  24
BRANCH   5  32
HETATM   32  C   UNL     1       7.269  25.641  52.077  1.00  0.00     0.141 C 
BRANCH  32  33
HETATM   33  C   UNL     1       7.008  24.466  52.971  1.00  0.00     0.004 A 
HETATM   34  C   UNL     1       7.870  23.232  52.889  1.00  0.00     0.007 A 
HETATM   35  C   UNL     1       7.963  24.135  54.090  1.00  0.00     0.007 A 
ENDBRANCH  32  33
ENDBRANCH   5  32
TORSDOF 7
ENDMDL
MODEL 7
REMARK VINA RESULT:      -8.3      3.438      8.177
REMARK  7 active torsions:
REMARK  status: ('A' for Active; 'I' for Inactive)
REMARK    1  A    between atoms: C_7  and  C_8 
REMARK    2  A    between atoms: C_8  and  N_9 
REMARK    3  A    between atoms: C_13  and  C_14 
REMARK    4  A    between atoms: C_14  and  C_15 
REMARK    5  A    between atoms: C_15  and  C_16 
REMARK    6  A    between atoms: N_26  and  C_27 
REMARK    7  A    between atoms: C_27  and  C_28 
ROOT
HETATM    1  C   UNL     1       5.181  28.325  53.579  1.00  0.00     0.123 C 
HETATM    2  N   UNL     1       6.610  28.494  53.363  1.00  0.00    -0.324 N 
HETATM    3  C   UNL     1       7.342  28.496  54.528  1.00  0.00     0.326 C 
HETATM    4  O   UNL     1       8.558  28.530  54.558  1.00  0.00    -0.247 OA
HETATM    5  N   UNL     1       6.473  28.507  55.571  1.00  0.00    -0.268 N 
HETATM    6  C   UNL     1       5.189  28.502  55.114  1.00  0.00     0.257 C 
HETATM    7  O   UNL     1       4.183  28.619  55.802  1.00  0.00    -0.270 OA
HETATM    8  H   UNL     1       7.089  28.413  52.471  1.00  0.00     0.165 HD
ENDROOT
BRANCH   1   9
HETATM    9  C   UNL     1       4.391  29.425  52.795  1.00  0.00     0.027 C 
HETATM   10  C   UNL     1       3.120  28.930  52.073  1.00  0.00     0.035 C 
HETATM   11  C   UNL     1       3.376  28.251  50.736  1.00  0.00     0.235 C 
HETATM   12  N   UNL     1       4.152  29.156  49.815  1.00  0.00    -0.067 N 
HETATM   13  H   UNL     1       3.519  29.919  49.548  1.00  0.00     0.280 HD
HETATM   14  C   UNL     1       5.393  29.763  50.408  1.00  0.00     0.235 C 
HETATM   15  C   UNL     1       5.172  30.310  51.810  1.00  0.00     0.035 C 
BRANCH  12  16
HETATM   16  C   UNL     1       4.526  28.453  48.514  1.00  0.00     0.277 C 
BRANCH  16  17
HETATM   17  C   UNL     1       3.382  27.829  47.810  1.00  0.00     0.011 A 
HETATM   18  C   UNL     1       2.215  28.406  47.327  1.00  0.00     0.035 A 
HETATM   19  C   UNL     1       1.738  29.813  47.316  1.00  0.00     0.070 C 
HETATM   20  N   UNL     1       1.495  27.373  46.768  1.00  0.00    -0.278 N 
HETATM   21  C   UNL     1       0.217  27.436  46.094  1.00  0.00     0.179 C 
HETATM   22  N   UNL     1       2.113  26.186  46.872  1.00  0.00    -0.185 NA
HETATM   23  C   UNL     1       3.267  26.464  47.468  1.00  0.00     0.149 A 
ENDBRANCH  16  17
ENDBRANCH  12  16
ENDBRANCH   1   9
BRANCH   1  24
HETATM   24  C   UNL     1       4.749  26.846  53.325  1.00  0.00     0.082 C 
BRANCH  24  25
HETATM   25  C   UNL     1       5.855  25.811  53.218  1.00  0.00    -0.034 A 
HETATM   26  C   UNL     1       6.271  24.993  54.285  1.00  0.00     0.040 A 
HETATM   27 CL   UNL     1       5.581  25.094  55.863  1.00  0.00    -0.084 Cl
HETATM   28  C   UNL     1       7.313  24.072  54.118  1.00  0.00     0.024 A 
HETATM   29  C   UNL     1       7.966  23.958  52.894  1.00  0.00     0.002 A 
HETATM   30  C   UNL     1       7.593  24.778  51.837  1.00  0.00     0.001 A 
HETATM   31  C   UNL     1       6.558  25.702  52.002  1.00  0.00     0.009 A 
ENDBRANCH  24  25
ENDBRANCH   1  24
BRANCH   5  32
HETATM   32  C   UNL     1       6.863  28.590  56.961  1.00  0.00     0.141 C 
BRANCH  32  33
HETATM   33  C   UNL     1       7.247  29.997  57.303  1.00  0.00     0.004 A 
HETATM   34  C   UNL     1       6.289  30.899  58.040  1.00  0.00     0.007 A 
HETATM   35  C   UNL     1       7.523  30.386  58.733  1.00  0.00     0.007 A 
ENDBRANCH  32  33
ENDBRANCH   5  32
TORSDOF 7
ENDMDL
MODEL 8
REMARK VINA RESULT:      -8.2      5.235     10.762
REMARK  7 active torsions:
REMARK  status: ('A' for Active; 'I' for Inactive)
REMARK    1  A    between atoms: C_7  and  C_8 
REMARK    2  A    between atoms: C_8  and  N_9 
REMARK    3  A    between atoms: C_13  and  C_14 
REMARK    4  A    between atoms: C_14  and  C_15 
REMARK    5  A    between atoms: C_15  and  C_16 
REMARK    6  A    between atoms: N_26  and  C_27 
REMARK    7  A    between atoms: C_27  and  C_28 
ROOT
HETATM    1  C   UNL     1       4.302  33.461  61.612  1.00  0.00     0.123 C 
HETATM    2  N   UNL     1       5.200  34.584  61.387  1.00  0.00    -0.324 N 
HETATM    3  C   UNL     1       5.252  35.463  62.445  1.00  0.00     0.326 C 
HETATM    4  O   UNL     1       6.011  36.411  62.494  1.00  0.00    -0.247 OA
HETATM    5  N   UNL     1       4.298  35.099  63.340  1.00  0.00    -0.268 N 
HETATM    6  C   UNL     1       3.631  33.997  62.897  1.00  0.00     0.257 C 
HETATM    7  O   UNL     1       2.646  33.495  63.424  1.00  0.00    -0.270 OA
HETATM    8  H   UNL     1       5.891  34.651  60.646  1.00  0.00     0.165 HD
ENDROOT
BRANCH   1   9
HETATM    9  C   UNL     1       3.340  33.295  60.389  1.00  0.00     0.027 C 
HETATM   10  C   UNL     1       3.094  31.839  59.942  1.00  0.00     0.035 C 
HETATM   11  C   UNL     1       4.196  31.248  59.075  1.00  0.00     0.235 C 
HETATM   12  N   UNL     1       4.442  32.107  57.862  1.00  0.00    -0.067 N 
HETATM   13  H   UNL     1       3.619  32.007  57.257  1.00  0.00     0.280 HD
HETATM   14  C   UNL     1       4.642  33.571  58.142  1.00  0.00     0.235 C 
HETATM   15  C   UNL     1       3.628  34.128  59.128  1.00  0.00     0.035 C 
BRANCH  12  16
HETATM   16  C   UNL     1       5.624  31.600  57.042  1.00  0.00     0.277 C 
BRANCH  16  17
HETATM   17  C   UNL     1       5.834  30.136  57.117  1.00  0.00     0.011 A 
HETATM   18  C   UNL     1       5.040  29.100  56.643  1.00  0.00     0.035 A 
HETATM   19  C   UNL     1       3.762  29.100  55.887  1.00  0.00     0.070 C 
HETATM   20  N   UNL     1       5.700  27.941  56.989  1.00  0.00    -0.278 N 
HETATM   21  C   UNL     1       5.320  26.576  56.701  1.00  0.00     0.179 C 
HETATM   22  N   UNL     1       6.844  28.166  57.655  1.00  0.00    -0.185 NA
HETATM   23  C   UNL     1       6.944  29.490  57.703  1.00  0.00     0.149 A 
ENDBRANCH  16  17
ENDBRANCH  12  16
ENDBRANCH   1   9
BRANCH   1  24
HETATM   24  C   UNL     1       5.096  32.189  62.048  1.00  0.00     0.082 C 
BRANCH  24  25
HETATM   25  C   UNL     1       6.589  32.176  61.768  1.00  0.00    -0.034 A 
HETATM   26  C   UNL     1       7.571  32.478  62.729  1.00  0.00     0.040 A 
HETATM   27 CL   UNL     1       7.185  32.929  64.349  1.00  0.00    -0.084 Cl
HETATM   28  C   UNL     1       8.931  32.465  62.393  1.00  0.00     0.024 A 
HETATM   29  C   UNL     1       9.336  32.164  61.095  1.00  0.00     0.002 A 
HETATM   30  C   UNL     1       8.380  31.895  60.123  1.00  0.00     0.001 A 
HETATM   31  C   UNL     1       7.024  31.914  60.453  1.00  0.00     0.009 A 
ENDBRANCH  24  25
ENDBRANCH   1  24
BRANCH   5  32
HETATM   32  C   UNL     1       3.992  35.829  64.551  1.00  0.00     0.141 C 
BRANCH  32  33
HETATM   33  C   UNL     1       4.848  35.336  65.677  1.00  0.00     0.004 A 
HETATM   34  C   UNL     1       4.577  35.768  67.096  1.00  0.00     0.007 A 
HETATM   35  C   UNL     1       4.297  34.350  66.677  1.00  0.00     0.007 A 
ENDBRANCH  32  33
ENDBRANCH   5  32
TORSDOF 7
ENDMDL
MODEL 9
REMARK VINA RESULT:      -8.1      2.998      8.040
REMARK  7 active torsions:
REMARK  status: ('A' for Active; 'I' for Inactive)
REMARK    1  A    between atoms: C_7  and  C_8 
REMARK    2  A    between atoms: C_8  and  N_9 
REMARK    3  A    between atoms: C_13  and  C_14 
REMARK    4  A    between atoms: C_14  and  C_15 
REMARK    5  A    between atoms: C_15  and  C_16 
REMARK    6  A    between atoms: N_26  and  C_27 
REMARK    7  A    between atoms: C_27  and  C_28 
ROOT
HETATM    1  C   UNL     1       5.598  27.765  55.735  1.00  0.00     0.123 C 
HETATM    2  N   UNL     1       6.217  26.622  56.389  1.00  0.00    -0.324 N 
HETATM    3  C   UNL     1       7.245  26.969  57.236  1.00  0.00     0.326 C 
HETATM    4  O   UNL     1       7.827  26.172  57.947  1.00  0.00    -0.247 OA
HETATM    5  N   UNL     1       7.491  28.295  57.078  1.00  0.00    -0.268 N 
HETATM    6  C   UNL     1       6.641  28.825  56.155  1.00  0.00     0.257 C 
HETATM    7  O   UNL     1       6.683  29.967  55.714  1.00  0.00    -0.270 OA
HETATM    8  H   UNL     1       5.841  25.680  56.418  1.00  0.00     0.165 HD
ENDROOT
BRANCH   1   9
HETATM    9  C   UNL     1       5.504  27.510  54.194  1.00  0.00     0.027 C 
HETATM   10  C   UNL     1       4.989  26.113  53.791  1.00  0.00     0.035 C 
HETATM   11  C   UNL     1       6.037  25.012  53.845  1.00  0.00     0.235 C 
HETATM   12  N   UNL     1       7.230  25.366  52.998  1.00  0.00    -0.067 N 
HETATM   13  H   UNL     1       6.924  25.319  52.019  1.00  0.00     0.280 HD
HETATM   14  C   UNL     1       7.808  26.733  53.241  1.00  0.00     0.235 C 
HETATM   15  C   UNL     1       6.744  27.815  53.337  1.00  0.00     0.035 C 
BRANCH  12  16
HETATM   16  C   UNL     1       8.346  24.334  53.132  1.00  0.00     0.277 C 
BRANCH  16  17
HETATM   17  C   UNL     1       8.194  23.422  54.290  1.00  0.00     0.011 A 
HETATM   18  C   UNL     1       7.943  22.057  54.318  1.00  0.00     0.035 A 
HETATM   19  C   UNL     1       7.780  21.058  53.230  1.00  0.00     0.070 C 
HETATM   20  N   UNL     1       7.892  21.718  55.652  1.00  0.00    -0.278 N 
HETATM   21  C   UNL     1       7.690  20.410  56.235  1.00  0.00     0.179 C 
HETATM   22  N   UNL     1       8.079  22.767  56.468  1.00  0.00    -0.185 NA
HETATM   23  C   UNL     1       8.297  23.790  55.650  1.00  0.00     0.149 A 
ENDBRANCH  16  17
ENDBRANCH  12  16
ENDBRANCH   1   9
BRANCH   1  24
HETATM   24  C   UNL     1       4.271  28.168  56.453  1.00  0.00     0.082 C 
BRANCH  24  25
HETATM   25  C   UNL     1       3.949  29.651  56.529  1.00  0.00    -0.034 A 
HETATM   26  C   UNL     1       3.536  30.422  55.427  1.00  0.00     0.040 A 
HETATM   27 CL   UNL     1       3.372  29.768  53.838  1.00  0.00    -0.084 Cl
HETATM   28  C   UNL     1       3.274  31.791  55.567  1.00  0.00     0.024 A 
HETATM   29  C   UNL     1       3.431  32.417  56.800  1.00  0.00     0.002 A 
HETATM   30  C   UNL     1       3.869  31.681  57.894  1.00  0.00     0.001 A 
HETATM   31  C   UNL     1       4.136  30.318  57.756  1.00  0.00     0.009 A 
ENDBRANCH  24  25
ENDBRANCH   1  24
BRANCH   5  32
HETATM   32  C   UNL     1       8.555  29.015  57.743  1.00  0.00     0.141 C 
BRANCH  32  33
HETATM   33  C   UNL     1       9.841  28.831  56.996  1.00  0.00     0.004 A 
HETATM   34  C   UNL     1      10.211  29.754  55.862  1.00  0.00     0.007 A 
HETATM   35  C   UNL     1      10.966  29.822  57.162  1.00  0.00     0.007 A 
ENDBRANCH  32  33
ENDBRANCH   5  32
TORSDOF 7
ENDMDL
MODEL 10
REMARK VINA RESULT:      -8.1      3.280      8.192
REMARK  7 active torsions:
REMARK  status: ('A' for Active; 'I' for Inactive)
REMARK    1  A    between atoms: C_7  and  C_8 
REMARK    2  A    between atoms: C_8  and  N_9 
REMARK    3  A    between atoms: C_13  and  C_14 
REMARK    4  A    between atoms: C_14  and  C_15 
REMARK    5  A    between atoms: C_15  and  C_16 
REMARK    6  A    between atoms: N_26  and  C_27 
REMARK    7  A    between atoms: C_27  and  C_28 
ROOT
HETATM    1  C   UNL     1       6.204  26.045  54.133  1.00  0.00     0.123 C 
HETATM    2  N   UNL     1       6.034  25.587  55.503  1.00  0.00    -0.324 N 
HETATM    3  C   UNL     1       6.953  24.634  55.878  1.00  0.00     0.326 C 
HETATM    4  O   UNL     1       7.041  24.193  57.008  1.00  0.00    -0.247 OA
HETATM    5  N   UNL     1       7.659  24.274  54.776  1.00  0.00    -0.268 N 
HETATM    6  C   UNL     1       7.230  24.978  53.690  1.00  0.00     0.257 C 
HETATM    7  O   UNL     1       7.591  24.803  52.534  1.00  0.00    -0.270 OA
HETATM    8  H   UNL     1       5.459  26.033  56.211  1.00  0.00     0.165 HD
ENDROOT
BRANCH   1   9
HETATM    9  C   UNL     1       4.833  25.990  53.380  1.00  0.00     0.027 C 
HETATM   10  C   UNL     1       4.847  25.208  52.050  1.00  0.00     0.035 C 
HETATM   11  C   UNL     1       5.395  25.986  50.864  1.00  0.00     0.235 C 
HETATM   12  N   UNL     1       4.642  27.276  50.674  1.00  0.00    -0.067 N 
HETATM   13  H   UNL     1       3.702  27.025  50.347  1.00  0.00     0.280 HD
HETATM   14  C   UNL     1       4.497  28.122  51.909  1.00  0.00     0.235 C 
HETATM   15  C   UNL     1       4.093  27.316  53.133  1.00  0.00     0.035 C 
BRANCH  12  16
HETATM   16  C   UNL     1       5.252  28.130  49.567  1.00  0.00     0.277 C 
BRANCH  16  17
HETATM   17  C   UNL     1       4.262  28.893  48.773  1.00  0.00     0.011 A 
HETATM   18  C   UNL     1       3.301  28.440  47.878  1.00  0.00     0.035 A 
HETATM   19  C   UNL     1       2.919  27.071  47.446  1.00  0.00     0.070 C 
HETATM   20  N   UNL     1       2.660  29.570  47.421  1.00  0.00    -0.278 N 
HETATM   21  C   UNL     1       1.552  29.656  46.494  1.00  0.00     0.179 C 
HETATM   22  N   UNL     1       3.150  30.703  47.949  1.00  0.00    -0.185 NA
HETATM   23  C   UNL     1       4.092  30.296  48.791  1.00  0.00     0.149 A 
ENDBRANCH  16  17
ENDBRANCH  12  16
ENDBRANCH   1   9
BRANCH   1  24
HETATM   24  C   UNL     1       6.965  27.408  54.089  1.00  0.00     0.082 C 
BRANCH  24  25
HETATM   25  C   UNL     1       7.201  28.110  55.415  1.00  0.00    -0.034 A 
HETATM   26  C   UNL     1       6.333  29.074  55.960  1.00  0.00     0.040 A 
HETATM   27 CL   UNL     1       4.896  29.595  55.159  1.00  0.00    -0.084 Cl
HETATM   28  C   UNL     1       6.626  29.695  57.181  1.00  0.00     0.024 A 
HETATM   29  C   UNL     1       7.791  29.378  57.874  1.00  0.00     0.002 A 
HETATM   30  C   UNL     1       8.678  28.452  57.338  1.00  0.00     0.001 A 
HETATM   31  C   UNL     1       8.392  27.836  56.118  1.00  0.00     0.009 A 
ENDBRANCH  24  25
ENDBRANCH   1  24
BRANCH   5  32
HETATM   32  C   UNL     1       8.668  23.237  54.752  1.00  0.00     0.141 C 
BRANCH  32  33
HETATM   33  C   UNL     1       8.024  21.902  54.535  1.00  0.00     0.004 A 
HETATM   34  C   UNL     1       7.884  21.331  53.147  1.00  0.00     0.007 A 
HETATM   35  C   UNL     1       8.855  20.715  54.118  1.00  0.00     0.007 A 
ENDBRANCH  32  33
ENDBRANCH   5  32
TORSDOF 7
ENDMDL
