MODEL 1
REMARK VINA RESULT:     -10.5      0.000      0.000
REMARK  6 active torsions:
REMARK  status: ('A' for Active; 'I' for Inactive)
REMARK    1  A    between atoms: C_2  and  O_3 
REMARK    2  A    between atoms: C_2  and  C_10 
REMARK    3  A    between atoms: O_3  and  C_4 
REMARK       I    between atoms: C_10  and  N_11 
REMARK    4  A    between atoms: N_11  and  C_12 
REMARK    5  A    between atoms: N_13  and  C_14 
REMARK    6  A    between atoms: C_26  and  C_27 
ROOT
HETATM    1  C   UNL     1       6.795  26.540  53.618  1.00  0.00     0.152 A 
HETATM    2  N   UNL     1       6.771  25.262  53.082  1.00  0.00    -0.044 N 
HETATM    3  N   UNL     1       6.189  25.223  51.847  1.00  0.00    -0.150 NA
HETATM    4  C   UNL     1       5.845  26.496  51.607  1.00  0.00     0.099 A 
HETATM    5  C   UNL     1       6.206  27.350  52.674  1.00  0.00     0.086 A 
ENDROOT
BRANCH   1   6
HETATM    6  N   UNL     1       7.323  26.805  54.872  1.00  0.00    -0.309 N 
HETATM    7  C   UNL     1       6.578  27.258  55.945  1.00  0.00     0.252 C 
HETATM    8  O   UNL     1       5.375  27.508  55.934  1.00  0.00    -0.270 OA
HETATM    9  H   UNL     1       8.335  26.703  55.000  1.00  0.00     0.170 HD
BRANCH   7  10
HETATM   10  C   UNL     1       7.402  27.365  57.240  1.00  0.00     0.217 C 
HETATM   11  C   UNL     1       7.499  25.975  57.864  1.00  0.00     0.050 C 
BRANCH  10  12
HETATM   12  O   UNL     1       8.744  27.803  57.009  1.00  0.00    -0.337 OA
BRANCH  12  13
HETATM   13  C   UNL     1       9.090  29.017  57.536  1.00  0.00     0.070 A 
HETATM   14  C   UNL     1      10.307  29.533  57.083  1.00  0.00     0.037 A 
HETATM   15  C   UNL     1      10.767  30.767  57.543  1.00  0.00     0.003 A 
HETATM   16  C   UNL     1      10.002  31.500  58.448  1.00  0.00     0.000 A 
HETATM   17  C   UNL     1       8.777  30.999  58.885  1.00  0.00     0.003 A 
HETATM   18  C   UNL     1       8.318  29.759  58.430  1.00  0.00     0.037 A 
ENDBRANCH  12  13
ENDBRANCH  10  12
ENDBRANCH   7  10
ENDBRANCH   1   6
BRANCH   2  19
HETATM   19  C   UNL     1       7.246  24.072  53.668  1.00  0.00     0.732 A 
HETATM   20  N   UNL     1       7.500  23.960  54.933  1.00  0.00    -0.067 NA
HETATM   21  C   UNL     1       7.951  22.730  55.356  1.00  0.00     0.065 A 
HETATM   22  C   UNL     1       8.120  21.666  54.547  1.00  0.00     0.036 A 
HETATM   23  C   UNL     1       8.239  22.636  56.837  1.00  0.00     0.060 C 
HETATM   24  C   UNL     1       8.615  20.325  55.000  1.00  0.00     0.046 C 
HETATM   25  C   UNL     1       7.806  21.831  53.105  1.00  0.00     0.268 A 
HETATM   26  C   UNL     1       9.202  20.350  56.413  1.00  0.00     0.005 C 
HETATM   27  C   UNL     1       8.350  21.198  57.349  1.00  0.00     0.006 C 
HETATM   28  O   UNL     1       7.910  20.912  52.302  1.00  0.00    -0.267 OA
HETATM   29  N   UNL     1       7.388  23.074  52.747  1.00  0.00    -0.152 N 
HETATM   30  H   UNL     1       7.152  23.255  51.777  1.00  0.00     0.188 HD
ENDBRANCH   2  19
BRANCH   4  31
HETATM   31  C   UNL     1       5.152  26.902  50.339  1.00  0.00     0.035 A 
HETATM   32  S   UNL     1       5.075  28.505  49.750  1.00  0.00    -0.100 SA
HETATM   33  C   UNL     1       4.158  28.031  48.387  1.00  0.00     0.050 A 
HETATM   34  C   UNL     1       3.914  26.676  48.375  1.00  0.00     0.008 A 
HETATM   35  C   UNL     1       4.490  26.022  49.505  1.00  0.00     0.022 A 
ENDBRANCH   4  31
TORSDOF 6
ENDMDL
MODEL 2
REMARK VINA RESULT:     -10.3      3.048      7.573
REMARK  6 active torsions:
REMARK  status: ('A' for Active; 'I' for Inactive)
REMARK    1  A    between atoms: C_2  and  O_3 
REMARK    2  A    between atoms: C_2  and  C_10 
REMARK    3  A    between atoms: O_3  and  C_4 
REMARK       I    between atoms: C_10  and  N_11 
REMARK    4  A    between atoms: N_11  and  C_12 
REMARK    5  A    between atoms: N_13  and  C_14 
REMARK    6  A    between atoms: C_26  and  C_27 
ROOT
HETATM    1  C   UNL     1       6.718  29.310  56.331  1.00  0.00     0.152 A 
HETATM    2  N   UNL     1       7.418  28.278  56.936  1.00  0.00    -0.044 N 
HETATM    3  N   UNL     1       7.949  28.642  58.141  1.00  0.00    -0.150 NA
HETATM    4  C   UNL     1       7.574  29.920  58.291  1.00  0.00     0.099 A 
HETATM    5  C   UNL     1       6.804  30.376  57.197  1.00  0.00     0.086 A 
ENDROOT
BRANCH   1   6
HETATM    6  N   UNL     1       6.114  29.164  55.092  1.00  0.00    -0.309 N 
HETATM    7  C   UNL     1       4.784  28.830  54.915  1.00  0.00     0.252 C 
HETATM    8  O   UNL     1       3.974  28.597  55.808  1.00  0.00    -0.270 OA
HETATM    9  H   UNL     1       6.698  29.264  54.256  1.00  0.00     0.170 HD
BRANCH   7  10
HETATM   10  C   UNL     1       4.359  28.841  53.436  1.00  0.00     0.217 C 
HETATM   11  C   UNL     1       3.516  30.089  53.188  1.00  0.00     0.050 C 
BRANCH  10  12
HETATM   12  O   UNL     1       5.470  28.914  52.539  1.00  0.00    -0.337 OA
BRANCH  12  13
HETATM   13  C   UNL     1       5.304  28.341  51.309  1.00  0.00     0.070 A 
HETATM   14  C   UNL     1       5.007  26.976  51.327  1.00  0.00     0.037 A 
HETATM   15  C   UNL     1       4.808  26.278  50.136  1.00  0.00     0.003 A 
HETATM   16  C   UNL     1       4.888  26.949  48.917  1.00  0.00     0.000 A 
HETATM   17  C   UNL     1       5.161  28.317  48.895  1.00  0.00     0.003 A 
HETATM   18  C   UNL     1       5.367  29.014  50.089  1.00  0.00     0.037 A 
ENDBRANCH  12  13
ENDBRANCH  10  12
ENDBRANCH   7  10
ENDBRANCH   1   6
BRANCH   2  19
HETATM   19  C   UNL     1       7.634  26.976  56.444  1.00  0.00     0.732 A 
HETATM   20  N   UNL     1       7.357  26.627  55.228  1.00  0.00    -0.067 NA
HETATM   21  C   UNL     1       7.632  25.319  54.893  1.00  0.00     0.065 A 
HETATM   22  C   UNL     1       8.172  24.419  55.737  1.00  0.00     0.036 A 
HETATM   23  C   UNL     1       7.295  24.946  53.467  1.00  0.00     0.060 C 
HETATM   24  C   UNL     1       8.470  22.994  55.381  1.00  0.00     0.046 C 
HETATM   25  C   UNL     1       8.487  24.862  57.119  1.00  0.00     0.268 A 
HETATM   26  C   UNL     1       7.828  22.560  54.062  1.00  0.00     0.005 C 
HETATM   27  C   UNL     1       7.956  23.647  53.002  1.00  0.00     0.006 C 
HETATM   28  O   UNL     1       8.999  24.117  57.946  1.00  0.00    -0.267 OA
HETATM   29  N   UNL     1       8.171  26.156  57.394  1.00  0.00    -0.152 N 
HETATM   30  H   UNL     1       8.363  26.525  58.318  1.00  0.00     0.188 HD
ENDBRANCH   2  19
BRANCH   4  31
HETATM   31  C   UNL     1       7.965  30.723  59.498  1.00  0.00     0.035 A 
HETATM   32  S   UNL     1       7.040  32.005  60.148  1.00  0.00    -0.100 SA
HETATM   33  C   UNL     1       8.184  32.291  61.387  1.00  0.00     0.050 A 
HETATM   34  C   UNL     1       9.252  31.425  61.312  1.00  0.00     0.008 A 
HETATM   35  C   UNL     1       9.125  30.516  60.219  1.00  0.00     0.022 A 
ENDBRANCH   4  31
TORSDOF 6
ENDMDL
MODEL 3
REMARK VINA RESULT:     -10.2      2.661      6.133
REMARK  6 active torsions:
REMARK  status: ('A' for Active; 'I' for Inactive)
REMARK    1  A    between atoms: C_2  and  O_3 
REMARK    2  A    between atoms: C_2  and  C_10 
REMARK    3  A    between atoms: O_3  and  C_4 
REMARK       I    between atoms: C_10  and  N_11 
REMARK    4  A    between atoms: N_11  and  C_12 
REMARK    5  A    between atoms: N_13  and  C_14 
REMARK    6  A    between atoms: C_26  and  C_27 
ROOT
HETATM    1  C   UNL     1       6.985  25.836  54.770  1.00  0.00     0.152 A 
HETATM    2  N   UNL     1       6.336  25.526  53.585  1.00  0.00    -0.044 N 
HETATM    3  N   UNL     1       6.538  24.231  53.201  1.00  0.00    -0.150 NA
HETATM    4  C   UNL     1       7.323  23.723  54.162  1.00  0.00     0.099 A 
HETATM    5  C   UNL     1       7.621  24.680  55.159  1.00  0.00     0.086 A 
ENDROOT
BRANCH   1   6
HETATM    6  N   UNL     1       6.931  27.102  55.332  1.00  0.00    -0.309 N 
HETATM    7  C   UNL     1       6.139  27.435  56.415  1.00  0.00     0.252 C 
HETATM    8  O   UNL     1       5.370  26.680  57.004  1.00  0.00    -0.270 OA
HETATM    9  H   UNL     1       7.476  27.849  54.889  1.00  0.00     0.170 HD
BRANCH   7  10
HETATM   10  C   UNL     1       6.358  28.881  56.891  1.00  0.00     0.217 C 
HETATM   11  C   UNL     1       5.007  29.460  57.304  1.00  0.00     0.050 C 
BRANCH  10  12
HETATM   12  O   UNL     1       7.206  28.965  58.040  1.00  0.00    -0.337 OA
BRANCH  12  13
HETATM   13  C   UNL     1       8.456  29.482  57.842  1.00  0.00     0.070 A 
HETATM   14  C   UNL     1       8.721  30.669  58.529  1.00  0.00     0.037 A 
HETATM   15  C   UNL     1       9.964  31.292  58.414  1.00  0.00     0.003 A 
HETATM   16  C   UNL     1      10.956  30.718  57.621  1.00  0.00     0.000 A 
HETATM   17  C   UNL     1      10.704  29.522  56.952  1.00  0.00     0.003 A 
HETATM   18  C   UNL     1       9.456  28.901  57.062  1.00  0.00     0.037 A 
ENDBRANCH  12  13
ENDBRANCH  10  12
ENDBRANCH   7  10
ENDBRANCH   1   6
BRANCH   2  19
HETATM   19  C   UNL     1       5.554  26.378  52.781  1.00  0.00     0.732 A 
HETATM   20  N   UNL     1       4.911  27.399  53.252  1.00  0.00    -0.067 NA
HETATM   21  C   UNL     1       4.195  28.140  52.339  1.00  0.00     0.065 A 
HETATM   22  C   UNL     1       4.145  27.874  51.020  1.00  0.00     0.036 A 
HETATM   23  C   UNL     1       3.456  29.323  52.924  1.00  0.00     0.060 C 
HETATM   24  C   UNL     1       3.365  28.675  50.021  1.00  0.00     0.046 C 
HETATM   25  C   UNL     1       4.906  26.703  50.517  1.00  0.00     0.268 A 
HETATM   26  C   UNL     1       2.381  29.649  50.672  1.00  0.00     0.005 C 
HETATM   27  C   UNL     1       3.007  30.343  51.876  1.00  0.00     0.006 C 
HETATM   28  O   UNL     1       4.935  26.399  49.330  1.00  0.00    -0.267 OA
HETATM   29  N   UNL     1       5.572  25.998  51.470  1.00  0.00    -0.152 N 
HETATM   30  H   UNL     1       6.117  25.188  51.195  1.00  0.00     0.188 HD
ENDBRANCH   2  19
BRANCH   4  31
HETATM   31  C   UNL     1       7.803  22.301  54.122  1.00  0.00     0.035 A 
HETATM   32  S   UNL     1       8.150  21.359  55.506  1.00  0.00    -0.100 SA
HETATM   33  C   UNL     1       8.599  20.010  54.556  1.00  0.00     0.050 A 
HETATM   34  C   UNL     1       8.485  20.267  53.208  1.00  0.00     0.008 A 
HETATM   35  C   UNL     1       8.023  21.594  52.957  1.00  0.00     0.022 A 
ENDBRANCH   4  31
TORSDOF 6
ENDMDL
MODEL 4
REMARK VINA RESULT:     -10.1      1.489      2.128
REMARK  6 active torsions:
REMARK  status: ('A' for Active; 'I' for Inactive)
REMARK    1  A    between atoms: C_2  and  O_3 
REMARK    2  A    between atoms: C_2  and  C_10 
REMARK    3  A    between atoms: O_3  and  C_4 
REMARK       I    between atoms: C_10  and  N_11 
REMARK    4  A    between atoms: N_11  and  C_12 
REMARK    5  A    between atoms: N_13  and  C_14 
REMARK    6  A    between atoms: C_26  and  C_27 
ROOT
HETATM    1  C   UNL     1       5.703  26.903  53.208  1.00  0.00     0.152 A 
HETATM    2  N   UNL     1       6.012  25.631  52.752  1.00  0.00    -0.044 N 
HETATM    3  N   UNL     1       5.718  25.463  51.429  1.00  0.00    -0.150 NA
HETATM    4  C   UNL     1       5.219  26.650  51.052  1.00  0.00     0.099 A 
HETATM    5  C   UNL     1       5.195  27.575  52.120  1.00  0.00     0.086 A 
ENDROOT
BRANCH   1   6
HETATM    6  N   UNL     1       5.902  27.283  54.526  1.00  0.00    -0.309 N 
HETATM    7  C   UNL     1       6.992  28.013  54.964  1.00  0.00     0.252 C 
HETATM    8  O   UNL     1       7.928  28.398  54.269  1.00  0.00    -0.270 OA
HETATM    9  H   UNL     1       5.226  26.965  55.227  1.00  0.00     0.170 HD
BRANCH   7  10
HETATM   10  C   UNL     1       6.902  28.382  56.455  1.00  0.00     0.217 C 
HETATM   11  C   UNL     1       5.812  27.527  57.096  1.00  0.00     0.050 C 
BRANCH  10  12
HETATM   12  O   UNL     1       8.110  28.107  57.169  1.00  0.00    -0.337 OA
BRANCH  12  13
HETATM   13  C   UNL     1       8.861  29.188  57.541  1.00  0.00     0.070 A 
HETATM   14  C   UNL     1       8.335  29.939  58.595  1.00  0.00     0.037 A 
HETATM   15  C   UNL     1       9.012  31.063  59.070  1.00  0.00     0.003 A 
HETATM   16  C   UNL     1      10.230  31.430  58.503  1.00  0.00     0.000 A 
HETATM   17  C   UNL     1      10.770  30.670  57.466  1.00  0.00     0.003 A 
HETATM   18  C   UNL     1      10.089  29.548  56.986  1.00  0.00     0.037 A 
ENDBRANCH  12  13
ENDBRANCH  10  12
ENDBRANCH   7  10
ENDBRANCH   1   6
BRANCH   2  19
HETATM   19  C   UNL     1       6.550  24.557  53.488  1.00  0.00     0.732 A 
HETATM   20  N   UNL     1       6.987  23.471  52.935  1.00  0.00    -0.067 NA
HETATM   21  C   UNL     1       7.490  22.514  53.788  1.00  0.00     0.065 A 
HETATM   22  C   UNL     1       7.563  22.655  55.125  1.00  0.00     0.036 A 
HETATM   23  C   UNL     1       7.990  21.259  53.108  1.00  0.00     0.060 C 
HETATM   24  C   UNL     1       8.106  21.616  56.060  1.00  0.00     0.046 C 
HETATM   25  C   UNL     1       7.064  23.920  55.721  1.00  0.00     0.268 A 
HETATM   26  C   UNL     1       8.296  20.252  55.394  1.00  0.00     0.005 C 
HETATM   27  C   UNL     1       8.888  20.398  53.998  1.00  0.00     0.006 C 
HETATM   28  O   UNL     1       7.110  24.143  56.924  1.00  0.00    -0.267 OA
HETATM   29  N   UNL     1       6.558  24.814  54.829  1.00  0.00    -0.152 N 
HETATM   30  H   UNL     1       6.203  25.702  55.167  1.00  0.00     0.188 HD
ENDBRANCH   2  19
BRANCH   4  31
HETATM   31  C   UNL     1       4.748  26.899  49.649  1.00  0.00     0.035 A 
HETATM   32  S   UNL     1       5.093  28.313  48.751  1.00  0.00    -0.100 SA
HETATM   33  C   UNL     1       4.211  27.749  47.398  1.00  0.00     0.050 A 
HETATM   34  C   UNL     1       3.663  26.505  47.622  1.00  0.00     0.008 A 
HETATM   35  C   UNL     1       3.976  26.012  48.924  1.00  0.00     0.022 A 
ENDBRANCH   4  31
TORSDOF 6
ENDMDL
MODEL 5
REMARK VINA RESULT:      -9.9      1.830      6.742
REMARK  6 active torsions:
REMARK  status: ('A' for Active; 'I' for Inactive)
REMARK    1  A    between atoms: C_2  and  O_3 
REMARK    2  A    between atoms: C_2  and  C_10 
REMARK    3  A    between atoms: O_3  and  C_4 
REMARK       I    between atoms: C_10  and  N_11 
REMARK    4  A    between atoms: N_11  and  C_12 
REMARK    5  A    between atoms: N_13  and  C_14 
REMARK    6  A    between atoms: C_26  and  C_27 
ROOT
HETATM    1  C   UNL     1       6.714  26.610  53.181  1.00  0.00     0.152 A 
HETATM    2  N   UNL     1       6.407  27.922  53.508  1.00  0.00    -0.044 N 
HETATM    3  N   UNL     1       5.722  28.562  52.514  1.00  0.00    -0.150 NA
HETATM    4  C   UNL     1       5.598  27.635  51.553  1.00  0.00     0.099 A 
HETATM    5  C   UNL     1       6.193  26.408  51.924  1.00  0.00     0.086 A 
ENDROOT
BRANCH   1   6
HETATM    6  N   UNL     1       7.423  25.783  54.038  1.00  0.00    -0.309 N 
HETATM    7  C   UNL     1       6.879  25.179  55.156  1.00  0.00     0.252 C 
HETATM    8  O   UNL     1       5.723  25.305  55.554  1.00  0.00    -0.270 OA
HETATM    9  H   UNL     1       8.423  25.648  53.860  1.00  0.00     0.170 HD
BRANCH   7  10
HETATM   10  C   UNL     1       7.865  24.233  55.862  1.00  0.00     0.217 C 
HETATM   11  C   UNL     1       8.156  24.793  57.252  1.00  0.00     0.050 C 
BRANCH  10  12
HETATM   12  O   UNL     1       7.334  22.919  56.055  1.00  0.00    -0.337 OA
BRANCH  12  13
HETATM   13  C   UNL     1       7.803  21.941  55.223  1.00  0.00     0.070 A 
HETATM   14  C   UNL     1       7.648  22.199  53.858  1.00  0.00     0.037 A 
HETATM   15  C   UNL     1       8.092  21.279  52.908  1.00  0.00     0.003 A 
HETATM   16  C   UNL     1       8.712  20.101  53.320  1.00  0.00     0.000 A 
HETATM   17  C   UNL     1       8.890  19.850  54.680  1.00  0.00     0.003 A 
HETATM   18  C   UNL     1       8.438  20.768  55.632  1.00  0.00     0.037 A 
ENDBRANCH  12  13
ENDBRANCH  10  12
ENDBRANCH   7  10
ENDBRANCH   1   6
BRANCH   2  19
HETATM   19  C   UNL     1       6.734  28.616  54.688  1.00  0.00     0.732 A 
HETATM   20  N   UNL     1       7.875  28.491  55.288  1.00  0.00    -0.067 NA
HETATM   21  C   UNL     1       8.047  29.242  56.429  1.00  0.00     0.065 A 
HETATM   22  C   UNL     1       7.124  30.086  56.927  1.00  0.00     0.036 A 
HETATM   23  C   UNL     1       9.390  29.070  57.104  1.00  0.00     0.060 C 
HETATM   24  C   UNL     1       7.303  30.904  58.171  1.00  0.00     0.046 C 
HETATM   25  C   UNL     1       5.833  30.212  56.204  1.00  0.00     0.268 A 
HETATM   26  C   UNL     1       8.514  30.474  59.001  1.00  0.00     0.005 C 
HETATM   27  C   UNL     1       9.715  30.176  58.111  1.00  0.00     0.006 C 
HETATM   28  O   UNL     1       4.944  30.970  56.572  1.00  0.00    -0.267 OA
HETATM   29  N   UNL     1       5.715  29.427  55.099  1.00  0.00    -0.152 N 
HETATM   30  H   UNL     1       4.860  29.467  54.555  1.00  0.00     0.188 HD
ENDBRANCH   2  19
BRANCH   4  31
HETATM   31  C   UNL     1       4.907  27.931  50.253  1.00  0.00     0.035 A 
HETATM   32  S   UNL     1       4.200  29.436  49.856  1.00  0.00    -0.100 SA
HETATM   33  C   UNL     1       3.693  28.869  48.324  1.00  0.00     0.050 A 
HETATM   34  C   UNL     1       4.056  27.557  48.114  1.00  0.00     0.008 A 
HETATM   35  C   UNL     1       4.760  27.014  49.230  1.00  0.00     0.022 A 
ENDBRANCH   4  31
TORSDOF 6
ENDMDL
MODEL 6
REMARK VINA RESULT:      -9.8      2.577      6.986
REMARK  6 active torsions:
REMARK  status: ('A' for Active; 'I' for Inactive)
REMARK    1  A    between atoms: C_2  and  O_3 
REMARK    2  A    between atoms: C_2  and  C_10 
REMARK    3  A    between atoms: O_3  and  C_4 
REMARK       I    between atoms: C_10  and  N_11 
REMARK    4  A    between atoms: N_11  and  C_12 
REMARK    5  A    between atoms: N_13  and  C_14 
REMARK    6  A    between atoms: C_26  and  C_27 
ROOT
HETATM    1  C   UNL     1       5.023  26.890  50.712  1.00  0.00     0.152 A 
HETATM    2  N   UNL     1       4.519  28.000  51.371  1.00  0.00    -0.044 N 
HETATM    3  N   UNL     1       3.594  28.675  50.628  1.00  0.00    -0.150 NA
HETATM    4  C   UNL     1       3.517  27.976  49.486  1.00  0.00     0.099 A 
HETATM    5  C   UNL     1       4.380  26.857  49.495  1.00  0.00     0.086 A 
ENDROOT
BRANCH   1   6
HETATM    6  N   UNL     1       5.989  26.072  51.276  1.00  0.00    -0.309 N 
HETATM    7  C   UNL     1       5.708  25.009  52.115  1.00  0.00     0.252 C 
HETATM    8  O   UNL     1       4.592  24.662  52.490  1.00  0.00    -0.270 OA
HETATM    9  H   UNL     1       6.973  26.295  51.098  1.00  0.00     0.170 HD
BRANCH   7  10
HETATM   10  C   UNL     1       6.964  24.213  52.508  1.00  0.00     0.217 C 
HETATM   11  C   UNL     1       8.173  25.138  52.399  1.00  0.00     0.050 C 
BRANCH  10  12
HETATM   12  O   UNL     1       6.926  23.747  53.859  1.00  0.00    -0.337 OA
BRANCH  12  13
HETATM   13  C   UNL     1       7.504  22.532  54.106  1.00  0.00     0.070 A 
HETATM   14  C   UNL     1       7.627  22.198  55.456  1.00  0.00     0.037 A 
HETATM   15  C   UNL     1       8.196  20.982  55.836  1.00  0.00     0.003 A 
HETATM   16  C   UNL     1       8.629  20.085  54.862  1.00  0.00     0.000 A 
HETATM   17  C   UNL     1       8.488  20.404  53.513  1.00  0.00     0.003 A 
HETATM   18  C   UNL     1       7.924  21.626  53.132  1.00  0.00     0.037 A 
ENDBRANCH  12  13
ENDBRANCH  10  12
ENDBRANCH   7  10
ENDBRANCH   1   6
BRANCH   2  19
HETATM   19  C   UNL     1       4.867  28.476  52.650  1.00  0.00     0.732 A 
HETATM   20  N   UNL     1       5.995  28.197  53.224  1.00  0.00    -0.067 NA
HETATM   21  C   UNL     1       6.192  28.742  54.473  1.00  0.00     0.065 A 
HETATM   22  C   UNL     1       5.307  29.540  55.100  1.00  0.00     0.036 A 
HETATM   23  C   UNL     1       7.517  28.395  55.113  1.00  0.00     0.060 C 
HETATM   24  C   UNL     1       5.514  30.135  56.460  1.00  0.00     0.046 C 
HETATM   25  C   UNL     1       4.032  29.847  54.403  1.00  0.00     0.268 A 
HETATM   26  C   UNL     1       6.694  29.513  57.211  1.00  0.00     0.005 C 
HETATM   27  C   UNL     1       7.887  29.304  56.287  1.00  0.00     0.006 C 
HETATM   28  O   UNL     1       3.178  30.580  54.889  1.00  0.00    -0.267 OA
HETATM   29  N   UNL     1       3.886  29.260  53.186  1.00  0.00    -0.152 N 
HETATM   30  H   UNL     1       3.041  29.431  52.653  1.00  0.00     0.188 HD
ENDBRANCH   2  19
BRANCH   4  31
HETATM   31  C   UNL     1       2.608  28.389  48.365  1.00  0.00     0.035 A 
HETATM   32  S   UNL     1       2.797  29.817  47.445  1.00  0.00    -0.100 SA
HETATM   33  C   UNL     1       1.414  29.470  46.500  1.00  0.00     0.050 A 
HETATM   34  C   UNL     1       0.817  28.286  46.874  1.00  0.00     0.008 A 
HETATM   35  C   UNL     1       1.509  27.659  47.953  1.00  0.00     0.022 A 
ENDBRANCH   4  31
TORSDOF 6
ENDMDL
MODEL 7
REMARK VINA RESULT:      -9.8      1.722      2.438
REMARK  6 active torsions:
REMARK  status: ('A' for Active; 'I' for Inactive)
REMARK    1  A    between atoms: C_2  and  O_3 
REMARK    2  A    between atoms: C_2  and  C_10 
REMARK    3  A    between atoms: O_3  and  C_4 
REMARK       I    between atoms: C_10  and  N_11 
REMARK    4  A    between atoms: N_11  and  C_12 
REMARK    5  A    between atoms: N_13  and  C_14 
REMARK    6  A    between atoms: C_26  and  C_27 
ROOT
HETATM    1  C   UNL     1       5.537  28.231  52.455  1.00  0.00     0.152 A 
HETATM    2  N   UNL     1       5.790  26.879  52.283  1.00  0.00    -0.044 N 
HETATM    3  N   UNL     1       5.274  26.394  51.115  1.00  0.00    -0.150 NA
HETATM    4  C   UNL     1       4.690  27.460  50.548  1.00  0.00     0.099 A 
HETATM    5  C   UNL     1       4.832  28.622  51.339  1.00  0.00     0.086 A 
ENDROOT
BRANCH   1   6
HETATM    6  N   UNL     1       5.954  28.922  53.581  1.00  0.00    -0.309 N 
HETATM    7  C   UNL     1       5.121  29.271  54.628  1.00  0.00     0.252 C 
HETATM    8  O   UNL     1       3.916  29.045  54.696  1.00  0.00    -0.270 OA
HETATM    9  H   UNL     1       6.930  29.235  53.621  1.00  0.00     0.170 HD
BRANCH   7  10
HETATM   10  C   UNL     1       5.873  29.939  55.791  1.00  0.00     0.217 C 
HETATM   11  C   UNL     1       4.844  30.496  56.771  1.00  0.00     0.050 C 
BRANCH  10  12
HETATM   12  O   UNL     1       6.684  29.019  56.529  1.00  0.00    -0.337 OA
BRANCH  12  13
HETATM   13  C   UNL     1       7.956  29.424  56.823  1.00  0.00     0.070 A 
HETATM   14  C   UNL     1       8.880  29.270  55.786  1.00  0.00     0.037 A 
HETATM   15  C   UNL     1      10.211  29.653  55.961  1.00  0.00     0.003 A 
HETATM   16  C   UNL     1      10.619  30.208  57.171  1.00  0.00     0.000 A 
HETATM   17  C   UNL     1       9.696  30.385  58.201  1.00  0.00     0.003 A 
HETATM   18  C   UNL     1       8.364  29.996  58.028  1.00  0.00     0.037 A 
ENDBRANCH  12  13
ENDBRANCH  10  12
ENDBRANCH   7  10
ENDBRANCH   1   6
BRANCH   2  19
HETATM   19  C   UNL     1       6.472  26.011  53.157  1.00  0.00     0.732 A 
HETATM   20  N   UNL     1       6.794  26.339  54.368  1.00  0.00    -0.067 NA
HETATM   21  C   UNL     1       7.453  25.378  55.103  1.00  0.00     0.065 A 
HETATM   22  C   UNL     1       7.753  24.148  54.645  1.00  0.00     0.036 A 
HETATM   23  C   UNL     1       7.814  25.796  56.511  1.00  0.00     0.060 C 
HETATM   24  C   UNL     1       8.473  23.099  55.438  1.00  0.00     0.046 C 
HETATM   25  C   UNL     1       7.356  23.806  53.256  1.00  0.00     0.268 A 
HETATM   26  C   UNL     1       9.108  23.647  56.718  1.00  0.00     0.005 C 
HETATM   27  C   UNL     1       8.174  24.622  57.424  1.00  0.00     0.006 C 
HETATM   28  O   UNL     1       7.570  22.704  52.764  1.00  0.00    -0.267 OA
HETATM   29  N   UNL     1       6.731  24.803  52.575  1.00  0.00    -0.152 N 
HETATM   30  H   UNL     1       6.428  24.636  51.622  1.00  0.00     0.188 HD
ENDBRANCH   2  19
BRANCH   4  31
HETATM   31  C   UNL     1       3.977  27.363  49.230  1.00  0.00     0.035 A 
HETATM   32  S   UNL     1       3.306  28.695  48.394  1.00  0.00    -0.100 SA
HETATM   33  C   UNL     1       2.745  27.698  47.122  1.00  0.00     0.050 A 
HETATM   34  C   UNL     1       3.063  26.374  47.326  1.00  0.00     0.008 A 
HETATM   35  C   UNL     1       3.778  26.180  48.545  1.00  0.00     0.022 A 
ENDBRANCH   4  31
TORSDOF 6
ENDMDL
MODEL 8
REMARK VINA RESULT:      -9.8      2.825      8.332
REMARK  6 active torsions:
REMARK  status: ('A' for Active; 'I' for Inactive)
REMARK    1  A    between atoms: C_2  and  O_3 
REMARK    2  A    between atoms: C_2  and  C_10 
REMARK    3  A    between atoms: O_3  and  C_4 
REMARK       I    between atoms: C_10  and  N_11 
REMARK    4  A    between atoms: N_11  and  C_12 
REMARK    5  A    between atoms: N_13  and  C_14 
REMARK    6  A    between atoms: C_26  and  C_27 
ROOT
HETATM    1  C   UNL     1       5.614  25.528  53.625  1.00  0.00     0.152 A 
HETATM    2  N   UNL     1       6.359  25.771  54.768  1.00  0.00    -0.044 N 
HETATM    3  N   UNL     1       7.168  24.721  55.099  1.00  0.00    -0.150 NA
HETATM    4  C   UNL     1       6.926  23.809  54.147  1.00  0.00     0.099 A 
HETATM    5  C   UNL     1       5.974  24.266  53.208  1.00  0.00     0.086 A 
ENDROOT
BRANCH   1   6
HETATM    6  N   UNL     1       4.713  26.452  53.121  1.00  0.00    -0.309 N 
HETATM    7  C   UNL     1       5.017  27.370  52.134  1.00  0.00     0.252 C 
HETATM    8  O   UNL     1       6.111  27.512  51.592  1.00  0.00    -0.270 OA
HETATM    9  H   UNL     1       3.776  26.489  53.537  1.00  0.00     0.170 HD
BRANCH   7  10
HETATM   10  C   UNL     1       3.798  28.200  51.694  1.00  0.00     0.217 C 
HETATM   11  C   UNL     1       3.697  29.422  52.603  1.00  0.00     0.050 C 
BRANCH  10  12
HETATM   12  O   UNL     1       3.916  28.694  50.357  1.00  0.00    -0.337 OA
BRANCH  12  13
HETATM   13  C   UNL     1       3.399  27.906  49.366  1.00  0.00     0.070 A 
HETATM   14  C   UNL     1       2.071  28.176  49.026  1.00  0.00     0.037 A 
HETATM   15  C   UNL     1       1.433  27.444  48.025  1.00  0.00     0.003 A 
HETATM   16  C   UNL     1       2.129  26.447  47.345  1.00  0.00     0.000 A 
HETATM   17  C   UNL     1       3.461  26.190  47.664  1.00  0.00     0.003 A 
HETATM   18  C   UNL     1       4.099  26.919  48.672  1.00  0.00     0.037 A 
ENDBRANCH  12  13
ENDBRANCH  10  12
ENDBRANCH   7  10
ENDBRANCH   1   6
BRANCH   2  19
HETATM   19  C   UNL     1       6.343  26.922  55.579  1.00  0.00     0.732 A 
HETATM   20  N   UNL     1       5.322  27.715  55.660  1.00  0.00    -0.067 NA
HETATM   21  C   UNL     1       5.457  28.796  56.502  1.00  0.00     0.065 A 
HETATM   22  C   UNL     1       6.558  29.052  57.235  1.00  0.00     0.036 A 
HETATM   23  C   UNL     1       4.247  29.700  56.571  1.00  0.00     0.060 C 
HETATM   24  C   UNL     1       6.713  30.230  58.151  1.00  0.00     0.046 C 
HETATM   25  C   UNL     1       7.702  28.113  57.125  1.00  0.00     0.268 A 
HETATM   26  C   UNL     1       5.625  31.287  57.955  1.00  0.00     0.005 C 
HETATM   27  C   UNL     1       4.256  30.644  57.775  1.00  0.00     0.006 C 
HETATM   28  O   UNL     1       8.734  28.256  57.770  1.00  0.00    -0.267 OA
HETATM   29  N   UNL     1       7.516  27.080  56.260  1.00  0.00    -0.152 N 
HETATM   30  H   UNL     1       8.257  26.398  56.139  1.00  0.00     0.188 HD
ENDBRANCH   2  19
BRANCH   4  31
HETATM   31  C   UNL     1       7.611  22.473  54.140  1.00  0.00     0.035 A 
HETATM   32  S   UNL     1       8.026  21.593  55.546  1.00  0.00    -0.100 SA
HETATM   33  C   UNL     1       8.713  20.323  54.628  1.00  0.00     0.050 A 
HETATM   34  C   UNL     1       8.627  20.560  53.274  1.00  0.00     0.008 A 
HETATM   35  C   UNL     1       7.987  21.804  52.991  1.00  0.00     0.022 A 
ENDBRANCH   4  31
TORSDOF 6
ENDMDL
MODEL 9
REMARK VINA RESULT:      -9.7      2.675      6.429
REMARK  6 active torsions:
REMARK  status: ('A' for Active; 'I' for Inactive)
REMARK    1  A    between atoms: C_2  and  O_3 
REMARK    2  A    between atoms: C_2  and  C_10 
REMARK    3  A    between atoms: O_3  and  C_4 
REMARK       I    between atoms: C_10  and  N_11 
REMARK    4  A    between atoms: N_11  and  C_12 
REMARK    5  A    between atoms: N_13  and  C_14 
REMARK    6  A    between atoms: C_26  and  C_27 
ROOT
HETATM    1  C   UNL     1       6.137  25.899  54.255  1.00  0.00     0.152 A 
HETATM    2  N   UNL     1       6.078  25.599  52.903  1.00  0.00    -0.044 N 
HETATM    3  N   UNL     1       6.559  24.351  52.623  1.00  0.00    -0.150 NA
HETATM    4  C   UNL     1       6.922  23.864  53.818  1.00  0.00     0.099 A 
HETATM    5  C   UNL     1       6.674  24.786  54.860  1.00  0.00     0.086 A 
ENDROOT
BRANCH   1   6
HETATM    6  N   UNL     1       5.719  27.121  54.758  1.00  0.00    -0.309 N 
HETATM    7  C   UNL     1       6.569  28.177  55.031  1.00  0.00     0.252 C 
HETATM    8  O   UNL     1       7.789  28.174  54.894  1.00  0.00    -0.270 OA
HETATM    9  H   UNL     1       4.726  27.234  54.985  1.00  0.00     0.170 HD
BRANCH   7  10
HETATM   10  C   UNL     1       5.820  29.444  55.480  1.00  0.00     0.217 C 
HETATM   11  C   UNL     1       4.511  29.529  54.701  1.00  0.00     0.050 C 
BRANCH  10  12
HETATM   12  O   UNL     1       5.470  29.419  56.867  1.00  0.00    -0.337 OA
BRANCH  12  13
HETATM   13  C   UNL     1       6.353  30.004  57.732  1.00  0.00     0.070 A 
HETATM   14  C   UNL     1       5.990  31.277  58.179  1.00  0.00     0.037 A 
HETATM   15  C   UNL     1       6.806  31.974  59.070  1.00  0.00     0.003 A 
HETATM   16  C   UNL     1       7.984  31.393  59.531  1.00  0.00     0.000 A 
HETATM   17  C   UNL     1       8.340  30.114  59.106  1.00  0.00     0.003 A 
HETATM   18  C   UNL     1       7.526  29.417  58.208  1.00  0.00     0.037 A 
ENDBRANCH  12  13
ENDBRANCH  10  12
ENDBRANCH   7  10
ENDBRANCH   1   6
BRANCH   2  19
HETATM   19  C   UNL     1       5.615  26.419  51.857  1.00  0.00     0.732 A 
HETATM   20  N   UNL     1       5.839  27.694  51.806  1.00  0.00    -0.067 NA
HETATM   21  C   UNL     1       5.327  28.359  50.715  1.00  0.00     0.065 A 
HETATM   22  C   UNL     1       4.640  27.765  49.721  1.00  0.00     0.036 A 
HETATM   23  C   UNL     1       5.606  29.845  50.690  1.00  0.00     0.060 C 
HETATM   24  C   UNL     1       4.075  28.484  48.531  1.00  0.00     0.046 C 
HETATM   25  C   UNL     1       4.414  26.300  49.808  1.00  0.00     0.268 A 
HETATM   26  C   UNL     1       4.086  30.005  48.692  1.00  0.00     0.005 C 
HETATM   27  C   UNL     1       5.389  30.486  49.318  1.00  0.00     0.006 C 
HETATM   28  O   UNL     1       3.818  25.675  48.939  1.00  0.00    -0.267 OA
HETATM   29  N   UNL     1       4.923  25.706  50.920  1.00  0.00    -0.152 N 
HETATM   30  H   UNL     1       4.809  24.706  51.041  1.00  0.00     0.188 HD
ENDBRANCH   2  19
BRANCH   4  31
HETATM   31  C   UNL     1       7.525  22.497  53.964  1.00  0.00     0.035 A 
HETATM   32  S   UNL     1       7.860  21.744  55.462  1.00  0.00    -0.100 SA
HETATM   33  C   UNL     1       8.486  20.349  54.696  1.00  0.00     0.050 A 
HETATM   34  C   UNL     1       8.440  20.450  53.324  1.00  0.00     0.008 A 
HETATM   35  C   UNL     1       7.883  21.693  52.900  1.00  0.00     0.022 A 
ENDBRANCH   4  31
TORSDOF 6
ENDMDL
MODEL 10
REMARK VINA RESULT:      -9.4      2.230      6.820
REMARK  6 active torsions:
REMARK  status: ('A' for Active; 'I' for Inactive)
REMARK    1  A    between atoms: C_2  and  O_3 
REMARK    2  A    between atoms: C_2  and  C_10 
REMARK    3  A    between atoms: O_3  and  C_4 
REMARK       I    between atoms: C_10  and  N_11 
REMARK    4  A    between atoms: N_11  and  C_12 
REMARK    5  A    between atoms: N_13  and  C_14 
REMARK    6  A    between atoms: C_26  and  C_27 
ROOT
HETATM    1  C   UNL     1       6.360  26.541  52.819  1.00  0.00     0.152 A 
HETATM    2  N   UNL     1       5.762  27.770  53.052  1.00  0.00    -0.044 N 
HETATM    3  N   UNL     1       5.081  28.236  51.963  1.00  0.00    -0.150 NA
HETATM    4  C   UNL     1       5.255  27.283  51.036  1.00  0.00     0.099 A 
HETATM    5  C   UNL     1       6.036  26.210  51.523  1.00  0.00     0.086 A 
ENDROOT
BRANCH   1   6
HETATM    6  N   UNL     1       7.117  25.895  53.783  1.00  0.00    -0.309 N 
HETATM    7  C   UNL     1       6.582  25.251  54.883  1.00  0.00     0.252 C 
HETATM    8  O   UNL     1       5.390  25.184  55.171  1.00  0.00    -0.270 OA
HETATM    9  H   UNL     1       8.138  25.934  53.700  1.00  0.00     0.170 HD
BRANCH   7  10
HETATM   10  C   UNL     1       7.647  24.531  55.729  1.00  0.00     0.217 C 
HETATM   11  C   UNL     1       7.783  25.268  57.058  1.00  0.00     0.050 C 
BRANCH  10  12
HETATM   12  O   UNL     1       7.287  23.183  56.043  1.00  0.00    -0.337 OA
BRANCH  12  13
HETATM   13  C   UNL     1       7.745  22.213  55.195  1.00  0.00     0.070 A 
HETATM   14  C   UNL     1       8.250  21.070  55.821  1.00  0.00     0.037 A 
HETATM   15  C   UNL     1       8.742  20.007  55.063  1.00  0.00     0.003 A 
HETATM   16  C   UNL     1       8.713  20.075  53.672  1.00  0.00     0.000 A 
HETATM   17  C   UNL     1       8.188  21.204  53.043  1.00  0.00     0.003 A 
HETATM   18  C   UNL     1       7.702  22.272  53.802  1.00  0.00     0.037 A 
ENDBRANCH  12  13
ENDBRANCH  10  12
ENDBRANCH   7  10
ENDBRANCH   1   6
BRANCH   2  19
HETATM   19  C   UNL     1       5.807  28.542  54.229  1.00  0.00     0.732 A 
HETATM   20  N   UNL     1       4.746  29.006  54.810  1.00  0.00    -0.067 NA
HETATM   21  C   UNL     1       4.952  29.737  55.958  1.00  0.00     0.065 A 
HETATM   22  C   UNL     1       6.163  29.973  56.498  1.00  0.00     0.036 A 
HETATM   23  C   UNL     1       3.693  30.264  56.608  1.00  0.00     0.060 C 
HETATM   24  C   UNL     1       6.395  30.771  57.746  1.00  0.00     0.046 C 
HETATM   25  C   UNL     1       7.353  29.413  55.810  1.00  0.00     0.268 A 
HETATM   26  C   UNL     1       5.160  31.556  58.193  1.00  0.00     0.005 C 
HETATM   27  C   UNL     1       3.894  30.718  58.055  1.00  0.00     0.006 C 
HETATM   28  O   UNL     1       8.491  29.559  56.242  1.00  0.00    -0.267 OA
HETATM   29  N   UNL     1       7.086  28.722  54.671  1.00  0.00    -0.152 N 
HETATM   30  H   UNL     1       7.853  28.308  54.152  1.00  0.00     0.188 HD
ENDBRANCH   2  19
BRANCH   4  31
HETATM   31  C   UNL     1       4.671  27.404  49.658  1.00  0.00     0.035 A 
HETATM   32  S   UNL     1       4.460  28.882  48.826  1.00  0.00    -0.100 SA
HETATM   33  C   UNL     1       3.780  28.096  47.467  1.00  0.00     0.050 A 
HETATM   34  C   UNL     1       3.716  26.731  47.640  1.00  0.00     0.008 A 
HETATM   35  C   UNL     1       4.233  26.330  48.908  1.00  0.00     0.022 A 
ENDBRANCH   4  31
TORSDOF 6
ENDMDL
