MODEL 1
REMARK VINA RESULT:      -9.2      0.000      0.000
REMARK  3 active torsions:
REMARK  status: ('A' for Active; 'I' for Inactive)
REMARK    1  A    between atoms: C_6  and  N_7 
REMARK       I    between atoms: N_7  and  C_8 
REMARK    2  A    between atoms: C_8  and  C_9 
REMARK    3  A    between atoms: C_9  and  C_10 
ROOT
HETATM    1  C   UNL     1       6.196  28.612  56.922  1.00  0.00     0.286 C 
HETATM    2  N   UNL     1       7.302  27.963  57.770  1.00  0.00    -0.056 N 
HETATM    3  H   UNL     1       6.853  27.602  58.623  1.00  0.00     0.278 HD
HETATM    4  H   UNL     1       7.626  27.090  57.301  1.00  0.00     0.278 HD
HETATM    5  C   UNL     1       8.468  28.806  58.171  1.00  0.00     0.209 C 
HETATM    6  C   UNL     1       7.970  30.200  58.612  1.00  0.00     0.115 C 
HETATM    7  N   UNL     1       7.138  30.817  57.586  1.00  0.00    -0.353 N 
HETATM    8  C   UNL     1       6.245  30.140  56.804  1.00  0.00     0.249 C 
HETATM    9  O   UNL     1       5.500  30.757  56.050  1.00  0.00    -0.271 OA
HETATM   10  C   UNL     1       9.487  28.873  57.032  1.00  0.00     0.035 C 
HETATM   11  C   UNL     1      10.656  29.781  57.409  1.00  0.00     0.002 C 
HETATM   12  C   UNL     1      10.187  31.169  57.842  1.00  0.00     0.002 C 
HETATM   13  C   UNL     1       9.155  31.099  58.969  1.00  0.00     0.027 C 
HETATM   14  H   UNL     1       7.055  31.832  57.542  1.00  0.00     0.163 HD
ENDROOT
BRANCH   1  15
HETATM   15  C   UNL     1       6.118  27.967  55.531  1.00  0.00     0.146 C 
BRANCH  15  16
HETATM   16  C   UNL     1       6.343  26.492  55.738  1.00  0.00     0.224 C 
HETATM   17  N   UNL     1       7.363  25.976  54.984  1.00  0.00    -0.327 N 
HETATM   18  H   UNL     1       8.011  26.656  54.596  1.00  0.00     0.169 HD
HETATM   19  O   UNL     1       5.489  25.911  56.403  1.00  0.00    -0.273 OA
BRANCH  17  20
HETATM   20  C   UNL     1       7.690  24.641  54.627  1.00  0.00     0.040 A 
HETATM   21  C   UNL     1       8.145  23.595  55.449  1.00  0.00    -0.035 A 
HETATM   22  C   UNL     1       8.349  22.316  54.873  1.00  0.00     0.015 A 
HETATM   23  C   UNL     1       8.460  23.692  56.914  1.00  0.00     0.050 C 
HETATM   24  C   UNL     1       8.129  22.060  53.517  1.00  0.00    -0.061 A 
HETATM   25  C   UNL     1       8.336  20.690  52.946  1.00  0.00     0.048 C 
HETATM   26  C   UNL     1       7.679  23.098  52.712  1.00  0.00     0.009 A 
HETATM   27  C   UNL     1       7.472  24.365  53.259  1.00  0.00     0.030 A 
ENDBRANCH  17  20
ENDBRANCH  15  16
ENDBRANCH   1  15
TORSDOF 3
ENDMDL
MODEL 2
REMARK VINA RESULT:      -9.1      0.532      1.512
REMARK  3 active torsions:
REMARK  status: ('A' for Active; 'I' for Inactive)
REMARK    1  A    between atoms: C_6  and  N_7 
REMARK       I    between atoms: N_7  and  C_8 
REMARK    2  A    between atoms: C_8  and  C_9 
REMARK    3  A    between atoms: C_9  and  C_10 
ROOT
HETATM    1  C   UNL     1       6.190  28.689  56.953  1.00  0.00     0.286 C 
HETATM    2  N   UNL     1       7.321  27.994  57.729  1.00  0.00    -0.056 N 
HETATM    3  H   UNL     1       6.896  27.575  58.567  1.00  0.00     0.278 HD
HETATM    4  H   UNL     1       7.638  27.157  57.195  1.00  0.00     0.278 HD
HETATM    5  C   UNL     1       8.492  28.819  58.156  1.00  0.00     0.209 C 
HETATM    6  C   UNL     1       7.997  30.176  58.700  1.00  0.00     0.115 C 
HETATM    7  N   UNL     1       7.135  30.853  57.738  1.00  0.00    -0.353 N 
HETATM    8  C   UNL     1       6.227  30.222  56.936  1.00  0.00     0.249 C 
HETATM    9  O   UNL     1       5.458  30.881  56.243  1.00  0.00    -0.271 OA
HETATM   10  C   UNL     1       9.481  28.968  56.998  1.00  0.00     0.035 C 
HETATM   11  C   UNL     1      10.654  29.859  57.405  1.00  0.00     0.002 C 
HETATM   12  C   UNL     1      10.187  31.211  57.940  1.00  0.00     0.002 C 
HETATM   13  C   UNL     1       9.185  31.060  59.085  1.00  0.00     0.027 C 
HETATM   14  H   UNL     1       7.045  31.868  57.763  1.00  0.00     0.163 HD
ENDROOT
BRANCH   1  15
HETATM   15  C   UNL     1       6.081  28.137  55.526  1.00  0.00     0.146 C 
BRANCH  15  16
HETATM   16  C   UNL     1       6.160  26.637  55.648  1.00  0.00     0.224 C 
HETATM   17  N   UNL     1       7.146  26.070  54.885  1.00  0.00    -0.327 N 
HETATM   18  H   UNL     1       7.865  26.707  54.553  1.00  0.00     0.169 HD
HETATM   19  O   UNL     1       5.237  26.104  56.258  1.00  0.00    -0.273 OA
BRANCH  17  20
HETATM   20  C   UNL     1       7.354  24.733  54.455  1.00  0.00     0.040 A 
HETATM   21  C   UNL     1       7.575  24.250  53.153  1.00  0.00    -0.035 A 
HETATM   22  C   UNL     1       7.821  22.866  52.973  1.00  0.00     0.015 A 
HETATM   23  C   UNL     1       7.567  25.065  51.892  1.00  0.00     0.050 C 
HETATM   24  C   UNL     1       7.836  21.962  54.039  1.00  0.00    -0.061 A 
HETATM   25  C   UNL     1       8.119  20.507  53.813  1.00  0.00     0.048 C 
HETATM   26  C   UNL     1       7.618  22.447  55.321  1.00  0.00     0.009 A 
HETATM   27  C   UNL     1       7.374  23.806  55.520  1.00  0.00     0.030 A 
ENDBRANCH  17  20
ENDBRANCH  15  16
ENDBRANCH   1  15
TORSDOF 3
ENDMDL
MODEL 3
REMARK VINA RESULT:      -8.8      2.308      8.173
REMARK  3 active torsions:
REMARK  status: ('A' for Active; 'I' for Inactive)
REMARK    1  A    between atoms: C_6  and  N_7 
REMARK       I    between atoms: N_7  and  C_8 
REMARK    2  A    between atoms: C_8  and  C_9 
REMARK    3  A    between atoms: C_9  and  C_10 
ROOT
HETATM    1  C   UNL     1       7.137  27.016  56.731  1.00  0.00     0.286 C 
HETATM    2  N   UNL     1       6.298  27.156  55.450  1.00  0.00    -0.056 N 
HETATM    3  H   UNL     1       5.311  27.169  55.738  1.00  0.00     0.278 HD
HETATM    4  H   UNL     1       6.430  28.114  55.058  1.00  0.00     0.278 HD
HETATM    5  C   UNL     1       6.467  26.125  54.382  1.00  0.00     0.209 C 
HETATM    6  C   UNL     1       6.539  24.723  55.025  1.00  0.00     0.115 C 
HETATM    7  N   UNL     1       7.571  24.661  56.053  1.00  0.00    -0.353 N 
HETATM    8  C   UNL     1       7.858  25.677  56.921  1.00  0.00     0.249 C 
HETATM    9  O   UNL     1       8.659  25.495  57.833  1.00  0.00    -0.271 OA
HETATM   10  C   UNL     1       7.691  26.449  53.524  1.00  0.00     0.035 C 
HETATM   11  C   UNL     1       7.907  25.368  52.465  1.00  0.00     0.002 C 
HETATM   12  C   UNL     1       7.989  23.973  53.081  1.00  0.00     0.002 C 
HETATM   13  C   UNL     1       6.772  23.658  53.951  1.00  0.00     0.027 C 
HETATM   14  H   UNL     1       8.000  23.768  56.289  1.00  0.00     0.163 HD
ENDROOT
BRANCH   1  15
HETATM   15  C   UNL     1       8.123  28.183  56.875  1.00  0.00     0.146 C 
BRANCH  15  16
HETATM   16  C   UNL     1       7.453  29.191  57.772  1.00  0.00     0.224 C 
HETATM   17  N   UNL     1       8.328  29.961  58.492  1.00  0.00    -0.327 N 
HETATM   18  H   UNL     1       9.287  29.967  58.156  1.00  0.00     0.169 HD
HETATM   19  O   UNL     1       6.235  29.079  57.882  1.00  0.00    -0.273 OA
BRANCH  17  20
HETATM   20  C   UNL     1       8.145  30.763  59.649  1.00  0.00     0.040 A 
HETATM   21  C   UNL     1       7.189  31.767  59.884  1.00  0.00    -0.035 A 
HETATM   22  C   UNL     1       7.161  32.397  61.154  1.00  0.00     0.015 A 
HETATM   23  C   UNL     1       6.170  32.268  58.902  1.00  0.00     0.050 C 
HETATM   24  C   UNL     1       8.058  32.069  62.174  1.00  0.00    -0.061 A 
HETATM   25  C   UNL     1       7.988  32.743  63.511  1.00  0.00     0.048 C 
HETATM   26  C   UNL     1       8.999  31.076  61.934  1.00  0.00     0.009 A 
HETATM   27  C   UNL     1       9.043  30.443  60.691  1.00  0.00     0.030 A 
ENDBRANCH  17  20
ENDBRANCH  15  16
ENDBRANCH   1  15
TORSDOF 3
ENDMDL
MODEL 4
REMARK VINA RESULT:      -8.8      3.193      4.135
REMARK  3 active torsions:
REMARK  status: ('A' for Active; 'I' for Inactive)
REMARK    1  A    between atoms: C_6  and  N_7 
REMARK       I    between atoms: N_7  and  C_8 
REMARK    2  A    between atoms: C_8  and  C_9 
REMARK    3  A    between atoms: C_9  and  C_10 
ROOT
HETATM    1  C   UNL     1       4.734  27.566  51.959  1.00  0.00     0.286 C 
HETATM    2  N   UNL     1       4.138  27.096  53.296  1.00  0.00    -0.056 N 
HETATM    3  H   UNL     1       3.134  26.939  53.138  1.00  0.00     0.278 HD
HETATM    4  H   UNL     1       4.486  26.135  53.507  1.00  0.00     0.278 HD
HETATM    5  C   UNL     1       4.296  27.984  54.487  1.00  0.00     0.209 C 
HETATM    6  C   UNL     1       4.035  29.449  54.078  1.00  0.00     0.115 C 
HETATM    7  N   UNL     1       4.871  29.844  52.951  1.00  0.00    -0.353 N 
HETATM    8  C   UNL     1       5.185  29.030  51.898  1.00  0.00     0.249 C 
HETATM    9  O   UNL     1       5.794  29.482  50.934  1.00  0.00    -0.271 OA
HETATM   10  C   UNL     1       5.675  27.780  55.118  1.00  0.00     0.035 C 
HETATM   11  C   UNL     1       5.870  28.726  56.302  1.00  0.00     0.002 C 
HETATM   12  C   UNL     1       5.623  30.183  55.917  1.00  0.00     0.002 C 
HETATM   13  C   UNL     1       4.251  30.381  55.272  1.00  0.00     0.027 C 
HETATM   14  H   UNL     1       5.104  30.826  52.810  1.00  0.00     0.163 HD
ENDROOT
BRANCH   1  15
HETATM   15  C   UNL     1       5.866  26.635  51.501  1.00  0.00     0.146 C 
BRANCH  15  16
HETATM   16  C   UNL     1       5.730  25.377  52.318  1.00  0.00     0.224 C 
HETATM   17  N   UNL     1       6.820  25.104  53.101  1.00  0.00    -0.327 N 
HETATM   18  H   UNL     1       7.455  25.882  53.257  1.00  0.00     0.169 HD
HETATM   19  O   UNL     1       4.761  24.671  52.051  1.00  0.00    -0.273 OA
BRANCH  17  20
HETATM   20  C   UNL     1       7.245  23.911  53.743  1.00  0.00     0.040 A 
HETATM   21  C   UNL     1       7.189  23.576  55.108  1.00  0.00    -0.035 A 
HETATM   22  C   UNL     1       7.620  22.288  55.512  1.00  0.00     0.015 A 
HETATM   23  C   UNL     1       6.718  24.468  56.220  1.00  0.00     0.050 C 
HETATM   24  C   UNL     1       8.113  21.344  54.606  1.00  0.00    -0.061 A 
HETATM   25  C   UNL     1       8.543  19.984  55.066  1.00  0.00     0.048 C 
HETATM   26  C   UNL     1       8.164  21.681  53.260  1.00  0.00     0.009 A 
HETATM   27  C   UNL     1       7.744  22.945  52.842  1.00  0.00     0.030 A 
ENDBRANCH  17  20
ENDBRANCH  15  16
ENDBRANCH   1  15
TORSDOF 3
ENDMDL
MODEL 5
REMARK VINA RESULT:      -8.8      2.796      3.695
REMARK  3 active torsions:
REMARK  status: ('A' for Active; 'I' for Inactive)
REMARK    1  A    between atoms: C_6  and  N_7 
REMARK       I    between atoms: N_7  and  C_8 
REMARK    2  A    between atoms: C_8  and  C_9 
REMARK    3  A    between atoms: C_9  and  C_10 
ROOT
HETATM    1  C   UNL     1       5.162  27.663  55.706  1.00  0.00     0.286 C 
HETATM    2  N   UNL     1       3.899  28.269  56.338  1.00  0.00    -0.056 N 
HETATM    3  H   UNL     1       3.092  27.798  55.907  1.00  0.00     0.278 HD
HETATM    4  H   UNL     1       3.832  27.963  57.333  1.00  0.00     0.278 HD
HETATM    5  C   UNL     1       3.697  29.746  56.229  1.00  0.00     0.209 C 
HETATM    6  C   UNL     1       4.064  30.214  54.805  1.00  0.00     0.115 C 
HETATM    7  N   UNL     1       5.408  29.788  54.434  1.00  0.00    -0.353 N 
HETATM    8  C   UNL     1       5.958  28.583  54.772  1.00  0.00     0.249 C 
HETATM    9  O   UNL     1       7.049  28.257  54.317  1.00  0.00    -0.271 OA
HETATM   10  C   UNL     1       4.495  30.468  57.316  1.00  0.00     0.035 C 
HETATM   11  C   UNL     1       4.343  31.982  57.178  1.00  0.00     0.002 C 
HETATM   12  C   UNL     1       4.709  32.469  55.777  1.00  0.00     0.002 C 
HETATM   13  C   UNL     1       3.922  31.733  54.691  1.00  0.00     0.027 C 
HETATM   14  H   UNL     1       5.932  30.310  53.733  1.00  0.00     0.163 HD
ENDROOT
BRANCH   1  15
HETATM   15  C   UNL     1       6.080  27.059  56.778  1.00  0.00     0.146 C 
BRANCH  15  16
HETATM   16  C   UNL     1       6.205  25.595  56.448  1.00  0.00     0.224 C 
HETATM   17  N   UNL     1       7.208  25.310  55.561  1.00  0.00    -0.327 N 
HETATM   18  H   UNL     1       7.907  26.037  55.439  1.00  0.00     0.169 HD
HETATM   19  O   UNL     1       5.299  24.877  56.863  1.00  0.00    -0.273 OA
BRANCH  17  20
HETATM   20  C   UNL     1       7.456  24.168  54.754  1.00  0.00     0.040 A 
HETATM   21  C   UNL     1       7.678  24.100  53.366  1.00  0.00    -0.035 A 
HETATM   22  C   UNL     1       7.969  22.841  52.784  1.00  0.00     0.015 A 
HETATM   23  C   UNL     1       7.626  25.251  52.404  1.00  0.00     0.050 C 
HETATM   24  C   UNL     1       8.029  21.664  53.535  1.00  0.00    -0.061 A 
HETATM   25  C   UNL     1       8.359  20.352  52.888  1.00  0.00     0.048 C 
HETATM   26  C   UNL     1       7.810  21.739  54.904  1.00  0.00     0.009 A 
HETATM   27  C   UNL     1       7.522  22.969  55.497  1.00  0.00     0.030 A 
ENDBRANCH  17  20
ENDBRANCH  15  16
ENDBRANCH   1  15
TORSDOF 3
ENDMDL
MODEL 6
REMARK VINA RESULT:      -8.7      1.842      7.559
REMARK  3 active torsions:
REMARK  status: ('A' for Active; 'I' for Inactive)
REMARK    1  A    between atoms: C_6  and  N_7 
REMARK       I    between atoms: N_7  and  C_8 
REMARK    2  A    between atoms: C_8  and  C_9 
REMARK    3  A    between atoms: C_9  and  C_10 
ROOT
HETATM    1  C   UNL     1       6.937  25.005  54.793  1.00  0.00     0.286 C 
HETATM    2  N   UNL     1       8.148  24.338  55.466  1.00  0.00    -0.056 N 
HETATM    3  H   UNL     1       8.957  24.952  55.304  1.00  0.00     0.278 HD
HETATM    4  H   UNL     1       8.033  24.385  56.501  1.00  0.00     0.278 HD
HETATM    5  C   UNL     1       8.514  22.953  55.041  1.00  0.00     0.209 C 
HETATM    6  C   UNL     1       8.413  22.840  53.505  1.00  0.00     0.115 C 
HETATM    7  N   UNL     1       7.102  23.261  53.025  1.00  0.00    -0.353 N 
HETATM    8  C   UNL     1       6.388  24.304  53.545  1.00  0.00     0.249 C 
HETATM    9  O   UNL     1       5.348  24.665  53.002  1.00  0.00    -0.271 OA
HETATM   10  C   UNL     1       7.642  21.930  55.771  1.00  0.00     0.035 C 
HETATM   11  C   UNL     1       7.968  20.513  55.300  1.00  0.00     0.002 C 
HETATM   12  C   UNL     1       7.867  20.376  53.782  1.00  0.00     0.002 C 
HETATM   13  C   UNL     1       8.726  21.411  53.055  1.00  0.00     0.027 C 
HETATM   14  H   UNL     1       6.745  22.903  52.141  1.00  0.00     0.163 HD
ENDROOT
BRANCH   1  15
HETATM   15  C   UNL     1       5.812  25.257  55.807  1.00  0.00     0.146 C 
BRANCH  15  16
HETATM   16  C   UNL     1       6.397  26.152  56.869  1.00  0.00     0.224 C 
HETATM   17  N   UNL     1       6.388  27.481  56.541  1.00  0.00    -0.327 N 
HETATM   18  H   UNL     1       5.766  27.742  55.781  1.00  0.00     0.169 HD
HETATM   19  O   UNL     1       6.963  25.578  57.796  1.00  0.00    -0.273 OA
BRANCH  17  20
HETATM   20  C   UNL     1       7.104  28.588  57.068  1.00  0.00     0.040 A 
HETATM   21  C   UNL     1       6.604  29.779  57.624  1.00  0.00    -0.035 A 
HETATM   22  C   UNL     1       7.521  30.724  58.148  1.00  0.00     0.015 A 
HETATM   23  C   UNL     1       5.159  30.175  57.715  1.00  0.00     0.050 C 
HETATM   24  C   UNL     1       8.904  30.523  58.118  1.00  0.00    -0.061 A 
HETATM   25  C   UNL     1       9.844  31.536  58.699  1.00  0.00     0.048 C 
HETATM   26  C   UNL     1       9.390  29.344  57.569  1.00  0.00     0.009 A 
HETATM   27  C   UNL     1       8.504  28.401  57.048  1.00  0.00     0.030 A 
ENDBRANCH  17  20
ENDBRANCH  15  16
ENDBRANCH   1  15
TORSDOF 3
ENDMDL
MODEL 7
REMARK VINA RESULT:      -8.6      1.716      2.644
REMARK  3 active torsions:
REMARK  status: ('A' for Active; 'I' for Inactive)
REMARK    1  A    between atoms: C_6  and  N_7 
REMARK       I    between atoms: N_7  and  C_8 
REMARK    2  A    between atoms: C_8  and  C_9 
REMARK    3  A    between atoms: C_9  and  C_10 
ROOT
HETATM    1  C   UNL     1       7.164  27.635  56.000  1.00  0.00     0.286 C 
HETATM    2  N   UNL     1       7.008  29.114  55.613  1.00  0.00    -0.056 N 
HETATM    3  H   UNL     1       7.484  29.240  54.710  1.00  0.00     0.278 HD
HETATM    4  H   UNL     1       6.011  29.302  55.370  1.00  0.00     0.278 HD
HETATM    5  C   UNL     1       7.518  30.149  56.564  1.00  0.00     0.209 C 
HETATM    6  C   UNL     1       8.891  29.708  57.118  1.00  0.00     0.115 C 
HETATM    7  N   UNL     1       8.827  28.373  57.700  1.00  0.00    -0.353 N 
HETATM    8  C   UNL     1       8.086  27.343  57.190  1.00  0.00     0.249 C 
HETATM    9  O   UNL     1       8.185  26.220  57.674  1.00  0.00    -0.271 OA
HETATM   10  C   UNL     1       6.488  30.407  57.665  1.00  0.00     0.035 C 
HETATM   11  C   UNL     1       7.025  31.419  58.676  1.00  0.00     0.002 C 
HETATM   12  C   UNL     1       8.380  31.000  59.243  1.00  0.00     0.002 C 
HETATM   13  C   UNL     1       9.402  30.725  58.140  1.00  0.00     0.027 C 
HETATM   14  H   UNL     1       9.494  28.099  58.419  1.00  0.00     0.163 HD
ENDROOT
BRANCH   1  15
HETATM   15  C   UNL     1       5.796  26.970  56.204  1.00  0.00     0.146 C 
BRANCH  15  16
HETATM   16  C   UNL     1       5.748  25.807  55.248  1.00  0.00     0.224 C 
HETATM   17  N   UNL     1       6.691  24.846  55.496  1.00  0.00    -0.327 N 
HETATM   18  H   UNL     1       7.119  24.878  56.417  1.00  0.00     0.169 HD
HETATM   19  O   UNL     1       5.007  25.946  54.278  1.00  0.00    -0.273 OA
BRANCH  17  20
HETATM   20  C   UNL     1       7.203  23.796  54.688  1.00  0.00     0.040 A 
HETATM   21  C   UNL     1       7.678  23.852  53.365  1.00  0.00    -0.035 A 
HETATM   22  C   UNL     1       8.203  22.673  52.780  1.00  0.00     0.015 A 
HETATM   23  C   UNL     1       7.679  25.061  52.475  1.00  0.00     0.050 C 
HETATM   24  C   UNL     1       8.250  21.454  53.462  1.00  0.00    -0.061 A 
HETATM   25  C   UNL     1       8.830  20.231  52.818  1.00  0.00     0.048 C 
HETATM   26  C   UNL     1       7.780  21.407  54.768  1.00  0.00     0.009 A 
HETATM   27  C   UNL     1       7.260  22.557  55.363  1.00  0.00     0.030 A 
ENDBRANCH  17  20
ENDBRANCH  15  16
ENDBRANCH   1  15
TORSDOF 3
ENDMDL
MODEL 8
REMARK VINA RESULT:      -8.5      3.501      4.733
REMARK  3 active torsions:
REMARK  status: ('A' for Active; 'I' for Inactive)
REMARK    1  A    between atoms: C_6  and  N_7 
REMARK       I    between atoms: N_7  and  C_8 
REMARK    2  A    between atoms: C_8  and  C_9 
REMARK    3  A    between atoms: C_9  and  C_10 
ROOT
HETATM    1  C   UNL     1       5.158  27.272  53.859  1.00  0.00     0.286 C 
HETATM    2  N   UNL     1       3.705  27.618  53.493  1.00  0.00    -0.056 N 
HETATM    3  H   UNL     1       3.351  26.849  52.908  1.00  0.00     0.278 HD
HETATM    4  H   UNL     1       3.110  27.543  54.347  1.00  0.00     0.278 HD
HETATM    5  C   UNL     1       3.445  28.909  52.786  1.00  0.00     0.209 C 
HETATM    6  C   UNL     1       4.515  29.122  51.693  1.00  0.00     0.115 C 
HETATM    7  N   UNL     1       5.863  29.027  52.241  1.00  0.00    -0.353 N 
HETATM    8  C   UNL     1       6.241  28.142  53.212  1.00  0.00     0.249 C 
HETATM    9  O   UNL     1       7.423  28.048  53.528  1.00  0.00    -0.271 OA
HETATM   10  C   UNL     1       3.386  30.059  53.793  1.00  0.00     0.035 C 
HETATM   11  C   UNL     1       3.180  31.392  53.074  1.00  0.00     0.002 C 
HETATM   12  C   UNL     1       4.233  31.628  51.992  1.00  0.00     0.002 C 
HETATM   13  C   UNL     1       4.302  30.469  50.998  1.00  0.00     0.027 C 
HETATM   14  H   UNL     1       6.635  29.502  51.777  1.00  0.00     0.163 HD
ENDROOT
BRANCH   1  15
HETATM   15  C   UNL     1       5.346  27.221  55.381  1.00  0.00     0.146 C 
BRANCH  15  16
HETATM   16  C   UNL     1       5.863  25.841  55.694  1.00  0.00     0.224 C 
HETATM   17  N   UNL     1       6.925  25.457  54.919  1.00  0.00    -0.327 N 
HETATM   18  H   UNL     1       7.409  26.207  54.434  1.00  0.00     0.169 HD
HETATM   19  O   UNL     1       5.171  25.175  56.460  1.00  0.00    -0.273 OA
BRANCH  17  20
HETATM   20  C   UNL     1       7.485  24.180  54.653  1.00  0.00     0.040 A 
HETATM   21  C   UNL     1       8.151  23.308  55.534  1.00  0.00    -0.035 A 
HETATM   22  C   UNL     1       8.574  22.044  55.051  1.00  0.00     0.015 A 
HETATM   23  C   UNL     1       8.483  23.584  56.971  1.00  0.00     0.050 C 
HETATM   24  C   UNL     1       8.368  21.640  53.729  1.00  0.00    -0.061 A 
HETATM   25  C   UNL     1       8.812  20.288  53.257  1.00  0.00     0.048 C 
HETATM   26  C   UNL     1       7.709  22.505  52.866  1.00  0.00     0.009 A 
HETATM   27  C   UNL     1       7.284  23.754  53.322  1.00  0.00     0.030 A 
ENDBRANCH  17  20
ENDBRANCH  15  16
ENDBRANCH   1  15
TORSDOF 3
ENDMDL
MODEL 9
REMARK VINA RESULT:      -8.3      2.073      3.390
REMARK  3 active torsions:
REMARK  status: ('A' for Active; 'I' for Inactive)
REMARK    1  A    between atoms: C_6  and  N_7 
REMARK       I    between atoms: N_7  and  C_8 
REMARK    2  A    between atoms: C_8  and  C_9 
REMARK    3  A    between atoms: C_9  and  C_10 
ROOT
HETATM    1  C   UNL     1       6.555  29.117  56.633  1.00  0.00     0.286 C 
HETATM    2  N   UNL     1       5.532  30.165  56.165  1.00  0.00    -0.056 N 
HETATM    3  H   UNL     1       5.956  30.666  55.373  1.00  0.00     0.278 HD
HETATM    4  H   UNL     1       4.725  29.680  55.717  1.00  0.00     0.278 HD
HETATM    5  C   UNL     1       5.051  31.173  57.158  1.00  0.00     0.209 C 
HETATM    6  C   UNL     1       6.244  31.681  57.996  1.00  0.00     0.115 C 
HETATM    7  N   UNL     1       6.976  30.577  58.605  1.00  0.00    -0.353 N 
HETATM    8  C   UNL     1       7.208  29.375  57.996  1.00  0.00     0.249 C 
HETATM    9  O   UNL     1       7.937  28.547  58.533  1.00  0.00    -0.271 OA
HETATM   10  C   UNL     1       3.933  30.576  58.015  1.00  0.00     0.035 C 
HETATM   11  C   UNL     1       3.475  31.578  59.074  1.00  0.00     0.002 C 
HETATM   12  C   UNL     1       4.639  32.089  59.921  1.00  0.00     0.002 C 
HETATM   13  C   UNL     1       5.762  32.669  59.061  1.00  0.00     0.027 C 
HETATM   14  H   UNL     1       7.516  30.731  59.455  1.00  0.00     0.163 HD
ENDROOT
BRANCH   1  15
HETATM   15  C   UNL     1       5.961  27.704  56.579  1.00  0.00     0.146 C 
BRANCH  15  16
HETATM   16  C   UNL     1       6.767  26.947  55.556  1.00  0.00     0.224 C 
HETATM   17  N   UNL     1       6.211  25.752  55.185  1.00  0.00    -0.327 N 
HETATM   18  H   UNL     1       5.228  25.635  55.412  1.00  0.00     0.169 HD
HETATM   19  O   UNL     1       7.886  27.397  55.322  1.00  0.00    -0.273 OA
BRANCH  17  20
HETATM   20  C   UNL     1       6.764  24.617  54.536  1.00  0.00     0.040 A 
HETATM   21  C   UNL     1       7.104  24.454  53.180  1.00  0.00    -0.035 A 
HETATM   22  C   UNL     1       7.705  23.238  52.770  1.00  0.00     0.015 A 
HETATM   23  C   UNL     1       6.881  25.456  52.085  1.00  0.00     0.050 C 
HETATM   24  C   UNL     1       7.958  22.189  53.659  1.00  0.00    -0.061 A 
HETATM   25  C   UNL     1       8.613  20.924  53.194  1.00  0.00     0.048 C 
HETATM   26  C   UNL     1       7.620  22.357  54.995  1.00  0.00     0.009 A 
HETATM   27  C   UNL     1       7.027  23.547  55.420  1.00  0.00     0.030 A 
ENDBRANCH  17  20
ENDBRANCH  15  16
ENDBRANCH   1  15
TORSDOF 3
ENDMDL
MODEL 10
REMARK VINA RESULT:      -8.3      3.341      8.800
REMARK  3 active torsions:
REMARK  status: ('A' for Active; 'I' for Inactive)
REMARK    1  A    between atoms: C_6  and  N_7 
REMARK       I    between atoms: N_7  and  C_8 
REMARK    2  A    between atoms: C_8  and  C_9 
REMARK    3  A    between atoms: C_9  and  C_10 
ROOT
HETATM    1  C   UNL     1       6.806  29.347  57.723  1.00  0.00     0.286 C 
HETATM    2  N   UNL     1       5.342  28.882  57.659  1.00  0.00    -0.056 N 
HETATM    3  H   UNL     1       5.165  28.330  58.509  1.00  0.00     0.278 HD
HETATM    4  H   UNL     1       4.715  29.705  57.791  1.00  0.00     0.278 HD
HETATM    5  C   UNL     1       4.909  28.079  56.476  1.00  0.00     0.209 C 
HETATM    6  C   UNL     1       5.993  27.033  56.137  1.00  0.00     0.115 C 
HETATM    7  N   UNL     1       7.299  27.658  55.963  1.00  0.00    -0.353 N 
HETATM    8  C   UNL     1       7.762  28.703  56.712  1.00  0.00     0.249 C 
HETATM    9  O   UNL     1       8.920  29.088  56.578  1.00  0.00    -0.271 OA
HETATM   10  C   UNL     1       4.587  29.003  55.300  1.00  0.00     0.035 C 
HETATM   11  C   UNL     1       4.200  28.188  54.067  1.00  0.00     0.002 C 
HETATM   12  C   UNL     1       5.264  27.152  53.708  1.00  0.00     0.002 C 
HETATM   13  C   UNL     1       5.596  26.240  54.890  1.00  0.00     0.027 C 
HETATM   14  H   UNL     1       8.006  27.206  55.385  1.00  0.00     0.163 HD
ENDROOT
BRANCH   1  15
HETATM   15  C   UNL     1       6.903  30.877  57.656  1.00  0.00     0.146 C 
BRANCH  15  16
HETATM   16  C   UNL     1       7.661  31.304  58.886  1.00  0.00     0.224 C 
HETATM   17  N   UNL     1       6.943  31.191  60.046  1.00  0.00    -0.327 N 
HETATM   18  H   UNL     1       6.119  30.598  59.998  1.00  0.00     0.169 HD
HETATM   19  O   UNL     1       8.737  31.860  58.681  1.00  0.00    -0.273 OA
BRANCH  17  20
HETATM   20  C   UNL     1       7.132  31.764  61.332  1.00  0.00     0.040 A 
HETATM   21  C   UNL     1       8.124  31.478  62.288  1.00  0.00    -0.035 A 
HETATM   22  C   UNL     1       8.149  32.231  63.488  1.00  0.00     0.015 A 
HETATM   23  C   UNL     1       9.183  30.421  62.176  1.00  0.00     0.050 C 
HETATM   24  C   UNL     1       7.217  33.235  63.764  1.00  0.00    -0.061 A 
HETATM   25  C   UNL     1       7.285  34.024  65.036  1.00  0.00     0.048 C 
HETATM   26  C   UNL     1       6.242  33.513  62.815  1.00  0.00     0.009 A 
HETATM   27  C   UNL     1       6.200  32.783  61.626  1.00  0.00     0.030 A 
ENDBRANCH  17  20
ENDBRANCH  15  16
ENDBRANCH   1  15
TORSDOF 3
ENDMDL
