MODEL 1
REMARK VINA RESULT:     -10.8      0.000      0.000
REMARK  7 active torsions:
REMARK  status: ('A' for Active; 'I' for Inactive)
REMARK    1  A    between atoms: C_4  and  N_5 
REMARK    2  A    between atoms: C_6  and  S_7 
REMARK    3  A    between atoms: S_7  and  C_8 
REMARK    4  A    between atoms: C_8  and  C_9 
REMARK       I    between atoms: C_9  and  N_10 
REMARK    5  A    between atoms: C_12  and  C_13 
REMARK    6  A    between atoms: C_13  and  N_14 
REMARK       I    between atoms: N_14  and  C_15 
REMARK       I    between atoms: C_15  and  N_16 
REMARK    7  A    between atoms: N_16  and  C_17 
ROOT
HETATM    1  C   UNL     1       7.005  28.635  57.484  1.00  0.00     0.229 C 
HETATM    2  N   UNL     1       7.770  29.582  58.191  1.00  0.00    -0.351 N 
HETATM    3  C   UNL     1       6.994  30.574  58.941  1.00  0.00     0.132 C 
HETATM    4  C   UNL     1       7.826  31.263  60.024  1.00  0.00     0.021 C 
HETATM    5  C   UNL     1       9.035  31.934  59.364  1.00  0.00     0.009 C 
HETATM    6  C   UNL     1       9.879  30.870  58.677  1.00  0.00     0.020 C 
HETATM    7  C   UNL     1       9.074  30.025  57.694  1.00  0.00     0.126 C 
HETATM    8  O   UNL     1       5.770  28.693  57.501  1.00  0.00    -0.273 OA
ENDROOT
BRANCH   1   9
HETATM    9  C   UNL     1       7.689  27.410  56.889  1.00  0.00     0.185 C 
BRANCH   9  10
HETATM   10  S   UNL     1       7.945  27.386  55.108  1.00  0.00    -0.082 SA
BRANCH  10  11
HETATM   11  C   UNL     1       6.443  26.792  54.489  1.00  0.00     0.173 A 
HETATM   12  N   UNL     1       6.215  25.470  54.110  1.00  0.00    -0.299 N 
HETATM   13  C   UNL     1       4.932  25.466  53.598  1.00  0.00     0.118 A 
HETATM   14  C   UNL     1       4.470  26.756  53.688  1.00  0.00     0.137 A 
HETATM   15  N   UNL     1       5.413  27.569  54.243  1.00  0.00    -0.235 NA
BRANCH  12  16
HETATM   16  C   UNL     1       7.071  24.330  54.222  1.00  0.00     0.047 A 
HETATM   17  C   UNL     1       7.151  23.672  55.466  1.00  0.00     0.037 A 
HETATM   18  C   UNL     1       7.984  22.561  55.653  1.00  0.00    -0.060 A 
HETATM   19  C   UNL     1       8.094  21.895  56.993  1.00  0.00     0.048 C 
HETATM   20  C   UNL     1       8.715  22.077  54.571  1.00  0.00     0.007 A 
HETATM   21  C   UNL     1       8.627  22.702  53.326  1.00  0.00     0.009 A 
HETATM   22  C   UNL     1       7.826  23.843  53.133  1.00  0.00    -0.035 A 
HETATM   23  C   UNL     1       7.872  24.481  51.770  1.00  0.00     0.050 C 
ENDBRANCH  12  16
ENDBRANCH  10  11
ENDBRANCH   9  10
ENDBRANCH   1   9
BRANCH   4  24
HETATM   24  C   UNL     1       6.979  32.261  60.820  1.00  0.00     0.130 C 
BRANCH  24  25
HETATM   25  N   UNL     1       6.015  31.582  61.669  1.00  0.00    -0.342 N 
HETATM   26  C   UNL     1       5.560  31.902  62.913  1.00  0.00     0.320 C 
HETATM   27  N   UNL     1       6.153  32.982  63.504  1.00  0.00    -0.309 N 
HETATM   28  O   UNL     1       4.670  31.202  63.386  1.00  0.00    -0.247 OA
HETATM   29  H   UNL     1       6.846  33.462  62.958  1.00  0.00     0.170 HD
HETATM   30  H   UNL     1       5.467  30.828  61.269  1.00  0.00     0.164 HD
BRANCH  27  31
HETATM   31  C   UNL     1       5.889  33.518  64.783  1.00  0.00     0.039 A 
HETATM   32  C   UNL     1       4.621  33.897  65.225  1.00  0.00     0.071 A 
HETATM   33  C   UNL     1       4.461  34.415  66.507  1.00  0.00     0.118 A 
HETATM   34  F   UNL     1       3.241  34.779  66.924  1.00  0.00    -0.206 F 
HETATM   35  C   UNL     1       5.543  34.563  67.367  1.00  0.00     0.042 A 
HETATM   36  C   UNL     1       6.812  34.188  66.938  1.00  0.00     0.005 A 
HETATM   37  C   UNL     1       6.982  33.667  65.651  1.00  0.00     0.030 A 
ENDBRANCH  27  31
ENDBRANCH  24  25
ENDBRANCH   4  24
TORSDOF 7
ENDMDL
MODEL 2
REMARK VINA RESULT:     -10.6      4.074     11.721
REMARK  7 active torsions:
REMARK  status: ('A' for Active; 'I' for Inactive)
REMARK    1  A    between atoms: C_4  and  N_5 
REMARK    2  A    between atoms: C_6  and  S_7 
REMARK    3  A    between atoms: S_7  and  C_8 
REMARK    4  A    between atoms: C_8  and  C_9 
REMARK       I    between atoms: C_9  and  N_10 
REMARK    5  A    between atoms: C_12  and  C_13 
REMARK    6  A    between atoms: C_13  and  N_14 
REMARK       I    between atoms: N_14  and  C_15 
REMARK       I    between atoms: C_15  and  N_16 
REMARK    7  A    between atoms: N_16  and  C_17 
ROOT
HETATM    1  C   UNL     1       5.164  30.896  57.948  1.00  0.00     0.229 C 
HETATM    2  N   UNL     1       6.431  30.356  57.660  1.00  0.00    -0.351 N 
HETATM    3  C   UNL     1       6.420  29.164  56.806  1.00  0.00     0.132 C 
HETATM    4  C   UNL     1       7.782  28.901  56.161  1.00  0.00     0.021 C 
HETATM    5  C   UNL     1       8.830  28.744  57.268  1.00  0.00     0.009 C 
HETATM    6  C   UNL     1       8.894  30.031  58.077  1.00  0.00     0.020 C 
HETATM    7  C   UNL     1       7.532  30.451  58.621  1.00  0.00     0.126 C 
HETATM    8  O   UNL     1       4.140  30.352  57.515  1.00  0.00    -0.273 OA
ENDROOT
BRANCH   1   9
HETATM    9  C   UNL     1       5.062  32.271  58.599  1.00  0.00     0.185 C 
BRANCH   9  10
HETATM   10  S   UNL     1       4.076  32.408  60.098  1.00  0.00    -0.082 SA
BRANCH  10  11
HETATM   11  C   UNL     1       4.220  34.078  60.527  1.00  0.00     0.173 A 
HETATM   12  N   UNL     1       5.071  34.566  61.516  1.00  0.00    -0.299 N 
HETATM   13  C   UNL     1       4.796  35.919  61.583  1.00  0.00     0.118 A 
HETATM   14  C   UNL     1       3.812  36.165  60.657  1.00  0.00     0.137 A 
HETATM   15  N   UNL     1       3.463  35.018  60.007  1.00  0.00    -0.235 NA
BRANCH  12  16
HETATM   16  C   UNL     1       6.047  33.876  62.302  1.00  0.00     0.047 A 
HETATM   17  C   UNL     1       7.145  33.289  61.642  1.00  0.00     0.037 A 
HETATM   18  C   UNL     1       8.126  32.580  62.347  1.00  0.00    -0.060 A 
HETATM   19  C   UNL     1       9.269  31.922  61.629  1.00  0.00     0.048 C 
HETATM   20  C   UNL     1       8.030  32.492  63.733  1.00  0.00     0.007 A 
HETATM   21  C   UNL     1       6.962  33.090  64.404  1.00  0.00     0.009 A 
HETATM   22  C   UNL     1       5.946  33.770  63.706  1.00  0.00    -0.035 A 
HETATM   23  C   UNL     1       4.801  34.304  64.526  1.00  0.00     0.050 C 
ENDBRANCH  12  16
ENDBRANCH  10  11
ENDBRANCH   9  10
ENDBRANCH   1   9
BRANCH   4  24
HETATM   24  C   UNL     1       7.730  27.677  55.241  1.00  0.00     0.130 C 
BRANCH  24  25
HETATM   25  N   UNL     1       6.604  26.818  55.562  1.00  0.00    -0.342 N 
HETATM   26  C   UNL     1       6.472  25.465  55.461  1.00  0.00     0.320 C 
HETATM   27  N   UNL     1       7.526  24.806  54.894  1.00  0.00    -0.309 N 
HETATM   28  O   UNL     1       5.434  24.965  55.882  1.00  0.00    -0.247 OA
HETATM   29  H   UNL     1       8.316  25.371  54.633  1.00  0.00     0.170 HD
HETATM   30  H   UNL     1       5.821  27.217  56.068  1.00  0.00     0.164 HD
BRANCH  27  31
HETATM   31  C   UNL     1       7.649  23.421  54.654  1.00  0.00     0.039 A 
HETATM   32  C   UNL     1       7.591  22.447  55.651  1.00  0.00     0.071 A 
HETATM   33  C   UNL     1       7.721  21.102  55.313  1.00  0.00     0.118 A 
HETATM   34  F   UNL     1       7.666  20.172  56.276  1.00  0.00    -0.206 F 
HETATM   35  C   UNL     1       7.905  20.702  53.995  1.00  0.00     0.042 A 
HETATM   36  C   UNL     1       7.963  21.664  52.992  1.00  0.00     0.005 A 
HETATM   37  C   UNL     1       7.835  23.017  53.322  1.00  0.00     0.030 A 
ENDBRANCH  27  31
ENDBRANCH  24  25
ENDBRANCH   4  24
TORSDOF 7
ENDMDL
MODEL 3
REMARK VINA RESULT:     -10.5      4.415     11.544
REMARK  7 active torsions:
REMARK  status: ('A' for Active; 'I' for Inactive)
REMARK    1  A    between atoms: C_4  and  N_5 
REMARK    2  A    between atoms: C_6  and  S_7 
REMARK    3  A    between atoms: S_7  and  C_8 
REMARK    4  A    between atoms: C_8  and  C_9 
REMARK       I    between atoms: C_9  and  N_10 
REMARK    5  A    between atoms: C_12  and  C_13 
REMARK    6  A    between atoms: C_13  and  N_14 
REMARK       I    between atoms: N_14  and  C_15 
REMARK       I    between atoms: C_15  and  N_16 
REMARK    7  A    between atoms: N_16  and  C_17 
ROOT
HETATM    1  C   UNL     1       5.162  30.899  56.670  1.00  0.00     0.229 C 
HETATM    2  N   UNL     1       6.225  29.977  56.622  1.00  0.00    -0.351 N 
HETATM    3  C   UNL     1       6.241  29.107  55.442  1.00  0.00     0.132 C 
HETATM    4  C   UNL     1       7.614  28.473  55.208  1.00  0.00     0.021 C 
HETATM    5  C   UNL     1       8.006  27.673  56.456  1.00  0.00     0.009 C 
HETATM    6  C   UNL     1       8.081  28.617  57.647  1.00  0.00     0.020 C 
HETATM    7  C   UNL     1       6.795  29.414  57.847  1.00  0.00     0.126 C 
HETATM    8  O   UNL     1       4.310  30.917  55.773  1.00  0.00    -0.273 OA
ENDROOT
BRANCH   1   9
HETATM    9  C   UNL     1       5.186  32.021  57.701  1.00  0.00     0.185 C 
BRANCH   9  10
HETATM   10  S   UNL     1       4.301  31.749  59.244  1.00  0.00    -0.082 SA
BRANCH  10  11
HETATM   11  C   UNL     1       4.366  33.291  60.027  1.00  0.00     0.173 A 
HETATM   12  N   UNL     1       5.365  33.681  60.916  1.00  0.00    -0.299 N 
HETATM   13  C   UNL     1       4.973  34.930  61.361  1.00  0.00     0.118 A 
HETATM   14  C   UNL     1       3.785  35.214  60.735  1.00  0.00     0.137 A 
HETATM   15  N   UNL     1       3.418  34.192  59.910  1.00  0.00    -0.235 NA
BRANCH  12  16
HETATM   16  C   UNL     1       6.559  32.996  61.303  1.00  0.00     0.047 A 
HETATM   17  C   UNL     1       7.536  32.743  60.320  1.00  0.00     0.037 A 
HETATM   18  C   UNL     1       8.720  32.060  60.624  1.00  0.00    -0.060 A 
HETATM   19  C   UNL     1       9.734  31.759  59.558  1.00  0.00     0.048 C 
HETATM   20  C   UNL     1       8.948  31.659  61.938  1.00  0.00     0.007 A 
HETATM   21  C   UNL     1       8.002  31.924  62.929  1.00  0.00     0.009 A 
HETATM   22  C   UNL     1       6.789  32.573  62.631  1.00  0.00    -0.035 A 
HETATM   23  C   UNL     1       5.809  32.732  63.763  1.00  0.00     0.050 C 
ENDBRANCH  12  16
ENDBRANCH  10  11
ENDBRANCH   9  10
ENDBRANCH   1   9
BRANCH   4  24
HETATM   24  C   UNL     1       7.613  27.605  53.947  1.00  0.00     0.130 C 
BRANCH  24  25
HETATM   25  N   UNL     1       6.436  26.756  53.885  1.00  0.00    -0.342 N 
HETATM   26  C   UNL     1       6.322  25.402  53.986  1.00  0.00     0.320 C 
HETATM   27  N   UNL     1       7.497  24.711  54.078  1.00  0.00    -0.309 N 
HETATM   28  O   UNL     1       5.190  24.929  53.985  1.00  0.00    -0.247 OA
HETATM   29  H   UNL     1       8.337  25.263  54.097  1.00  0.00     0.170 HD
HETATM   30  H   UNL     1       5.523  27.196  53.907  1.00  0.00     0.164 HD
BRANCH  27  31
HETATM   31  C   UNL     1       7.671  23.314  54.176  1.00  0.00     0.039 A 
HETATM   32  C   UNL     1       7.926  22.480  53.087  1.00  0.00     0.071 A 
HETATM   33  C   UNL     1       8.085  21.111  53.287  1.00  0.00     0.118 A 
HETATM   34  F   UNL     1       8.328  20.315  52.236  1.00  0.00    -0.206 F 
HETATM   35  C   UNL     1       7.996  20.549  54.555  1.00  0.00     0.042 A 
HETATM   36  C   UNL     1       7.742  21.371  55.648  1.00  0.00     0.005 A 
HETATM   37  C   UNL     1       7.581  22.747  55.457  1.00  0.00     0.030 A 
ENDBRANCH  27  31
ENDBRANCH  24  25
ENDBRANCH   4  24
TORSDOF 7
ENDMDL
MODEL 4
REMARK VINA RESULT:     -10.3      3.923     12.331
REMARK  7 active torsions:
REMARK  status: ('A' for Active; 'I' for Inactive)
REMARK    1  A    between atoms: C_4  and  N_5 
REMARK    2  A    between atoms: C_6  and  S_7 
REMARK    3  A    between atoms: S_7  and  C_8 
REMARK    4  A    between atoms: C_8  and  C_9 
REMARK       I    between atoms: C_9  and  N_10 
REMARK    5  A    between atoms: C_12  and  C_13 
REMARK    6  A    between atoms: C_13  and  N_14 
REMARK       I    between atoms: N_14  and  C_15 
REMARK       I    between atoms: C_15  and  N_16 
REMARK    7  A    between atoms: N_16  and  C_17 
ROOT
HETATM    1  C   UNL     1       5.897  31.232  58.337  1.00  0.00     0.229 C 
HETATM    2  N   UNL     1       7.032  30.561  57.843  1.00  0.00    -0.351 N 
HETATM    3  C   UNL     1       6.760  29.555  56.812  1.00  0.00     0.132 C 
HETATM    4  C   UNL     1       8.009  29.201  56.003  1.00  0.00     0.021 C 
HETATM    5  C   UNL     1       9.090  28.690  56.963  1.00  0.00     0.009 C 
HETATM    6  C   UNL     1       9.426  29.789  57.960  1.00  0.00     0.020 C 
HETATM    7  C   UNL     1       8.196  30.313  58.695  1.00  0.00     0.126 C 
HETATM    8  O   UNL     1       4.769  30.939  57.922  1.00  0.00    -0.273 OA
ENDROOT
BRANCH   1   9
HETATM    9  C   UNL     1       6.076  32.469  59.209  1.00  0.00     0.185 C 
BRANCH   9  10
HETATM   10  S   UNL     1       5.138  32.545  60.743  1.00  0.00    -0.082 SA
BRANCH  10  11
HETATM   11  C   UNL     1       6.357  32.485  61.969  1.00  0.00     0.173 A 
HETATM   12  N   UNL     1       6.540  33.460  62.946  1.00  0.00    -0.299 N 
HETATM   13  C   UNL     1       7.665  33.057  63.641  1.00  0.00     0.118 A 
HETATM   14  C   UNL     1       8.092  31.892  63.054  1.00  0.00     0.137 A 
HETATM   15  N   UNL     1       7.274  31.546  62.019  1.00  0.00    -0.235 NA
BRANCH  12  16
HETATM   16  C   UNL     1       5.760  34.625  63.229  1.00  0.00     0.047 A 
HETATM   17  C   UNL     1       5.898  35.745  62.385  1.00  0.00     0.037 A 
HETATM   18  C   UNL     1       5.181  36.926  62.615  1.00  0.00    -0.060 A 
HETATM   19  C   UNL     1       5.368  38.127  61.735  1.00  0.00     0.048 C 
HETATM   20  C   UNL     1       4.283  36.973  63.678  1.00  0.00     0.007 A 
HETATM   21  C   UNL     1       4.115  35.864  64.508  1.00  0.00     0.009 A 
HETATM   22  C   UNL     1       4.859  34.684  64.315  1.00  0.00    -0.035 A 
HETATM   23  C   UNL     1       4.655  33.582  65.320  1.00  0.00     0.050 C 
ENDBRANCH  12  16
ENDBRANCH  10  11
ENDBRANCH   9  10
ENDBRANCH   1   9
BRANCH   4  24
HETATM   24  C   UNL     1       7.687  28.182  54.906  1.00  0.00     0.130 C 
BRANCH  24  25
HETATM   25  N   UNL     1       6.564  27.339  55.276  1.00  0.00    -0.342 N 
HETATM   26  C   UNL     1       6.438  25.982  55.256  1.00  0.00     0.320 C 
HETATM   27  N   UNL     1       7.495  25.294  54.731  1.00  0.00    -0.309 N 
HETATM   28  O   UNL     1       5.401  25.504  55.706  1.00  0.00    -0.247 OA
HETATM   29  H   UNL     1       8.283  25.846  54.438  1.00  0.00     0.170 HD
HETATM   30  H   UNL     1       5.779  27.765  55.757  1.00  0.00     0.164 HD
BRANCH  27  31
HETATM   31  C   UNL     1       7.623  23.898  54.575  1.00  0.00     0.039 A 
HETATM   32  C   UNL     1       7.596  22.987  55.632  1.00  0.00     0.071 A 
HETATM   33  C   UNL     1       7.729  21.625  55.375  1.00  0.00     0.118 A 
HETATM   34  F   UNL     1       7.704  20.756  56.395  1.00  0.00    -0.206 F 
HETATM   35  C   UNL     1       7.887  21.145  54.080  1.00  0.00     0.042 A 
HETATM   36  C   UNL     1       7.915  22.043  53.019  1.00  0.00     0.005 A 
HETATM   37  C   UNL     1       7.784  23.413  53.267  1.00  0.00     0.030 A 
ENDBRANCH  27  31
ENDBRANCH  24  25
ENDBRANCH   4  24
TORSDOF 7
ENDMDL
MODEL 5
REMARK VINA RESULT:     -10.2      1.198      2.061
REMARK  7 active torsions:
REMARK  status: ('A' for Active; 'I' for Inactive)
REMARK    1  A    between atoms: C_4  and  N_5 
REMARK    2  A    between atoms: C_6  and  S_7 
REMARK    3  A    between atoms: S_7  and  C_8 
REMARK    4  A    between atoms: C_8  and  C_9 
REMARK       I    between atoms: C_9  and  N_10 
REMARK    5  A    between atoms: C_12  and  C_13 
REMARK    6  A    between atoms: C_13  and  N_14 
REMARK       I    between atoms: N_14  and  C_15 
REMARK       I    between atoms: C_15  and  N_16 
REMARK    7  A    between atoms: N_16  and  C_17 
ROOT
HETATM    1  C   UNL     1       6.937  29.413  56.954  1.00  0.00     0.229 C 
HETATM    2  N   UNL     1       6.522  30.632  57.521  1.00  0.00    -0.351 N 
HETATM    3  C   UNL     1       6.805  30.780  58.952  1.00  0.00     0.132 C 
HETATM    4  C   UNL     1       6.765  32.241  59.403  1.00  0.00     0.021 C 
HETATM    5  C   UNL     1       5.384  32.820  59.078  1.00  0.00     0.009 C 
HETATM    6  C   UNL     1       5.157  32.748  57.576  1.00  0.00     0.020 C 
HETATM    7  C   UNL     1       5.342  31.339  57.021  1.00  0.00     0.126 C 
HETATM    8  O   UNL     1       7.470  28.546  57.657  1.00  0.00    -0.273 OA
ENDROOT
BRANCH   1   9
HETATM    9  C   UNL     1       6.937  29.251  55.438  1.00  0.00     0.185 C 
BRANCH   9  10
HETATM   10  S   UNL     1       7.570  27.705  54.769  1.00  0.00    -0.082 SA
BRANCH  10  11
HETATM   11  C   UNL     1       6.185  26.989  54.020  1.00  0.00     0.173 A 
HETATM   12  N   UNL     1       5.942  25.618  53.962  1.00  0.00    -0.299 N 
HETATM   13  C   UNL     1       4.792  25.495  53.204  1.00  0.00     0.118 A 
HETATM   14  C   UNL     1       4.419  26.767  52.850  1.00  0.00     0.137 A 
HETATM   15  N   UNL     1       5.288  27.686  53.361  1.00  0.00    -0.235 NA
BRANCH  12  16
HETATM   16  C   UNL     1       6.669  24.538  54.552  1.00  0.00     0.047 A 
HETATM   17  C   UNL     1       7.351  23.645  53.701  1.00  0.00     0.037 A 
HETATM   18  C   UNL     1       8.066  22.553  54.209  1.00  0.00    -0.060 A 
HETATM   19  C   UNL     1       8.752  21.584  53.291  1.00  0.00     0.048 C 
HETATM   20  C   UNL     1       8.135  22.375  55.589  1.00  0.00     0.007 A 
HETATM   21  C   UNL     1       7.486  23.265  56.447  1.00  0.00     0.009 A 
HETATM   22  C   UNL     1       6.729  24.343  55.950  1.00  0.00    -0.035 A 
HETATM   23  C   UNL     1       6.007  25.189  56.964  1.00  0.00     0.050 C 
ENDBRANCH  12  16
ENDBRANCH  10  11
ENDBRANCH   9  10
ENDBRANCH   1   9
BRANCH   4  24
HETATM   24  C   UNL     1       7.107  32.370  60.891  1.00  0.00     0.130 C 
BRANCH  24  25
HETATM   25  N   UNL     1       6.167  31.634  61.718  1.00  0.00    -0.342 N 
HETATM   26  C   UNL     1       5.657  31.930  62.947  1.00  0.00     0.320 C 
HETATM   27  N   UNL     1       6.159  33.052  63.544  1.00  0.00    -0.309 N 
HETATM   28  O   UNL     1       4.803  31.175  63.401  1.00  0.00    -0.247 OA
HETATM   29  H   UNL     1       6.833  33.574  63.013  1.00  0.00     0.170 HD
HETATM   30  H   UNL     1       5.683  30.842  61.310  1.00  0.00     0.164 HD
BRANCH  27  31
HETATM   31  C   UNL     1       5.824  33.577  64.810  1.00  0.00     0.039 A 
HETATM   32  C   UNL     1       4.536  33.971  65.177  1.00  0.00     0.071 A 
HETATM   33  C   UNL     1       4.305  34.477  66.454  1.00  0.00     0.118 A 
HETATM   34  F   UNL     1       3.067  34.855  66.799  1.00  0.00    -0.206 F 
HETATM   35  C   UNL     1       5.333  34.599  67.381  1.00  0.00     0.042 A 
HETATM   36  C   UNL     1       6.620  34.209  67.027  1.00  0.00     0.005 A 
HETATM   37  C   UNL     1       6.862  33.700  65.747  1.00  0.00     0.030 A 
ENDBRANCH  27  31
ENDBRANCH  24  25
ENDBRANCH   4  24
TORSDOF 7
ENDMDL
MODEL 6
REMARK VINA RESULT:     -10.0      5.021     12.475
REMARK  7 active torsions:
REMARK  status: ('A' for Active; 'I' for Inactive)
REMARK    1  A    between atoms: C_4  and  N_5 
REMARK    2  A    between atoms: C_6  and  S_7 
REMARK    3  A    between atoms: S_7  and  C_8 
REMARK    4  A    between atoms: C_8  and  C_9 
REMARK       I    between atoms: C_9  and  N_10 
REMARK    5  A    between atoms: C_12  and  C_13 
REMARK    6  A    between atoms: C_13  and  N_14 
REMARK       I    between atoms: N_14  and  C_15 
REMARK       I    between atoms: C_15  and  N_16 
REMARK    7  A    between atoms: N_16  and  C_17 
ROOT
HETATM    1  C   UNL     1       6.782  27.462  55.594  1.00  0.00     0.229 C 
HETATM    2  N   UNL     1       6.913  26.426  54.649  1.00  0.00    -0.351 N 
HETATM    3  C   UNL     1       5.916  26.436  53.575  1.00  0.00     0.132 C 
HETATM    4  C   UNL     1       6.360  25.612  52.364  1.00  0.00     0.021 C 
HETATM    5  C   UNL     1       6.629  24.173  52.820  1.00  0.00     0.009 C 
HETATM    6  C   UNL     1       7.737  24.181  53.861  1.00  0.00     0.020 C 
HETATM    7  C   UNL     1       7.439  25.115  55.031  1.00  0.00     0.126 C 
HETATM    8  O   UNL     1       5.858  28.279  55.501  1.00  0.00    -0.273 OA
ENDROOT
BRANCH   1   9
HETATM    9  C   UNL     1       7.903  27.711  56.597  1.00  0.00     0.185 C 
BRANCH   9  10
HETATM   10  S   UNL     1       7.528  28.747  58.020  1.00  0.00    -0.082 SA
BRANCH  10  11
HETATM   11  C   UNL     1       8.852  29.859  58.072  1.00  0.00     0.173 A 
HETATM   12  N   UNL     1       8.908  30.979  58.899  1.00  0.00    -0.299 N 
HETATM   13  C   UNL     1      10.081  31.619  58.548  1.00  0.00     0.118 A 
HETATM   14  C   UNL     1      10.651  30.872  57.548  1.00  0.00     0.137 A 
HETATM   15  N   UNL     1       9.882  29.783  57.260  1.00  0.00    -0.235 NA
BRANCH  12  16
HETATM   16  C   UNL     1       7.998  31.407  59.916  1.00  0.00     0.047 A 
HETATM   17  C   UNL     1       6.865  32.150  59.530  1.00  0.00     0.037 A 
HETATM   18  C   UNL     1       5.942  32.619  60.474  1.00  0.00    -0.060 A 
HETATM   19  C   UNL     1       4.762  33.447  60.057  1.00  0.00     0.048 C 
HETATM   20  C   UNL     1       6.135  32.306  61.818  1.00  0.00     0.007 A 
HETATM   21  C   UNL     1       7.238  31.549  62.213  1.00  0.00     0.009 A 
HETATM   22  C   UNL     1       8.196  31.105  61.281  1.00  0.00    -0.035 A 
HETATM   23  C   UNL     1       9.386  30.367  61.832  1.00  0.00     0.050 C 
ENDBRANCH  12  16
ENDBRANCH  10  11
ENDBRANCH   9  10
ENDBRANCH   1   9
BRANCH   4  24
HETATM   24  C   UNL     1       5.320  25.674  51.242  1.00  0.00     0.130 C 
BRANCH  24  25
HETATM   25  N   UNL     1       5.666  26.680  50.252  1.00  0.00    -0.342 N 
HETATM   26  C   UNL     1       4.875  27.364  49.379  1.00  0.00     0.320 C 
HETATM   27  N   UNL     1       3.557  27.002  49.361  1.00  0.00    -0.309 N 
HETATM   28  O   UNL     1       5.406  28.233  48.696  1.00  0.00    -0.247 OA
HETATM   29  H   UNL     1       3.284  26.288  50.014  1.00  0.00     0.170 HD
HETATM   30  H   UNL     1       6.604  27.066  50.264  1.00  0.00     0.164 HD
BRANCH  27  31
HETATM   31  C   UNL     1       2.529  27.528  48.551  1.00  0.00     0.039 A 
HETATM   32  C   UNL     1       2.009  28.816  48.686  1.00  0.00     0.071 A 
HETATM   33  C   UNL     1       0.994  29.246  47.835  1.00  0.00     0.118 A 
HETATM   34  F   UNL     1       0.498  30.483  47.972  1.00  0.00    -0.206 F 
HETATM   35  C   UNL     1       0.483  28.417  46.843  1.00  0.00     0.042 A 
HETATM   36  C   UNL     1       0.994  27.132  46.698  1.00  0.00     0.005 A 
HETATM   37  C   UNL     1       2.012  26.691  47.549  1.00  0.00     0.030 A 
ENDBRANCH  27  31
ENDBRANCH  24  25
ENDBRANCH   4  24
TORSDOF 7
ENDMDL
MODEL 7
REMARK VINA RESULT:      -9.8      4.349     12.071
REMARK  7 active torsions:
REMARK  status: ('A' for Active; 'I' for Inactive)
REMARK    1  A    between atoms: C_4  and  N_5 
REMARK    2  A    between atoms: C_6  and  S_7 
REMARK    3  A    between atoms: S_7  and  C_8 
REMARK    4  A    between atoms: C_8  and  C_9 
REMARK       I    between atoms: C_9  and  N_10 
REMARK    5  A    between atoms: C_12  and  C_13 
REMARK    6  A    between atoms: C_13  and  N_14 
REMARK       I    between atoms: N_14  and  C_15 
REMARK       I    between atoms: C_15  and  N_16 
REMARK    7  A    between atoms: N_16  and  C_17 
ROOT
HETATM    1  C   UNL     1       5.802  31.622  58.152  1.00  0.00     0.229 C 
HETATM    2  N   UNL     1       5.239  30.844  57.123  1.00  0.00    -0.351 N 
HETATM    3  C   UNL     1       5.803  29.498  56.981  1.00  0.00     0.132 C 
HETATM    4  C   UNL     1       4.881  28.562  56.196  1.00  0.00     0.021 C 
HETATM    5  C   UNL     1       4.621  29.171  54.814  1.00  0.00     0.009 C 
HETATM    6  C   UNL     1       3.944  30.523  54.987  1.00  0.00     0.020 C 
HETATM    7  C   UNL     1       4.728  31.462  55.898  1.00  0.00     0.126 C 
HETATM    8  O   UNL     1       6.725  31.171  58.841  1.00  0.00    -0.273 OA
ENDROOT
BRANCH   1   9
HETATM    9  C   UNL     1       5.127  32.925  58.564  1.00  0.00     0.185 C 
BRANCH   9  10
HETATM   10  S   UNL     1       4.110  32.899  60.048  1.00  0.00    -0.082 SA
BRANCH  10  11
HETATM   11  C   UNL     1       4.245  34.512  60.661  1.00  0.00     0.173 A 
HETATM   12  N   UNL     1       5.082  34.887  61.710  1.00  0.00    -0.299 N 
HETATM   13  C   UNL     1       4.803  36.224  61.923  1.00  0.00     0.118 A 
HETATM   14  C   UNL     1       3.833  36.571  61.016  1.00  0.00     0.137 A 
HETATM   15  N   UNL     1       3.495  35.503  60.238  1.00  0.00    -0.235 NA
BRANCH  12  16
HETATM   16  C   UNL     1       6.046  34.113  62.429  1.00  0.00     0.047 A 
HETATM   17  C   UNL     1       7.045  33.440  61.697  1.00  0.00     0.037 A 
HETATM   18  C   UNL     1       8.009  32.648  62.334  1.00  0.00    -0.060 A 
HETATM   19  C   UNL     1       9.042  31.902  61.541  1.00  0.00     0.048 C 
HETATM   20  C   UNL     1       7.998  32.561  63.724  1.00  0.00     0.007 A 
HETATM   21  C   UNL     1       7.031  33.241  64.465  1.00  0.00     0.009 A 
HETATM   22  C   UNL     1       6.031  34.008  63.837  1.00  0.00    -0.035 A 
HETATM   23  C   UNL     1       4.992  34.630  64.731  1.00  0.00     0.050 C 
ENDBRANCH  12  16
ENDBRANCH  10  11
ENDBRANCH   9  10
ENDBRANCH   1   9
BRANCH   4  24
HETATM   24  C   UNL     1       5.474  27.154  56.102  1.00  0.00     0.130 C 
BRANCH  24  25
HETATM   25  N   UNL     1       4.997  26.453  54.922  1.00  0.00    -0.342 N 
HETATM   26  C   UNL     1       5.399  25.270  54.378  1.00  0.00     0.320 C 
HETATM   27  N   UNL     1       6.473  24.675  54.977  1.00  0.00    -0.309 N 
HETATM   28  O   UNL     1       4.770  24.849  53.413  1.00  0.00    -0.247 OA
HETATM   29  H   UNL     1       6.849  25.144  55.783  1.00  0.00     0.170 HD
HETATM   30  H   UNL     1       4.148  26.783  54.476  1.00  0.00     0.164 HD
BRANCH  27  31
HETATM   31  C   UNL     1       7.102  23.465  54.614  1.00  0.00     0.039 A 
HETATM   32  C   UNL     1       7.280  22.386  55.480  1.00  0.00     0.071 A 
HETATM   33  C   UNL     1       7.912  21.231  55.026  1.00  0.00     0.118 A 
HETATM   34  F   UNL     1       8.082  20.199  55.864  1.00  0.00    -0.206 F 
HETATM   35  C   UNL     1       8.373  21.125  53.719  1.00  0.00     0.042 A 
HETATM   36  C   UNL     1       8.201  22.194  52.847  1.00  0.00     0.005 A 
HETATM   37  C   UNL     1       7.567  23.358  53.294  1.00  0.00     0.030 A 
ENDBRANCH  27  31
ENDBRANCH  24  25
ENDBRANCH   4  24
TORSDOF 7
ENDMDL
MODEL 8
REMARK VINA RESULT:      -9.7      4.600     12.076
REMARK  7 active torsions:
REMARK  status: ('A' for Active; 'I' for Inactive)
REMARK    1  A    between atoms: C_4  and  N_5 
REMARK    2  A    between atoms: C_6  and  S_7 
REMARK    3  A    between atoms: S_7  and  C_8 
REMARK    4  A    between atoms: C_8  and  C_9 
REMARK       I    between atoms: C_9  and  N_10 
REMARK    5  A    between atoms: C_12  and  C_13 
REMARK    6  A    between atoms: C_13  and  N_14 
REMARK       I    between atoms: N_14  and  C_15 
REMARK       I    between atoms: C_15  and  N_16 
REMARK    7  A    between atoms: N_16  and  C_17 
ROOT
HETATM    1  C   UNL     1       5.489  31.369  57.634  1.00  0.00     0.229 C 
HETATM    2  N   UNL     1       5.341  30.404  56.619  1.00  0.00    -0.351 N 
HETATM    3  C   UNL     1       6.527  29.579  56.368  1.00  0.00     0.132 C 
HETATM    4  C   UNL     1       6.187  28.289  55.618  1.00  0.00     0.021 C 
HETATM    5  C   UNL     1       5.511  28.654  54.292  1.00  0.00     0.009 C 
HETATM    6  C   UNL     1       4.231  29.423  54.583  1.00  0.00     0.020 C 
HETATM    7  C   UNL     1       4.465  30.642  55.470  1.00  0.00     0.126 C 
HETATM    8  O   UNL     1       6.570  31.494  58.223  1.00  0.00    -0.273 OA
ENDROOT
BRANCH   1   9
HETATM    9  C   UNL     1       4.260  32.100  58.161  1.00  0.00     0.185 C 
BRANCH   9  10
HETATM   10  S   UNL     1       4.045  32.183  59.945  1.00  0.00    -0.082 SA
BRANCH  10  11
HETATM   11  C   UNL     1       4.178  33.872  60.292  1.00  0.00     0.173 A 
HETATM   12  N   UNL     1       5.009  34.412  61.271  1.00  0.00    -0.299 N 
HETATM   13  C   UNL     1       4.730  35.766  61.265  1.00  0.00     0.118 A 
HETATM   14  C   UNL     1       3.764  35.962  60.310  1.00  0.00     0.137 A 
HETATM   15  N   UNL     1       3.429  34.782  59.712  1.00  0.00    -0.235 NA
BRANCH  12  16
HETATM   16  C   UNL     1       5.971  33.764  62.109  1.00  0.00     0.047 A 
HETATM   17  C   UNL     1       7.115  33.205  61.507  1.00  0.00     0.037 A 
HETATM   18  C   UNL     1       8.087  32.539  62.264  1.00  0.00    -0.060 A 
HETATM   19  C   UNL     1       9.281  31.910  61.607  1.00  0.00     0.048 C 
HETATM   20  C   UNL     1       7.933  32.466  63.647  1.00  0.00     0.007 A 
HETATM   21  C   UNL     1       6.817  33.037  64.261  1.00  0.00     0.009 A 
HETATM   22  C   UNL     1       5.811  33.675  63.510  1.00  0.00    -0.035 A 
HETATM   23  C   UNL     1       4.615  34.181  64.270  1.00  0.00     0.050 C 
ENDBRANCH  12  16
ENDBRANCH  10  11
ENDBRANCH   9  10
ENDBRANCH   1   9
BRANCH   4  24
HETATM   24  C   UNL     1       7.435  27.427  55.409  1.00  0.00     0.130 C 
BRANCH  24  25
HETATM   25  N   UNL     1       7.469  26.854  54.074  1.00  0.00    -0.342 N 
HETATM   26  C   UNL     1       7.542  25.553  53.676  1.00  0.00     0.320 C 
HETATM   27  N   UNL     1       7.691  24.633  54.676  1.00  0.00    -0.309 N 
HETATM   28  O   UNL     1       7.469  25.325  52.473  1.00  0.00    -0.247 OA
HETATM   29  H   UNL     1       7.699  24.994  55.614  1.00  0.00     0.170 HD
HETATM   30  H   UNL     1       7.274  27.460  53.284  1.00  0.00     0.164 HD
BRANCH  27  31
HETATM   31  C   UNL     1       7.808  23.233  54.548  1.00  0.00     0.039 A 
HETATM   32  C   UNL     1       8.040  22.575  53.340  1.00  0.00     0.071 A 
HETATM   33  C   UNL     1       8.143  21.186  53.317  1.00  0.00     0.118 A 
HETATM   34  F   UNL     1       8.364  20.561  52.152  1.00  0.00    -0.206 F 
HETATM   35  C   UNL     1       8.022  20.432  54.478  1.00  0.00     0.042 A 
HETATM   36  C   UNL     1       7.792  21.077  55.689  1.00  0.00     0.005 A 
HETATM   37  C   UNL     1       7.686  22.472  55.722  1.00  0.00     0.030 A 
ENDBRANCH  27  31
ENDBRANCH  24  25
ENDBRANCH   4  24
TORSDOF 7
ENDMDL
MODEL 9
REMARK VINA RESULT:      -9.6      6.767     10.742
REMARK  7 active torsions:
REMARK  status: ('A' for Active; 'I' for Inactive)
REMARK    1  A    between atoms: C_4  and  N_5 
REMARK    2  A    between atoms: C_6  and  S_7 
REMARK    3  A    between atoms: S_7  and  C_8 
REMARK    4  A    between atoms: C_8  and  C_9 
REMARK       I    between atoms: C_9  and  N_10 
REMARK    5  A    between atoms: C_12  and  C_13 
REMARK    6  A    between atoms: C_13  and  N_14 
REMARK       I    between atoms: N_14  and  C_15 
REMARK       I    between atoms: C_15  and  N_16 
REMARK    7  A    between atoms: N_16  and  C_17 
ROOT
HETATM    1  C   UNL     1       4.703  27.749  53.110  1.00  0.00     0.229 C 
HETATM    2  N   UNL     1       5.173  28.097  54.390  1.00  0.00    -0.351 N 
HETATM    3  C   UNL     1       5.186  27.004  55.366  1.00  0.00     0.132 C 
HETATM    4  C   UNL     1       6.105  27.297  56.554  1.00  0.00     0.021 C 
HETATM    5  C   UNL     1       5.645  28.596  57.225  1.00  0.00     0.009 C 
HETATM    6  C   UNL     1       5.738  29.733  56.220  1.00  0.00     0.020 C 
HETATM    7  C   UNL     1       4.974  29.443  54.931  1.00  0.00     0.126 C 
HETATM    8  O   UNL     1       4.310  26.599  52.881  1.00  0.00    -0.273 OA
ENDROOT
BRANCH   1   9
HETATM    9  C   UNL     1       4.888  28.721  51.951  1.00  0.00     0.185 C 
BRANCH   9  10
HETATM   10  S   UNL     1       3.413  29.247  51.064  1.00  0.00    -0.082 SA
BRANCH  10  11
HETATM   11  C   UNL     1       4.044  30.080  49.685  1.00  0.00     0.173 A 
HETATM   12  N   UNL     1       3.893  29.649  48.369  1.00  0.00    -0.299 N 
HETATM   13  C   UNL     1       4.622  30.550  47.616  1.00  0.00     0.118 A 
HETATM   14  C   UNL     1       5.164  31.450  48.500  1.00  0.00     0.137 A 
HETATM   15  N   UNL     1       4.799  31.150  49.779  1.00  0.00    -0.235 NA
BRANCH  12  16
HETATM   16  C   UNL     1       3.147  28.544  47.851  1.00  0.00     0.047 A 
HETATM   17  C   UNL     1       1.866  28.791  47.319  1.00  0.00     0.037 A 
HETATM   18  C   UNL     1       1.072  27.753  46.814  1.00  0.00    -0.060 A 
HETATM   19  C   UNL     1      -0.309  28.022  46.289  1.00  0.00     0.048 C 
HETATM   20  C   UNL     1       1.582  26.457  46.803  1.00  0.00     0.007 A 
HETATM   21  C   UNL     1       2.859  26.200  47.303  1.00  0.00     0.009 A 
HETATM   22  C   UNL     1       3.653  27.225  47.851  1.00  0.00    -0.035 A 
HETATM   23  C   UNL     1       4.980  26.817  48.435  1.00  0.00     0.050 C 
ENDBRANCH  12  16
ENDBRANCH  10  11
ENDBRANCH   9  10
ENDBRANCH   1   9
BRANCH   4  24
HETATM   24  C   UNL     1       6.133  26.121  57.535  1.00  0.00     0.130 C 
BRANCH  24  25
HETATM   25  N   UNL     1       7.465  25.553  57.647  1.00  0.00    -0.342 N 
HETATM   26  C   UNL     1       8.048  24.534  56.955  1.00  0.00     0.320 C 
HETATM   27  N   UNL     1       7.241  23.879  56.068  1.00  0.00    -0.309 N 
HETATM   28  O   UNL     1       9.230  24.299  57.185  1.00  0.00    -0.247 OA
HETATM   29  H   UNL     1       6.302  24.227  55.982  1.00  0.00     0.170 HD
HETATM   30  H   UNL     1       8.150  26.038  58.216  1.00  0.00     0.164 HD
BRANCH  27  31
HETATM   31  C   UNL     1       7.578  22.787  55.241  1.00  0.00     0.039 A 
HETATM   32  C   UNL     1       7.894  21.514  55.717  1.00  0.00     0.071 A 
HETATM   33  C   UNL     1       8.212  20.499  54.818  1.00  0.00     0.118 A 
HETATM   34  F   UNL     1       8.517  19.279  55.282  1.00  0.00    -0.206 F 
HETATM   35  C   UNL     1       8.219  20.723  53.446  1.00  0.00     0.042 A 
HETATM   36  C   UNL     1       7.905  21.987  52.960  1.00  0.00     0.005 A 
HETATM   37  C   UNL     1       7.585  23.014  53.855  1.00  0.00     0.030 A 
ENDBRANCH  27  31
ENDBRANCH  24  25
ENDBRANCH   4  24
TORSDOF 7
ENDMDL
MODEL 10
REMARK VINA RESULT:      -9.6      4.279     12.376
REMARK  7 active torsions:
REMARK  status: ('A' for Active; 'I' for Inactive)
REMARK    1  A    between atoms: C_4  and  N_5 
REMARK    2  A    between atoms: C_6  and  S_7 
REMARK    3  A    between atoms: S_7  and  C_8 
REMARK    4  A    between atoms: C_8  and  C_9 
REMARK       I    between atoms: C_9  and  N_10 
REMARK    5  A    between atoms: C_12  and  C_13 
REMARK    6  A    between atoms: C_13  and  N_14 
REMARK       I    between atoms: N_14  and  C_15 
REMARK       I    between atoms: C_15  and  N_16 
REMARK    7  A    between atoms: N_16  and  C_17 
ROOT
HETATM    1  C   UNL     1       5.767  30.868  57.620  1.00  0.00     0.229 C 
HETATM    2  N   UNL     1       6.540  29.785  57.162  1.00  0.00    -0.351 N 
HETATM    3  C   UNL     1       5.880  28.924  56.175  1.00  0.00     0.132 C 
HETATM    4  C   UNL     1       6.879  28.072  55.388  1.00  0.00     0.021 C 
HETATM    5  C   UNL     1       7.684  27.219  56.375  1.00  0.00     0.009 C 
HETATM    6  C   UNL     1       8.439  28.138  57.324  1.00  0.00     0.020 C 
HETATM    7  C   UNL     1       7.524  29.135  58.029  1.00  0.00     0.126 C 
HETATM    8  O   UNL     1       4.609  31.026  57.213  1.00  0.00    -0.273 OA
ENDROOT
BRANCH   1   9
HETATM    9  C   UNL     1       6.430  31.971  58.437  1.00  0.00     0.185 C 
BRANCH   9  10
HETATM   10  S   UNL     1       5.634  32.454  59.977  1.00  0.00    -0.082 SA
BRANCH  10  11
HETATM   11  C   UNL     1       6.782  31.998  61.188  1.00  0.00     0.173 A 
HETATM   12  N   UNL     1       6.715  32.389  62.524  1.00  0.00    -0.299 N 
HETATM   13  C   UNL     1       7.866  31.883  63.099  1.00  0.00     0.118 A 
HETATM   14  C   UNL     1       8.550  31.236  62.100  1.00  0.00     0.137 A 
HETATM   15  N   UNL     1       7.870  31.313  60.920  1.00  0.00    -0.235 NA
BRANCH  12  16
HETATM   16  C   UNL     1       5.699  33.128  63.208  1.00  0.00     0.047 A 
HETATM   17  C   UNL     1       4.439  33.262  62.592  1.00  0.00     0.037 A 
HETATM   18  C   UNL     1       3.404  33.989  63.194  1.00  0.00    -0.060 A 
HETATM   19  C   UNL     1       2.080  34.162  62.509  1.00  0.00     0.048 C 
HETATM   20  C   UNL     1       3.620  34.555  64.449  1.00  0.00     0.007 A 
HETATM   21  C   UNL     1       4.854  34.409  65.084  1.00  0.00     0.009 A 
HETATM   22  C   UNL     1       5.917  33.717  64.473  1.00  0.00    -0.035 A 
HETATM   23  C   UNL     1       7.226  33.693  65.215  1.00  0.00     0.050 C 
ENDBRANCH  12  16
ENDBRANCH  10  11
ENDBRANCH   9  10
ENDBRANCH   1   9
BRANCH   4  24
HETATM   24  C   UNL     1       6.167  27.217  54.336  1.00  0.00     0.130 C 
BRANCH  24  25
HETATM   25  N   UNL     1       7.105  26.674  53.368  1.00  0.00    -0.342 N 
HETATM   26  C   UNL     1       7.557  25.400  53.200  1.00  0.00     0.320 C 
HETATM   27  N   UNL     1       7.136  24.492  54.130  1.00  0.00    -0.309 N 
HETATM   28  O   UNL     1       8.291  25.183  52.241  1.00  0.00    -0.247 OA
HETATM   29  H   UNL     1       6.506  24.836  54.834  1.00  0.00     0.170 HD
HETATM   30  H   UNL     1       7.391  27.262  52.593  1.00  0.00     0.164 HD
BRANCH  27  31
HETATM   31  C   UNL     1       7.461  23.121  54.205  1.00  0.00     0.039 A 
HETATM   32  C   UNL     1       7.758  22.326  53.097  1.00  0.00     0.071 A 
HETATM   33  C   UNL     1       8.069  20.981  53.274  1.00  0.00     0.118 A 
HETATM   34  F   UNL     1       8.351  20.223  52.205  1.00  0.00    -0.206 F 
HETATM   35  C   UNL     1       8.095  20.404  54.538  1.00  0.00     0.042 A 
HETATM   36  C   UNL     1       7.801  21.186  55.650  1.00  0.00     0.005 A 
HETATM   37  C   UNL     1       7.486  22.539  55.482  1.00  0.00     0.030 A 
ENDBRANCH  27  31
ENDBRANCH  24  25
ENDBRANCH   4  24
TORSDOF 7
ENDMDL
