MODEL 1
REMARK VINA RESULT:      -8.4      0.000      0.000
REMARK  2 active torsions:
REMARK  status: ('A' for Active; 'I' for Inactive)
REMARK    1  A    between atoms: C_2  and  C_3 
REMARK       I    between atoms: C_3  and  N_4 
REMARK    2  A    between atoms: N_4  and  C_5 
ROOT
HETATM    1  C   UNL     1       7.560  27.740  57.636  1.00  0.00     0.174 A 
HETATM    2  S   UNL     1       6.956  27.802  56.049  1.00  0.00    -0.050 SA
HETATM    3  C   UNL     1       7.524  26.202  55.761  1.00  0.00     0.040 A 
HETATM    4  C   UNL     1       8.138  25.729  56.931  1.00  0.00     0.079 A 
HETATM    5  N   UNL     1       8.145  26.623  57.991  1.00  0.00    -0.223 NA
HETATM    6  C   UNL     1       7.431  25.430  54.588  1.00  0.00     0.061 A 
HETATM    7  C   UNL     1       7.990  24.169  54.655  1.00  0.00     0.106 A 
HETATM    8  C   UNL     1       8.595  23.686  55.788  1.00  0.00     0.107 A 
HETATM    9  O   UNL     1       9.075  22.424  55.624  1.00  0.00    -0.323 OA
HETATM   10  C   UNL     1       8.710  22.168  54.252  1.00  0.00     0.352 A 
HETATM   11  O   UNL     1       8.013  23.269  53.633  1.00  0.00    -0.323 OA
HETATM   12  C   UNL     1       8.691  24.429  56.950  1.00  0.00     0.073 A 
ENDROOT
BRANCH   1  13
HETATM   13  N   UNL     1       7.466  28.784  58.518  1.00  0.00    -0.301 N 
HETATM   14  C   UNL     1       8.343  29.829  58.695  1.00  0.00     0.264 C 
HETATM   15  O   UNL     1       9.368  30.006  58.044  1.00  0.00    -0.267 OA
HETATM   16  H   UNL     1       6.645  28.739  59.107  1.00  0.00     0.171 HD
BRANCH  14  17
HETATM   17  C   UNL     1       7.967  30.761  59.761  1.00  0.00     0.074 A 
HETATM   18  C   UNL     1       6.998  31.750  59.687  1.00  0.00     0.026 A 
HETATM   19  C   UNL     1       6.878  32.497  60.897  1.00  0.00     0.028 A 
HETATM   20  C   UNL     1       7.759  32.044  61.844  1.00  0.00     0.052 A 
HETATM   21  S   UNL     1       8.714  30.753  61.308  1.00  0.00    -0.077 SA
HETATM   22 BR   UNL     1       7.900  32.777  63.562  1.00  0.00    -0.043 Br
ENDBRANCH  14  17
ENDBRANCH   1  13
TORSDOF 2
ENDMDL
MODEL 2
REMARK VINA RESULT:      -8.0      4.166      8.613
REMARK  2 active torsions:
REMARK  status: ('A' for Active; 'I' for Inactive)
REMARK    1  A    between atoms: C_2  and  C_3 
REMARK       I    between atoms: C_3  and  N_4 
REMARK    2  A    between atoms: N_4  and  C_5 
ROOT
HETATM    1  C   UNL     1       7.338  27.686  56.329  1.00  0.00     0.174 A 
HETATM    2  S   UNL     1       6.013  28.742  56.207  1.00  0.00    -0.050 SA
HETATM    3  C   UNL     1       6.670  29.726  57.458  1.00  0.00     0.040 A 
HETATM    4  C   UNL     1       7.885  29.162  57.877  1.00  0.00     0.079 A 
HETATM    5  N   UNL     1       8.250  27.999  57.216  1.00  0.00    -0.223 NA
HETATM    6  C   UNL     1       6.145  30.903  58.023  1.00  0.00     0.061 A 
HETATM    7  C   UNL     1       6.903  31.475  59.026  1.00  0.00     0.106 A 
HETATM    8  C   UNL     1       8.094  30.942  59.451  1.00  0.00     0.107 A 
HETATM    9  O   UNL     1       8.663  31.671  60.448  1.00  0.00    -0.323 OA
HETATM   10  C   UNL     1       7.689  32.722  60.610  1.00  0.00     0.352 A 
HETATM   11  O   UNL     1       6.572  32.609  59.705  1.00  0.00    -0.323 OA
HETATM   12  C   UNL     1       8.625  29.789  58.904  1.00  0.00     0.073 A 
ENDROOT
BRANCH   1  13
HETATM   13  N   UNL     1       7.473  26.557  55.565  1.00  0.00    -0.301 N 
HETATM   14  C   UNL     1       7.135  25.264  55.893  1.00  0.00     0.264 C 
HETATM   15  O   UNL     1       6.615  24.917  56.948  1.00  0.00    -0.267 OA
HETATM   16  H   UNL     1       7.892  26.732  54.662  1.00  0.00     0.171 HD
BRANCH  14  17
HETATM   17  C   UNL     1       7.453  24.275  54.859  1.00  0.00     0.074 A 
HETATM   18  C   UNL     1       7.623  24.524  53.505  1.00  0.00     0.026 A 
HETATM   19  C   UNL     1       7.917  23.344  52.759  1.00  0.00     0.028 A 
HETATM   20  C   UNL     1       7.963  22.244  53.576  1.00  0.00     0.052 A 
HETATM   21  S   UNL     1       7.662  22.605  55.203  1.00  0.00    -0.077 SA
HETATM   22 BR   UNL     1       8.320  20.512  52.962  1.00  0.00    -0.043 Br
ENDBRANCH  14  17
ENDBRANCH   1  13
TORSDOF 2
ENDMDL
MODEL 3
REMARK VINA RESULT:      -8.0      2.080      2.910
REMARK  2 active torsions:
REMARK  status: ('A' for Active; 'I' for Inactive)
REMARK    1  A    between atoms: C_2  and  C_3 
REMARK       I    between atoms: C_3  and  N_4 
REMARK    2  A    between atoms: N_4  and  C_5 
ROOT
HETATM    1  C   UNL     1       7.780  26.110  56.697  1.00  0.00     0.174 A 
HETATM    2  S   UNL     1       8.533  24.850  57.553  1.00  0.00    -0.050 SA
HETATM    3  C   UNL     1       8.371  23.813  56.187  1.00  0.00     0.040 A 
HETATM    4  C   UNL     1       7.746  24.531  55.154  1.00  0.00     0.079 A 
HETATM    5  N   UNL     1       7.421  25.841  55.466  1.00  0.00    -0.223 NA
HETATM    6  C   UNL     1       8.765  22.470  56.046  1.00  0.00     0.061 A 
HETATM    7  C   UNL     1       8.496  21.892  54.821  1.00  0.00     0.106 A 
HETATM    8  C   UNL     1       7.888  22.574  53.798  1.00  0.00     0.107 A 
HETATM    9  O   UNL     1       7.722  21.806  52.687  1.00  0.00    -0.323 OA
HETATM   10  C   UNL     1       8.289  20.556  53.131  1.00  0.00     0.352 A 
HETATM   11  O   UNL     1       8.790  20.606  54.483  1.00  0.00    -0.323 OA
HETATM   12  C   UNL     1       7.497  23.895  53.918  1.00  0.00     0.073 A 
ENDROOT
BRANCH   1  13
HETATM   13  N   UNL     1       7.539  27.346  57.236  1.00  0.00    -0.301 N 
HETATM   14  C   UNL     1       8.417  28.395  57.381  1.00  0.00     0.264 C 
HETATM   15  O   UNL     1       9.586  28.392  57.010  1.00  0.00    -0.267 OA
HETATM   16  H   UNL     1       6.592  27.460  57.572  1.00  0.00     0.171 HD
BRANCH  14  17
HETATM   17  C   UNL     1       7.849  29.573  58.042  1.00  0.00     0.074 A 
HETATM   18  C   UNL     1       8.346  30.203  59.173  1.00  0.00     0.026 A 
HETATM   19  C   UNL     1       7.555  31.322  59.574  1.00  0.00     0.028 A 
HETATM   20  C   UNL     1       6.490  31.499  58.730  1.00  0.00     0.052 A 
HETATM   21  S   UNL     1       6.427  30.358  57.481  1.00  0.00    -0.077 SA
HETATM   22 BR   UNL     1       5.224  32.864  58.933  1.00  0.00    -0.043 Br
ENDBRANCH  14  17
ENDBRANCH   1  13
TORSDOF 2
ENDMDL
MODEL 4
REMARK VINA RESULT:      -8.0      5.421     10.292
REMARK  2 active torsions:
REMARK  status: ('A' for Active; 'I' for Inactive)
REMARK    1  A    between atoms: C_2  and  C_3 
REMARK       I    between atoms: C_3  and  N_4 
REMARK    2  A    between atoms: N_4  and  C_5 
ROOT
HETATM    1  C   UNL     1       6.791  31.938  61.601  1.00  0.00     0.174 A 
HETATM    2  S   UNL     1       5.172  32.418  61.781  1.00  0.00    -0.050 SA
HETATM    3  C   UNL     1       5.514  33.013  63.361  1.00  0.00     0.040 A 
HETATM    4  C   UNL     1       6.875  32.801  63.631  1.00  0.00     0.079 A 
HETATM    5  N   UNL     1       7.586  32.189  62.611  1.00  0.00    -0.223 NA
HETATM    6  C   UNL     1       4.642  33.617  64.285  1.00  0.00     0.061 A 
HETATM    7  C   UNL     1       5.209  33.990  65.488  1.00  0.00     0.106 A 
HETATM    8  C   UNL     1       6.536  33.793  65.773  1.00  0.00     0.107 A 
HETATM    9  O   UNL     1       6.872  34.235  67.016  1.00  0.00    -0.323 OA
HETATM   10  C   UNL     1       5.599  34.727  67.484  1.00  0.00     0.352 A 
HETATM   11  O   UNL     1       4.541  34.582  66.516  1.00  0.00    -0.323 OA
HETATM   12  C   UNL     1       7.407  33.204  64.876  1.00  0.00     0.073 A 
ENDROOT
BRANCH   1  13
HETATM   13  N   UNL     1       7.271  31.313  60.480  1.00  0.00    -0.301 N 
HETATM   14  C   UNL     1       8.266  31.739  59.631  1.00  0.00     0.264 C 
HETATM   15  O   UNL     1       8.920  32.767  59.771  1.00  0.00    -0.267 OA
HETATM   16  H   UNL     1       6.800  30.443  60.272  1.00  0.00     0.171 HD
BRANCH  14  17
HETATM   17  C   UNL     1       8.509  30.852  58.490  1.00  0.00     0.074 A 
HETATM   18  C   UNL     1       9.745  30.484  57.980  1.00  0.00     0.026 A 
HETATM   19  C   UNL     1       9.642  29.612  56.856  1.00  0.00     0.028 A 
HETATM   20  C   UNL     1       8.331  29.349  56.556  1.00  0.00     0.052 A 
HETATM   21  S   UNL     1       7.238  30.123  57.592  1.00  0.00    -0.077 SA
HETATM   22 BR   UNL     1       7.793  28.246  55.142  1.00  0.00    -0.043 Br
ENDBRANCH  14  17
ENDBRANCH   1  13
TORSDOF 2
ENDMDL
MODEL 5
REMARK VINA RESULT:      -7.9      1.328      1.572
REMARK  2 active torsions:
REMARK  status: ('A' for Active; 'I' for Inactive)
REMARK    1  A    between atoms: C_2  and  C_3 
REMARK       I    between atoms: C_3  and  N_4 
REMARK    2  A    between atoms: N_4  and  C_5 
ROOT
HETATM    1  C   UNL     1       7.510  26.632  56.953  1.00  0.00     0.174 A 
HETATM    2  S   UNL     1       7.238  26.416  55.290  1.00  0.00    -0.050 SA
HETATM    3  C   UNL     1       7.686  24.758  55.424  1.00  0.00     0.040 A 
HETATM    4  C   UNL     1       8.008  24.490  56.763  1.00  0.00     0.079 A 
HETATM    5  N   UNL     1       7.897  25.573  57.620  1.00  0.00    -0.223 NA
HETATM    6  C   UNL     1       7.748  23.776  54.417  1.00  0.00     0.061 A 
HETATM    7  C   UNL     1       8.152  22.521  54.829  1.00  0.00     0.106 A 
HETATM    8  C   UNL     1       8.470  22.237  56.133  1.00  0.00     0.107 A 
HETATM    9  O   UNL     1       8.842  20.939  56.305  1.00  0.00    -0.323 OA
HETATM   10  C   UNL     1       8.729  20.440  54.957  1.00  0.00     0.352 A 
HETATM   11  O   UNL     1       8.283  21.437  54.015  1.00  0.00    -0.323 OA
HETATM   12  C   UNL     1       8.411  23.188  57.134  1.00  0.00     0.073 A 
ENDROOT
BRANCH   1  13
HETATM   13  N   UNL     1       7.351  27.834  57.591  1.00  0.00    -0.301 N 
HETATM   14  C   UNL     1       8.262  28.857  57.715  1.00  0.00     0.264 C 
HETATM   15  O   UNL     1       9.389  28.860  57.229  1.00  0.00    -0.267 OA
HETATM   16  H   UNL     1       6.445  27.940  58.027  1.00  0.00     0.171 HD
BRANCH  14  17
HETATM   17  C   UNL     1       7.788  29.997  58.504  1.00  0.00     0.074 A 
HETATM   18  C   UNL     1       6.738  30.844  58.180  1.00  0.00     0.026 A 
HETATM   19  C   UNL     1       6.532  31.866  59.154  1.00  0.00     0.028 A 
HETATM   20  C   UNL     1       7.433  31.755  60.181  1.00  0.00     0.052 A 
HETATM   21  S   UNL     1       8.506  30.459  59.995  1.00  0.00    -0.077 SA
HETATM   22 BR   UNL     1       7.480  32.919  61.648  1.00  0.00    -0.043 Br
ENDBRANCH  14  17
ENDBRANCH   1  13
TORSDOF 2
ENDMDL
MODEL 6
REMARK VINA RESULT:      -7.7      3.139      3.366
REMARK  2 active torsions:
REMARK  status: ('A' for Active; 'I' for Inactive)
REMARK    1  A    between atoms: C_2  and  C_3 
REMARK       I    between atoms: C_3  and  N_4 
REMARK    2  A    between atoms: N_4  and  C_5 
ROOT
HETATM    1  C   UNL     1       7.274  29.476  57.603  1.00  0.00     0.174 A 
HETATM    2  S   UNL     1       8.492  29.349  56.425  1.00  0.00    -0.050 SA
HETATM    3  C   UNL     1       7.419  28.479  55.396  1.00  0.00     0.040 A 
HETATM    4  C   UNL     1       6.180  28.358  56.045  1.00  0.00     0.079 A 
HETATM    5  N   UNL     1       6.118  28.937  57.302  1.00  0.00    -0.223 NA
HETATM    6  C   UNL     1       7.661  27.946  54.116  1.00  0.00     0.061 A 
HETATM    7  C   UNL     1       6.598  27.286  53.532  1.00  0.00     0.106 A 
HETATM    8  C   UNL     1       5.379  27.157  54.147  1.00  0.00     0.107 A 
HETATM    9  O   UNL     1       4.484  26.469  53.386  1.00  0.00    -0.323 OA
HETATM   10  C   UNL     1       5.283  26.172  52.223  1.00  0.00     0.352 A 
HETATM   11  O   UNL     1       6.625  26.696  52.305  1.00  0.00    -0.323 OA
HETATM   12  C   UNL     1       5.123  27.677  55.401  1.00  0.00     0.073 A 
ENDROOT
BRANCH   1  13
HETATM   13  N   UNL     1       7.458  30.092  58.812  1.00  0.00    -0.301 N 
HETATM   14  C   UNL     1       7.183  31.397  59.151  1.00  0.00     0.264 C 
HETATM   15  O   UNL     1       6.684  32.230  58.400  1.00  0.00    -0.267 OA
HETATM   16  H   UNL     1       7.864  29.488  59.513  1.00  0.00     0.171 HD
BRANCH  14  17
HETATM   17  C   UNL     1       7.541  31.754  60.526  1.00  0.00     0.074 A 
HETATM   18  C   UNL     1       8.723  31.437  61.178  1.00  0.00     0.026 A 
HETATM   19  C   UNL     1       8.761  31.923  62.519  1.00  0.00     0.028 A 
HETATM   20  C   UNL     1       7.607  32.592  62.833  1.00  0.00     0.052 A 
HETATM   21  S   UNL     1       6.495  32.645  61.558  1.00  0.00    -0.077 SA
HETATM   22 BR   UNL     1       7.284  33.372  64.505  1.00  0.00    -0.043 Br
ENDBRANCH  14  17
ENDBRANCH   1  13
TORSDOF 2
ENDMDL
MODEL 7
REMARK VINA RESULT:      -7.6      1.917      2.825
REMARK  2 active torsions:
REMARK  status: ('A' for Active; 'I' for Inactive)
REMARK    1  A    between atoms: C_2  and  C_3 
REMARK       I    between atoms: C_3  and  N_4 
REMARK    2  A    between atoms: N_4  and  C_5 
ROOT
HETATM    1  C   UNL     1       7.155  28.234  57.608  1.00  0.00     0.174 A 
HETATM    2  S   UNL     1       8.058  26.822  57.331  1.00  0.00    -0.050 SA
HETATM    3  C   UNL     1       7.094  26.467  55.948  1.00  0.00     0.040 A 
HETATM    4  C   UNL     1       6.139  27.485  55.797  1.00  0.00     0.079 A 
HETATM    5  N   UNL     1       6.194  28.486  56.754  1.00  0.00    -0.223 NA
HETATM    6  C   UNL     1       7.179  25.370  55.070  1.00  0.00     0.061 A 
HETATM    7  C   UNL     1       6.255  25.353  54.043  1.00  0.00     0.106 A 
HETATM    8  C   UNL     1       5.315  26.337  53.876  1.00  0.00     0.107 A 
HETATM    9  O   UNL     1       4.512  26.112  52.801  1.00  0.00    -0.323 OA
HETATM   10  C   UNL     1       5.050  24.866  52.313  1.00  0.00     0.352 A 
HETATM   11  O   UNL     1       6.163  24.382  53.092  1.00  0.00    -0.323 OA
HETATM   12  C   UNL     1       5.220  27.423  54.726  1.00  0.00     0.073 A 
ENDROOT
BRANCH   1  13
HETATM   13  N   UNL     1       7.387  29.080  58.661  1.00  0.00    -0.301 N 
HETATM   14  C   UNL     1       8.348  30.059  58.768  1.00  0.00     0.264 C 
HETATM   15  O   UNL     1       9.155  30.353  57.892  1.00  0.00    -0.267 OA
HETATM   16  H   UNL     1       6.767  28.926  59.444  1.00  0.00     0.171 HD
BRANCH  14  17
HETATM   17  C   UNL     1       8.355  30.761  60.054  1.00  0.00     0.074 A 
HETATM   18  C   UNL     1       9.342  30.691  61.026  1.00  0.00     0.026 A 
HETATM   19  C   UNL     1       9.046  31.489  62.171  1.00  0.00     0.028 A 
HETATM   20  C   UNL     1       7.848  32.137  62.023  1.00  0.00     0.052 A 
HETATM   21  S   UNL     1       7.083  31.806  60.550  1.00  0.00    -0.077 SA
HETATM   22 BR   UNL     1       7.120  33.276  63.319  1.00  0.00    -0.043 Br
ENDBRANCH  14  17
ENDBRANCH   1  13
TORSDOF 2
ENDMDL
MODEL 8
REMARK VINA RESULT:      -7.5      6.821      7.893
REMARK  2 active torsions:
REMARK  status: ('A' for Active; 'I' for Inactive)
REMARK    1  A    between atoms: C_2  and  C_3 
REMARK       I    between atoms: C_3  and  N_4 
REMARK    2  A    between atoms: N_4  and  C_5 
ROOT
HETATM    1  C   UNL     1       6.661  25.616  52.682  1.00  0.00     0.174 A 
HETATM    2  S   UNL     1       6.327  25.621  54.348  1.00  0.00    -0.050 SA
HETATM    3  C   UNL     1       7.035  24.059  54.504  1.00  0.00     0.040 A 
HETATM    4  C   UNL     1       7.491  23.647  53.242  1.00  0.00     0.079 A 
HETATM    5  N   UNL     1       7.271  24.553  52.216  1.00  0.00    -0.223 NA
HETATM    6  C   UNL     1       7.171  23.263  55.656  1.00  0.00     0.061 A 
HETATM    7  C   UNL     1       7.783  22.039  55.470  1.00  0.00     0.106 A 
HETATM    8  C   UNL     1       8.237  21.617  54.245  1.00  0.00     0.107 A 
HETATM    9  O   UNL     1       8.802  20.380  54.299  1.00  0.00    -0.323 OA
HETATM   10  C   UNL     1       8.644  20.067  55.698  1.00  0.00     0.352 A 
HETATM   11  O   UNL     1       8.006  21.119  56.449  1.00  0.00    -0.323 OA
HETATM   12  C   UNL     1       8.114  22.388  53.105  1.00  0.00     0.073 A 
ENDROOT
BRANCH   1  13
HETATM   13  N   UNL     1       6.320  26.643  51.843  1.00  0.00    -0.301 N 
HETATM   14  C   UNL     1       5.352  26.656  50.865  1.00  0.00     0.264 C 
HETATM   15  O   UNL     1       4.599  25.722  50.607  1.00  0.00    -0.267 OA
HETATM   16  H   UNL     1       6.882  27.473  51.976  1.00  0.00     0.171 HD
BRANCH  14  17
HETATM   17  C   UNL     1       5.271  27.909  50.110  1.00  0.00     0.074 A 
HETATM   18  C   UNL     1       5.039  28.037  48.748  1.00  0.00     0.026 A 
HETATM   19  C   UNL     1       5.029  29.397  48.316  1.00  0.00     0.028 A 
HETATM   20  C   UNL     1       5.250  30.249  49.366  1.00  0.00     0.052 A 
HETATM   21  S   UNL     1       5.467  29.450  50.843  1.00  0.00    -0.077 SA
HETATM   22 BR   UNL     1       5.311  32.113  49.193  1.00  0.00    -0.043 Br
ENDBRANCH  14  17
ENDBRANCH   1  13
TORSDOF 2
ENDMDL
MODEL 9
REMARK VINA RESULT:      -7.4      3.692      4.638
REMARK  2 active torsions:
REMARK  status: ('A' for Active; 'I' for Inactive)
REMARK    1  A    between atoms: C_2  and  C_3 
REMARK       I    between atoms: C_3  and  N_4 
REMARK    2  A    between atoms: N_4  and  C_5 
ROOT
HETATM    1  C   UNL     1       7.336  31.041  59.475  1.00  0.00     0.174 A 
HETATM    2  S   UNL     1       8.888  30.700  58.875  1.00  0.00    -0.050 SA
HETATM    3  C   UNL     1       8.197  29.976  57.473  1.00  0.00     0.040 A 
HETATM    4  C   UNL     1       6.799  30.061  57.571  1.00  0.00     0.079 A 
HETATM    5  N   UNL     1       6.329  30.676  58.720  1.00  0.00    -0.223 NA
HETATM    6  C   UNL     1       8.847  29.379  56.377  1.00  0.00     0.061 A 
HETATM    7  C   UNL     1       8.019  28.873  55.393  1.00  0.00     0.106 A 
HETATM    8  C   UNL     1       6.651  28.946  55.468  1.00  0.00     0.107 A 
HETATM    9  O   UNL     1       6.041  28.383  54.389  1.00  0.00    -0.323 OA
HETATM   10  C   UNL     1       7.184  27.938  53.630  1.00  0.00     0.352 A 
HETATM   11  O   UNL     1       8.443  28.254  54.258  1.00  0.00    -0.323 OA
HETATM   12  C   UNL     1       5.997  29.533  56.535  1.00  0.00     0.073 A 
ENDROOT
BRANCH   1  13
HETATM   13  N   UNL     1       7.113  31.654  60.679  1.00  0.00    -0.301 N 
HETATM   14  C   UNL     1       7.694  31.375  61.895  1.00  0.00     0.264 C 
HETATM   15  O   UNL     1       8.554  30.522  62.086  1.00  0.00    -0.267 OA
HETATM   16  H   UNL     1       6.417  32.386  60.634  1.00  0.00     0.171 HD
BRANCH  14  17
HETATM   17  C   UNL     1       7.198  32.194  63.005  1.00  0.00     0.074 A 
HETATM   18  C   UNL     1       7.967  32.926  63.897  1.00  0.00     0.026 A 
HETATM   19  C   UNL     1       7.181  33.611  64.871  1.00  0.00     0.028 A 
HETATM   20  C   UNL     1       5.845  33.375  64.679  1.00  0.00     0.052 A 
HETATM   21  S   UNL     1       5.525  32.357  63.364  1.00  0.00    -0.077 SA
HETATM   22 BR   UNL     1       4.499  34.101  65.761  1.00  0.00    -0.043 Br
ENDBRANCH  14  17
ENDBRANCH   1  13
TORSDOF 2
ENDMDL
MODEL 10
REMARK VINA RESULT:      -7.3      8.012     11.092
REMARK  2 active torsions:
REMARK  status: ('A' for Active; 'I' for Inactive)
REMARK    1  A    between atoms: C_2  and  C_3 
REMARK       I    between atoms: C_3  and  N_4 
REMARK    2  A    between atoms: N_4  and  C_5 
ROOT
HETATM    1  C   UNL     1       6.334  34.117  66.151  1.00  0.00     0.174 A 
HETATM    2  S   UNL     1       4.755  34.068  65.526  1.00  0.00    -0.050 SA
HETATM    3  C   UNL     1       5.358  33.470  64.027  1.00  0.00     0.040 A 
HETATM    4  C   UNL     1       6.752  33.344  64.126  1.00  0.00     0.079 A 
HETATM    5  N   UNL     1       7.288  33.715  65.349  1.00  0.00    -0.223 NA
HETATM    6  C   UNL     1       4.647  33.144  62.857  1.00  0.00     0.061 A 
HETATM    7  C   UNL     1       5.411  32.689  61.800  1.00  0.00     0.106 A 
HETATM    8  C   UNL     1       6.775  32.557  61.875  1.00  0.00     0.107 A 
HETATM    9  O   UNL     1       7.316  32.094  60.715  1.00  0.00    -0.323 OA
HETATM   10  C   UNL     1       6.137  31.959  59.896  1.00  0.00     0.352 A 
HETATM   11  O   UNL     1       4.922  32.327  60.582  1.00  0.00    -0.323 OA
HETATM   12  C   UNL     1       7.487  32.869  63.017  1.00  0.00     0.073 A 
ENDROOT
BRANCH   1  13
HETATM   13  N   UNL     1       6.629  34.554  67.415  1.00  0.00    -0.301 N 
HETATM   14  C   UNL     1       5.933  34.321  68.579  1.00  0.00     0.264 C 
HETATM   15  O   UNL     1       4.919  33.636  68.668  1.00  0.00    -0.267 OA
HETATM   16  H   UNL     1       7.459  35.130  67.457  1.00  0.00     0.171 HD
BRANCH  14  17
HETATM   17  C   UNL     1       6.497  34.975  69.763  1.00  0.00     0.074 A 
HETATM   18  C   UNL     1       7.529  35.901  69.780  1.00  0.00     0.026 A 
HETATM   19  C   UNL     1       7.853  36.343  71.097  1.00  0.00     0.028 A 
HETATM   20  C   UNL     1       7.053  35.737  72.030  1.00  0.00     0.052 A 
HETATM   21  S   UNL     1       5.933  34.660  71.355  1.00  0.00    -0.077 SA
HETATM   22 BR   UNL     1       7.179  36.061  73.870  1.00  0.00    -0.043 Br
ENDBRANCH  14  17
ENDBRANCH   1  13
TORSDOF 2
ENDMDL
