MODEL 1
REMARK VINA RESULT:      -9.1      0.000      0.000
REMARK  5 active torsions:
REMARK  status: ('A' for Active; 'I' for Inactive)
REMARK    1  A    between atoms: C_4  and  C_5 
REMARK    2  A    between atoms: C_11  and  C_12 
REMARK    3  A    between atoms: C_12  and  N_13 
REMARK    4  A    between atoms: C_16  and  C_17 
REMARK    5  A    between atoms: C_17  and  O_18 
ROOT
HETATM    1  N   UNL     1       6.366  28.203  56.236  1.00  0.00    -0.066 N 
HETATM    2  H   UNL     1       7.278  28.026  55.786  1.00  0.00     0.280 HD
HETATM    3  C   UNL     1       5.556  29.096  55.345  1.00  0.00     0.250 C 
HETATM    4  C   UNL     1       5.080  28.194  54.197  1.00  0.00     0.036 C 
HETATM    5  C   UNL     1       5.140  26.747  54.776  1.00  0.00     0.061 C 
HETATM    6  C   UNL     1       5.600  26.905  56.234  1.00  0.00     0.245 C 
HETATM    7  C   UNL     1       6.016  28.361  52.989  1.00  0.00     0.189 C 
HETATM    8  O   UNL     1       7.302  27.794  53.266  1.00  0.00    -0.350 OA
HETATM    9  C   UNL     1       7.169  26.430  53.319  1.00  0.00     0.075 A 
HETATM   10  C   UNL     1       6.096  25.860  54.013  1.00  0.00    -0.018 A 
HETATM   11  C   UNL     1       8.109  25.645  52.664  1.00  0.00     0.037 A 
HETATM   12  C   UNL     1       7.952  24.260  52.655  1.00  0.00     0.003 A 
HETATM   13  C   UNL     1       6.871  23.674  53.316  1.00  0.00     0.001 A 
HETATM   14  C   UNL     1       5.951  24.468  54.004  1.00  0.00     0.010 A 
ENDROOT
BRANCH   1  15
HETATM   15  C   UNL     1       6.617  28.791  57.593  1.00  0.00     0.277 C 
BRANCH  15  16
HETATM   16  C   UNL     1       7.985  29.336  57.759  1.00  0.00     0.016 A 
HETATM   17  C   UNL     1       8.412  30.383  58.635  1.00  0.00     0.096 A 
HETATM   18  N   UNL     1       9.736  30.564  58.546  1.00  0.00    -0.172 NA
HETATM   19  N   UNL     1      10.136  29.743  57.567  1.00  0.00    -0.284 N 
HETATM   20  C   UNL     1      11.515  29.759  57.138  1.00  0.00     0.179 C 
HETATM   21  C   UNL     1       9.132  28.955  57.086  1.00  0.00     0.123 A 
BRANCH  17  22
HETATM   22  C   UNL     1       7.618  31.185  59.563  1.00  0.00    -0.005 A 
HETATM   23  C   UNL     1       7.920  31.215  60.931  1.00  0.00     0.014 A 
HETATM   24  C   UNL     1       7.160  31.997  61.805  1.00  0.00     0.001 A 
HETATM   25  C   UNL     1       6.082  32.735  61.321  1.00  0.00     0.000 A 
HETATM   26  C   UNL     1       5.756  32.690  59.967  1.00  0.00     0.001 A 
HETATM   27  C   UNL     1       6.520  31.916  59.091  1.00  0.00     0.014 A 
ENDBRANCH  17  22
ENDBRANCH  15  16
ENDBRANCH   1  15
BRANCH   4  28
HETATM   28  C   UNL     1       3.656  28.574  53.774  1.00  0.00     0.178 C 
BRANCH  28  29
HETATM   29  O   UNL     1       3.100  27.516  53.007  1.00  0.00    -0.400 OA
HETATM   30  H   UNL     1       3.282  27.711  52.065  1.00  0.00     0.209 HD
ENDBRANCH  28  29
ENDBRANCH   4  28
TORSDOF 5
ENDMDL
MODEL 2
REMARK VINA RESULT:      -9.0      2.935      6.924
REMARK  5 active torsions:
REMARK  status: ('A' for Active; 'I' for Inactive)
REMARK    1  A    between atoms: C_4  and  C_5 
REMARK    2  A    between atoms: C_11  and  C_12 
REMARK    3  A    between atoms: C_12  and  N_13 
REMARK    4  A    between atoms: C_16  and  C_17 
REMARK    5  A    between atoms: C_17  and  O_18 
ROOT
HETATM    1  N   UNL     1       6.765  26.101  56.358  1.00  0.00    -0.066 N 
HETATM    2  H   UNL     1       6.783  25.984  55.332  1.00  0.00     0.280 HD
HETATM    3  C   UNL     1       7.977  26.878  56.775  1.00  0.00     0.250 C 
HETATM    4  C   UNL     1       7.685  28.329  56.367  1.00  0.00     0.036 C 
HETATM    5  C   UNL     1       6.130  28.413  56.281  1.00  0.00     0.061 C 
HETATM    6  C   UNL     1       5.619  27.022  56.688  1.00  0.00     0.245 C 
HETATM    7  C   UNL     1       8.347  28.627  55.012  1.00  0.00     0.189 C 
HETATM    8  O   UNL     1       7.686  27.911  53.962  1.00  0.00    -0.350 OA
HETATM    9  C   UNL     1       6.442  28.459  53.782  1.00  0.00     0.075 A 
HETATM   10  C   UNL     1       5.649  28.768  54.893  1.00  0.00    -0.018 A 
HETATM   11  C   UNL     1       6.004  28.706  52.487  1.00  0.00     0.037 A 
HETATM   12  C   UNL     1       4.769  29.321  52.292  1.00  0.00     0.003 A 
HETATM   13  C   UNL     1       3.977  29.665  53.388  1.00  0.00     0.001 A 
HETATM   14  C   UNL     1       4.407  29.380  54.686  1.00  0.00     0.010 A 
ENDROOT
BRANCH   1  15
HETATM   15  C   UNL     1       6.688  24.741  56.985  1.00  0.00     0.277 C 
BRANCH  15  16
HETATM   16  C   UNL     1       7.446  23.703  56.247  1.00  0.00     0.016 A 
HETATM   17  C   UNL     1       7.492  23.488  54.833  1.00  0.00     0.096 A 
HETATM   18  N   UNL     1       8.329  22.488  54.534  1.00  0.00    -0.172 NA
HETATM   19  N   UNL     1       8.725  21.998  55.715  1.00  0.00    -0.284 N 
HETATM   20  C   UNL     1       9.571  20.827  55.758  1.00  0.00     0.179 C 
HETATM   21  C   UNL     1       8.254  22.714  56.776  1.00  0.00     0.123 A 
BRANCH  17  22
HETATM   22  C   UNL     1       6.798  24.214  53.772  1.00  0.00    -0.005 A 
HETATM   23  C   UNL     1       5.428  24.495  53.865  1.00  0.00     0.014 A 
HETATM   24  C   UNL     1       4.781  25.201  52.849  1.00  0.00     0.001 A 
HETATM   25  C   UNL     1       5.493  25.614  51.724  1.00  0.00     0.000 A 
HETATM   26  C   UNL     1       6.850  25.316  51.609  1.00  0.00     0.001 A 
HETATM   27  C   UNL     1       7.500  24.617  52.628  1.00  0.00     0.014 A 
ENDBRANCH  17  22
ENDBRANCH  15  16
ENDBRANCH   1  15
BRANCH   4  28
HETATM   28  C   UNL     1       8.246  29.300  57.413  1.00  0.00     0.178 C 
BRANCH  28  29
HETATM   29  O   UNL     1       7.989  28.785  58.712  1.00  0.00    -0.400 OA
HETATM   30  H   UNL     1       8.662  29.163  59.314  1.00  0.00     0.209 HD
ENDBRANCH  28  29
ENDBRANCH   4  28
TORSDOF 5
ENDMDL
MODEL 3
REMARK VINA RESULT:      -8.9      2.530      7.059
REMARK  5 active torsions:
REMARK  status: ('A' for Active; 'I' for Inactive)
REMARK    1  A    between atoms: C_4  and  C_5 
REMARK    2  A    between atoms: C_11  and  C_12 
REMARK    3  A    between atoms: C_12  and  N_13 
REMARK    4  A    between atoms: C_16  and  C_17 
REMARK    5  A    between atoms: C_17  and  O_18 
ROOT
HETATM    1  N   UNL     1       6.561  26.477  56.531  1.00  0.00    -0.066 N 
HETATM    2  H   UNL     1       6.708  26.915  57.453  1.00  0.00     0.280 HD
HETATM    3  C   UNL     1       5.505  27.245  55.795  1.00  0.00     0.250 C 
HETATM    4  C   UNL     1       6.196  28.537  55.333  1.00  0.00     0.036 C 
HETATM    5  C   UNL     1       7.716  28.188  55.311  1.00  0.00     0.061 C 
HETATM    6  C   UNL     1       7.806  26.709  55.715  1.00  0.00     0.245 C 
HETATM    7  C   UNL     1       5.887  29.669  56.325  1.00  0.00     0.189 C 
HETATM    8  O   UNL     1       6.548  29.439  57.574  1.00  0.00    -0.350 OA
HETATM    9  C   UNL     1       7.897  29.604  57.385  1.00  0.00     0.075 A 
HETATM   10  C   UNL     1       8.517  29.046  56.263  1.00  0.00    -0.018 A 
HETATM   11  C   UNL     1       8.614  30.340  58.320  1.00  0.00     0.037 A 
HETATM   12  C   UNL     1       9.972  30.571  58.109  1.00  0.00     0.003 A 
HETATM   13  C   UNL     1      10.603  30.048  56.978  1.00  0.00     0.001 A 
HETATM   14  C   UNL     1       9.883  29.278  56.062  1.00  0.00     0.010 A 
ENDROOT
BRANCH   1  15
HETATM   15  C   UNL     1       6.202  25.036  56.748  1.00  0.00     0.277 C 
BRANCH  15  16
HETATM   16  C   UNL     1       7.100  24.089  56.046  1.00  0.00     0.016 A 
HETATM   17  C   UNL     1       7.246  23.899  54.636  1.00  0.00     0.096 A 
HETATM   18  N   UNL     1       8.195  22.990  54.378  1.00  0.00    -0.172 NA
HETATM   19  N   UNL     1       8.570  22.525  55.575  1.00  0.00    -0.284 N 
HETATM   20  C   UNL     1       9.523  21.442  55.657  1.00  0.00     0.179 C 
HETATM   21  C   UNL     1       7.971  23.176  56.614  1.00  0.00     0.123 A 
BRANCH  17  22
HETATM   22  C   UNL     1       6.546  24.568  53.542  1.00  0.00    -0.005 A 
HETATM   23  C   UNL     1       7.249  25.100  52.453  1.00  0.00     0.014 A 
HETATM   24  C   UNL     1       6.565  25.726  51.408  1.00  0.00     0.001 A 
HETATM   25  C   UNL     1       5.177  25.841  51.454  1.00  0.00     0.000 A 
HETATM   26  C   UNL     1       4.471  25.339  52.546  1.00  0.00     0.001 A 
HETATM   27  C   UNL     1       5.153  24.707  53.587  1.00  0.00     0.014 A 
ENDBRANCH  17  22
ENDBRANCH  15  16
ENDBRANCH   1  15
BRANCH   4  28
HETATM   28  C   UNL     1       5.690  28.945  53.945  1.00  0.00     0.178 C 
BRANCH  28  29
HETATM   29  O   UNL     1       6.746  28.804  53.004  1.00  0.00    -0.400 OA
HETATM   30  H   UNL     1       6.810  27.854  52.779  1.00  0.00     0.209 HD
ENDBRANCH  28  29
ENDBRANCH   4  28
TORSDOF 5
ENDMDL
MODEL 4
REMARK VINA RESULT:      -8.8      3.325      6.815
REMARK  5 active torsions:
REMARK  status: ('A' for Active; 'I' for Inactive)
REMARK    1  A    between atoms: C_4  and  C_5 
REMARK    2  A    between atoms: C_11  and  C_12 
REMARK    3  A    between atoms: C_12  and  N_13 
REMARK    4  A    between atoms: C_16  and  C_17 
REMARK    5  A    between atoms: C_17  and  O_18 
ROOT
HETATM    1  N   UNL     1       4.240  27.771  52.438  1.00  0.00    -0.066 N 
HETATM    2  H   UNL     1       4.288  26.909  51.873  1.00  0.00     0.280 HD
HETATM    3  C   UNL     1       5.360  28.679  52.028  1.00  0.00     0.250 C 
HETATM    4  C   UNL     1       4.929  29.262  50.673  1.00  0.00     0.036 C 
HETATM    5  C   UNL     1       3.376  29.127  50.659  1.00  0.00     0.061 C 
HETATM    6  C   UNL     1       3.001  28.519  52.019  1.00  0.00     0.245 C 
HETATM    7  C   UNL     1       5.580  28.459  49.536  1.00  0.00     0.189 C 
HETATM    8  O   UNL     1       5.014  27.145  49.459  1.00  0.00    -0.350 OA
HETATM    9  C   UNL     1       3.724  27.258  49.008  1.00  0.00     0.075 A 
HETATM   10  C   UNL     1       2.885  28.246  49.533  1.00  0.00    -0.018 A 
HETATM   11  C   UNL     1       3.286  26.383  48.022  1.00  0.00     0.037 A 
HETATM   12  C   UNL     1       1.999  26.526  47.508  1.00  0.00     0.003 A 
HETATM   13  C   UNL     1       1.156  27.526  47.997  1.00  0.00     0.001 A 
HETATM   14  C   UNL     1       1.591  28.378  49.015  1.00  0.00     0.010 A 
ENDROOT
BRANCH   1  15
HETATM   15  C   UNL     1       4.291  27.386  53.887  1.00  0.00     0.277 C 
BRANCH  15  16
HETATM   16  C   UNL     1       5.553  27.772  54.560  1.00  0.00     0.016 A 
HETATM   17  C   UNL     1       6.787  27.050  54.592  1.00  0.00     0.096 A 
HETATM   18  N   UNL     1       7.722  27.742  55.255  1.00  0.00    -0.172 NA
HETATM   19  N   UNL     1       7.088  28.820  55.732  1.00  0.00    -0.284 N 
HETATM   20  C   UNL     1       7.791  29.743  56.592  1.00  0.00     0.179 C 
HETATM   21  C   UNL     1       5.792  28.907  55.314  1.00  0.00     0.123 A 
BRANCH  17  22
HETATM   22  C   UNL     1       7.110  25.757  53.994  1.00  0.00    -0.005 A 
HETATM   23  C   UNL     1       7.587  25.668  52.679  1.00  0.00     0.014 A 
HETATM   24  C   UNL     1       7.904  24.426  52.125  1.00  0.00     0.001 A 
HETATM   25  C   UNL     1       7.728  23.264  52.873  1.00  0.00     0.000 A 
HETATM   26  C   UNL     1       7.228  23.338  54.172  1.00  0.00     0.001 A 
HETATM   27  C   UNL     1       6.918  24.580  54.730  1.00  0.00     0.014 A 
ENDBRANCH  17  22
ENDBRANCH  15  16
ENDBRANCH   1  15
BRANCH   4  28
HETATM   28  C   UNL     1       5.370  30.726  50.559  1.00  0.00     0.178 C 
BRANCH  28  29
HETATM   29  O   UNL     1       6.558  30.795  49.782  1.00  0.00    -0.400 OA
HETATM   30  H   UNL     1       6.754  29.888  49.468  1.00  0.00     0.209 HD
ENDBRANCH  28  29
ENDBRANCH   4  28
TORSDOF 5
ENDMDL
MODEL 5
REMARK VINA RESULT:      -8.7      4.077      7.859
REMARK  5 active torsions:
REMARK  status: ('A' for Active; 'I' for Inactive)
REMARK    1  A    between atoms: C_4  and  C_5 
REMARK    2  A    between atoms: C_11  and  C_12 
REMARK    3  A    between atoms: C_12  and  N_13 
REMARK    4  A    between atoms: C_16  and  C_17 
REMARK    5  A    between atoms: C_17  and  O_18 
ROOT
HETATM    1  N   UNL     1       4.681  26.411  51.093  1.00  0.00    -0.066 N 
HETATM    2  H   UNL     1       3.949  27.019  51.493  1.00  0.00     0.280 HD
HETATM    3  C   UNL     1       4.213  25.907  49.761  1.00  0.00     0.250 C 
HETATM    4  C   UNL     1       4.354  27.101  48.806  1.00  0.00     0.036 C 
HETATM    5  C   UNL     1       5.419  28.022  49.478  1.00  0.00     0.061 C 
HETATM    6  C   UNL     1       5.860  27.284  50.751  1.00  0.00     0.245 C 
HETATM    7  C   UNL     1       2.998  27.810  48.664  1.00  0.00     0.189 C 
HETATM    8  O   UNL     1       2.647  28.476  49.883  1.00  0.00    -0.350 OA
HETATM    9  C   UNL     1       3.494  29.542  50.051  1.00  0.00     0.075 A 
HETATM   10  C   UNL     1       4.865  29.386  49.823  1.00  0.00    -0.018 A 
HETATM   11  C   UNL     1       2.956  30.763  50.438  1.00  0.00     0.037 A 
HETATM   12  C   UNL     1       3.795  31.870  50.551  1.00  0.00     0.003 A 
HETATM   13  C   UNL     1       5.162  31.742  50.297  1.00  0.00     0.001 A 
HETATM   14  C   UNL     1       5.700  30.503  49.945  1.00  0.00     0.010 A 
ENDROOT
BRANCH   1  15
HETATM   15  C   UNL     1       4.966  25.313  52.075  1.00  0.00     0.277 C 
BRANCH  15  16
HETATM   16  C   UNL     1       5.339  25.804  53.422  1.00  0.00     0.016 A 
HETATM   17  C   UNL     1       6.197  25.176  54.379  1.00  0.00     0.096 A 
HETATM   18  N   UNL     1       6.339  25.947  55.465  1.00  0.00    -0.172 NA
HETATM   19  N   UNL     1       5.515  26.983  55.268  1.00  0.00    -0.284 N 
HETATM   20  C   UNL     1       5.346  27.972  56.308  1.00  0.00     0.179 C 
HETATM   21  C   UNL     1       4.918  26.967  54.042  1.00  0.00     0.123 A 
BRANCH  17  22
HETATM   22  C   UNL     1       6.901  23.899  54.283  1.00  0.00    -0.005 A 
HETATM   23  C   UNL     1       7.304  23.390  53.041  1.00  0.00     0.014 A 
HETATM   24  C   UNL     1       7.988  22.174  52.964  1.00  0.00     0.001 A 
HETATM   25  C   UNL     1       8.254  21.450  54.125  1.00  0.00     0.000 A 
HETATM   26  C   UNL     1       7.832  21.935  55.363  1.00  0.00     0.001 A 
HETATM   27  C   UNL     1       7.157  23.153  55.441  1.00  0.00     0.014 A 
ENDBRANCH  17  22
ENDBRANCH  15  16
ENDBRANCH   1  15
BRANCH   4  28
HETATM   28  C   UNL     1       4.811  26.627  47.422  1.00  0.00     0.178 C 
BRANCH  28  29
HETATM   29  O   UNL     1       6.003  27.312  47.064  1.00  0.00    -0.400 OA
HETATM   30  H   UNL     1       6.294  26.958  46.200  1.00  0.00     0.209 HD
ENDBRANCH  28  29
ENDBRANCH   4  28
TORSDOF 5
ENDMDL
MODEL 6
REMARK VINA RESULT:      -8.6      3.466      7.409
REMARK  5 active torsions:
REMARK  status: ('A' for Active; 'I' for Inactive)
REMARK    1  A    between atoms: C_4  and  C_5 
REMARK    2  A    between atoms: C_11  and  C_12 
REMARK    3  A    between atoms: C_12  and  N_13 
REMARK    4  A    between atoms: C_16  and  C_17 
REMARK    5  A    between atoms: C_17  and  O_18 
ROOT
HETATM    1  N   UNL     1       5.967  28.444  53.249  1.00  0.00    -0.066 N 
HETATM    2  H   UNL     1       5.660  27.472  53.407  1.00  0.00     0.280 HD
HETATM    3  C   UNL     1       4.995  29.370  53.915  1.00  0.00     0.250 C 
HETATM    4  C   UNL     1       5.302  29.267  55.416  1.00  0.00     0.036 C 
HETATM    5  C   UNL     1       6.776  28.761  55.485  1.00  0.00     0.061 C 
HETATM    6  C   UNL     1       7.242  28.647  54.025  1.00  0.00     0.245 C 
HETATM    7  C   UNL     1       4.329  28.276  56.074  1.00  0.00     0.189 C 
HETATM    8  O   UNL     1       4.607  26.937  55.646  1.00  0.00    -0.350 OA
HETATM    9  C   UNL     1       5.803  26.549  56.195  1.00  0.00     0.075 A 
HETATM   10  C   UNL     1       6.893  27.425  56.182  1.00  0.00    -0.018 A 
HETATM   11  C   UNL     1       5.893  25.285  56.764  1.00  0.00     0.037 A 
HETATM   12  C   UNL     1       7.081  24.901  57.382  1.00  0.00     0.003 A 
HETATM   13  C   UNL     1       8.172  25.772  57.408  1.00  0.00     0.001 A 
HETATM   14  C   UNL     1       8.085  27.027  56.800  1.00  0.00     0.010 A 
ENDROOT
BRANCH   1  15
HETATM   15  C   UNL     1       6.081  28.667  51.770  1.00  0.00     0.277 C 
BRANCH  15  16
HETATM   16  C   UNL     1       5.326  27.681  50.962  1.00  0.00     0.016 A 
HETATM   17  C   UNL     1       5.352  26.255  51.068  1.00  0.00     0.096 A 
HETATM   18  N   UNL     1       4.494  25.701  50.202  1.00  0.00    -0.172 NA
HETATM   19  N   UNL     1       4.014  26.723  49.483  1.00  0.00    -0.284 N 
HETATM   20  C   UNL     1       3.122  26.463  48.376  1.00  0.00     0.179 C 
HETATM   21  C   UNL     1       4.451  27.938  49.921  1.00  0.00     0.123 A 
BRANCH  17  22
HETATM   22  C   UNL     1       6.132  25.416  51.975  1.00  0.00    -0.005 A 
HETATM   23  C   UNL     1       5.516  24.724  53.026  1.00  0.00     0.014 A 
HETATM   24  C   UNL     1       6.273  23.915  53.878  1.00  0.00     0.001 A 
HETATM   25  C   UNL     1       7.650  23.809  53.696  1.00  0.00     0.000 A 
HETATM   26  C   UNL     1       8.276  24.516  52.671  1.00  0.00     0.001 A 
HETATM   27  C   UNL     1       7.520  25.318  51.814  1.00  0.00     0.014 A 
ENDBRANCH  17  22
ENDBRANCH  15  16
ENDBRANCH   1  15
BRANCH   4  28
HETATM   28  C   UNL     1       5.143  30.635  56.089  1.00  0.00     0.178 C 
BRANCH  28  29
HETATM   29  O   UNL     1       5.286  31.655  55.110  1.00  0.00    -0.400 OA
HETATM   30  H   UNL     1       4.882  31.323  54.282  1.00  0.00     0.209 HD
ENDBRANCH  28  29
ENDBRANCH   4  28
TORSDOF 5
ENDMDL
MODEL 7
REMARK VINA RESULT:      -8.5      4.089      7.775
REMARK  5 active torsions:
REMARK  status: ('A' for Active; 'I' for Inactive)
REMARK    1  A    between atoms: C_4  and  C_5 
REMARK    2  A    between atoms: C_11  and  C_12 
REMARK    3  A    between atoms: C_12  and  N_13 
REMARK    4  A    between atoms: C_16  and  C_17 
REMARK    5  A    between atoms: C_17  and  O_18 
ROOT
HETATM    1  N   UNL     1       4.742  27.292  53.518  1.00  0.00    -0.066 N 
HETATM    2  H   UNL     1       4.482  26.360  53.876  1.00  0.00     0.280 HD
HETATM    3  C   UNL     1       5.352  28.084  54.635  1.00  0.00     0.250 C 
HETATM    4  C   UNL     1       6.761  27.501  54.819  1.00  0.00     0.036 C 
HETATM    5  C   UNL     1       7.095  26.829  53.452  1.00  0.00     0.061 C 
HETATM    6  C   UNL     1       5.881  27.104  52.550  1.00  0.00     0.245 C 
HETATM    7  C   UNL     1       6.750  26.479  55.967  1.00  0.00     0.189 C 
HETATM    8  O   UNL     1       6.018  25.307  55.591  1.00  0.00    -0.350 OA
HETATM    9  C   UNL     1       6.740  24.636  54.637  1.00  0.00     0.075 A 
HETATM   10  C   UNL     1       7.329  25.342  53.583  1.00  0.00    -0.018 A 
HETATM   11  C   UNL     1       6.874  23.258  54.752  1.00  0.00     0.037 A 
HETATM   12  C   UNL     1       7.657  22.571  53.826  1.00  0.00     0.003 A 
HETATM   13  C   UNL     1       8.279  23.262  52.785  1.00  0.00     0.001 A 
HETATM   14  C   UNL     1       8.109  24.642  52.654  1.00  0.00     0.010 A 
ENDROOT
BRANCH   1  15
HETATM   15  C   UNL     1       3.515  27.932  52.940  1.00  0.00     0.277 C 
BRANCH  15  16
HETATM   16  C   UNL     1       3.805  29.107  52.085  1.00  0.00     0.016 A 
HETATM   17  C   UNL     1       3.686  29.209  50.663  1.00  0.00     0.096 A 
HETATM   18  N   UNL     1       3.987  30.447  50.251  1.00  0.00    -0.172 NA
HETATM   19  N   UNL     1       4.394  31.092  51.350  1.00  0.00    -0.284 N 
HETATM   20  C   UNL     1       4.894  32.444  51.244  1.00  0.00     0.179 C 
HETATM   21  C   UNL     1       4.271  30.347  52.486  1.00  0.00     0.123 A 
BRANCH  17  22
HETATM   22  C   UNL     1       3.271  28.190  49.701  1.00  0.00    -0.005 A 
HETATM   23  C   UNL     1       4.130  27.141  49.347  1.00  0.00     0.014 A 
HETATM   24  C   UNL     1       3.715  26.166  48.436  1.00  0.00     0.001 A 
HETATM   25  C   UNL     1       2.449  26.245  47.859  1.00  0.00     0.000 A 
HETATM   26  C   UNL     1       1.598  27.301  48.184  1.00  0.00     0.001 A 
HETATM   27  C   UNL     1       2.009  28.270  49.100  1.00  0.00     0.014 A 
ENDBRANCH  17  22
ENDBRANCH  15  16
ENDBRANCH   1  15
BRANCH   4  28
HETATM   28  C   UNL     1       7.759  28.614  55.160  1.00  0.00     0.178 C 
BRANCH  28  29
HETATM   29  O   UNL     1       8.659  28.781  54.073  1.00  0.00    -0.400 OA
HETATM   30  H   UNL     1       9.409  28.169  54.219  1.00  0.00     0.209 HD
ENDBRANCH  28  29
ENDBRANCH   4  28
TORSDOF 5
ENDMDL
MODEL 8
REMARK VINA RESULT:      -8.2      6.402      8.761
REMARK  5 active torsions:
REMARK  status: ('A' for Active; 'I' for Inactive)
REMARK    1  A    between atoms: C_4  and  C_5 
REMARK    2  A    between atoms: C_11  and  C_12 
REMARK    3  A    between atoms: C_12  and  N_13 
REMARK    4  A    between atoms: C_16  and  C_17 
REMARK    5  A    between atoms: C_17  and  O_18 
ROOT
HETATM    1  N   UNL     1       4.661  34.574  60.885  1.00  0.00    -0.066 N 
HETATM    2  H   UNL     1       5.640  34.772  60.628  1.00  0.00     0.280 HD
HETATM    3  C   UNL     1       4.003  33.846  59.752  1.00  0.00     0.250 C 
HETATM    4  C   UNL     1       4.558  32.415  59.817  1.00  0.00     0.036 C 
HETATM    5  C   UNL     1       5.031  32.239  61.292  1.00  0.00     0.061 C 
HETATM    6  C   UNL     1       4.681  33.559  61.998  1.00  0.00     0.245 C 
HETATM    7  C   UNL     1       5.722  32.268  58.824  1.00  0.00     0.189 C 
HETATM    8  O   UNL     1       6.858  33.020  59.266  1.00  0.00    -0.350 OA
HETATM    9  C   UNL     1       7.373  32.409  60.381  1.00  0.00     0.075 A 
HETATM   10  C   UNL     1       6.514  31.965  61.392  1.00  0.00    -0.018 A 
HETATM   11  C   UNL     1       8.749  32.238  60.469  1.00  0.00     0.037 A 
HETATM   12  C   UNL     1       9.281  31.562  61.566  1.00  0.00     0.003 A 
HETATM   13  C   UNL     1       8.438  31.084  62.570  1.00  0.00     0.001 A 
HETATM   14  C   UNL     1       7.060  31.293  62.492  1.00  0.00     0.010 A 
ENDROOT
BRANCH   1  15
HETATM   15  C   UNL     1       3.991  35.873  61.222  1.00  0.00     0.277 C 
BRANCH  15  16
HETATM   16  C   UNL     1       4.898  36.863  61.850  1.00  0.00     0.016 A 
HETATM   17  C   UNL     1       5.409  36.861  63.186  1.00  0.00     0.096 A 
HETATM   18  N   UNL     1       6.243  37.891  63.374  1.00  0.00    -0.172 NA
HETATM   19  N   UNL     1       6.188  38.598  62.239  1.00  0.00    -0.284 N 
HETATM   20  C   UNL     1       6.905  39.848  62.138  1.00  0.00     0.179 C 
HETATM   21  C   UNL     1       5.425  38.006  61.276  1.00  0.00     0.123 A 
BRANCH  17  22
HETATM   22  C   UNL     1       5.156  35.908  64.264  1.00  0.00    -0.005 A 
HETATM   23  C   UNL     1       3.981  35.974  65.025  1.00  0.00     0.014 A 
HETATM   24  C   UNL     1       3.747  35.048  66.044  1.00  0.00     0.001 A 
HETATM   25  C   UNL     1       4.693  34.064  66.323  1.00  0.00     0.000 A 
HETATM   26  C   UNL     1       5.878  34.007  65.590  1.00  0.00     0.001 A 
HETATM   27  C   UNL     1       6.109  34.927  64.566  1.00  0.00     0.014 A 
ENDBRANCH  17  22
ENDBRANCH  15  16
ENDBRANCH   1  15
BRANCH   4  28
HETATM   28  C   UNL     1       3.466  31.403  59.450  1.00  0.00     0.178 C 
BRANCH  28  29
HETATM   29  O   UNL     1       2.941  30.833  60.640  1.00  0.00    -0.400 OA
HETATM   30  H   UNL     1       2.419  30.046  60.381  1.00  0.00     0.209 HD
ENDBRANCH  28  29
ENDBRANCH   4  28
TORSDOF 5
ENDMDL
MODEL 9
REMARK VINA RESULT:      -7.8      4.291      7.862
REMARK  5 active torsions:
REMARK  status: ('A' for Active; 'I' for Inactive)
REMARK    1  A    between atoms: C_4  and  C_5 
REMARK    2  A    between atoms: C_11  and  C_12 
REMARK    3  A    between atoms: C_12  and  N_13 
REMARK    4  A    between atoms: C_16  and  C_17 
REMARK    5  A    between atoms: C_17  and  O_18 
ROOT
HETATM    1  N   UNL     1       5.076  27.823  50.842  1.00  0.00    -0.066 N 
HETATM    2  H   UNL     1       4.279  28.176  51.394  1.00  0.00     0.280 HD
HETATM    3  C   UNL     1       4.555  26.907  49.776  1.00  0.00     0.250 C 
HETATM    4  C   UNL     1       3.929  27.830  48.721  1.00  0.00     0.036 C 
HETATM    5  C   UNL     1       4.626  29.209  48.936  1.00  0.00     0.061 C 
HETATM    6  C   UNL     1       5.641  28.986  50.068  1.00  0.00     0.245 C 
HETATM    7  C   UNL     1       2.412  27.918  48.949  1.00  0.00     0.189 C 
HETATM    8  O   UNL     1       2.124  28.643  50.151  1.00  0.00    -0.350 OA
HETATM    9  C   UNL     1       2.444  29.961  49.946  1.00  0.00     0.075 A 
HETATM   10  C   UNL     1       3.646  30.296  49.312  1.00  0.00    -0.018 A 
HETATM   11  C   UNL     1       1.551  30.936  50.370  1.00  0.00     0.037 A 
HETATM   12  C   UNL     1       1.833  32.277  50.112  1.00  0.00     0.003 A 
HETATM   13  C   UNL     1       3.012  32.630  49.453  1.00  0.00     0.001 A 
HETATM   14  C   UNL     1       3.923  31.646  49.063  1.00  0.00     0.010 A 
ENDROOT
BRANCH   1  15
HETATM   15  C   UNL     1       6.038  27.156  51.779  1.00  0.00     0.277 C 
BRANCH  15  16
HETATM   16  C   UNL     1       5.639  27.247  53.203  1.00  0.00     0.016 A 
HETATM   17  C   UNL     1       5.951  26.338  54.262  1.00  0.00     0.096 A 
HETATM   18  N   UNL     1       5.460  26.782  55.426  1.00  0.00    -0.172 NA
HETATM   19  N   UNL     1       4.761  27.880  55.115  1.00  0.00    -0.284 N 
HETATM   20  C   UNL     1       4.007  28.564  56.141  1.00  0.00     0.179 C 
HETATM   21  C   UNL     1       4.865  28.226  53.800  1.00  0.00     0.123 A 
BRANCH  17  22
HETATM   22  C   UNL     1       6.715  25.094  54.209  1.00  0.00    -0.005 A 
HETATM   23  C   UNL     1       7.643  24.773  55.209  1.00  0.00     0.014 A 
HETATM   24  C   UNL     1       8.357  23.574  55.152  1.00  0.00     0.001 A 
HETATM   25  C   UNL     1       8.164  22.698  54.086  1.00  0.00     0.000 A 
HETATM   26  C   UNL     1       7.264  23.020  53.071  1.00  0.00     0.001 A 
HETATM   27  C   UNL     1       6.544  24.215  53.132  1.00  0.00     0.014 A 
ENDBRANCH  17  22
ENDBRANCH  15  16
ENDBRANCH   1  15
BRANCH   4  28
HETATM   28  C   UNL     1       4.185  27.282  47.313  1.00  0.00     0.178 C 
BRANCH  28  29
HETATM   29  O   UNL     1       5.419  26.579  47.304  1.00  0.00    -0.400 OA
HETATM   30  H   UNL     1       5.232  25.664  47.008  1.00  0.00     0.209 HD
ENDBRANCH  28  29
ENDBRANCH   4  28
TORSDOF 5
ENDMDL
MODEL 10
REMARK VINA RESULT:      -7.6      8.970     11.181
REMARK  5 active torsions:
REMARK  status: ('A' for Active; 'I' for Inactive)
REMARK    1  A    between atoms: C_4  and  C_5 
REMARK    2  A    between atoms: C_11  and  C_12 
REMARK    3  A    between atoms: C_12  and  N_13 
REMARK    4  A    between atoms: C_16  and  C_17 
REMARK    5  A    between atoms: C_17  and  O_18 
ROOT
HETATM    1  N   UNL     1       4.160  36.921  61.883  1.00  0.00    -0.066 N 
HETATM    2  H   UNL     1       5.044  36.539  61.511  1.00  0.00     0.280 HD
HETATM    3  C   UNL     1       3.032  36.035  61.451  1.00  0.00     0.250 C 
HETATM    4  C   UNL     1       3.139  34.785  62.337  1.00  0.00     0.036 C 
HETATM    5  C   UNL     1       3.930  35.258  63.596  1.00  0.00     0.061 C 
HETATM    6  C   UNL     1       4.190  36.757  63.380  1.00  0.00     0.245 C 
HETATM    7  C   UNL     1       3.886  33.677  61.579  1.00  0.00     0.189 C 
HETATM    8  O   UNL     1       5.269  34.019  61.422  1.00  0.00    -0.350 OA
HETATM    9  C   UNL     1       5.870  33.958  62.653  1.00  0.00     0.075 A 
HETATM   10  C   UNL     1       5.234  34.514  63.768  1.00  0.00    -0.018 A 
HETATM   11  C   UNL     1       7.104  33.328  62.760  1.00  0.00     0.037 A 
HETATM   12  C   UNL     1       7.697  33.202  64.015  1.00  0.00     0.003 A 
HETATM   13  C   UNL     1       7.064  33.724  65.144  1.00  0.00     0.001 A 
HETATM   14  C   UNL     1       5.842  34.388  65.023  1.00  0.00     0.010 A 
ENDROOT
BRANCH   1  15
HETATM   15  C   UNL     1       4.021  38.335  61.402  1.00  0.00     0.277 C 
BRANCH  15  16
HETATM   16  C   UNL     1       4.976  38.693  60.327  1.00  0.00     0.016 A 
HETATM   17  C   UNL     1       6.151  39.502  60.430  1.00  0.00     0.096 A 
HETATM   18  N   UNL     1       6.792  39.557  59.256  1.00  0.00    -0.172 NA
HETATM   19  N   UNL     1       6.003  38.902  58.396  1.00  0.00    -0.284 N 
HETATM   20  C   UNL     1       6.353  38.856  56.995  1.00  0.00     0.179 C 
HETATM   21  C   UNL     1       4.918  38.331  58.993  1.00  0.00     0.123 A 
BRANCH  17  22
HETATM   22  C   UNL     1       6.693  40.189  61.601  1.00  0.00    -0.005 A 
HETATM   23  C   UNL     1       6.887  39.508  62.811  1.00  0.00     0.014 A 
HETATM   24  C   UNL     1       7.418  40.174  63.918  1.00  0.00     0.001 A 
HETATM   25  C   UNL     1       7.739  41.527  63.829  1.00  0.00     0.000 A 
HETATM   26  C   UNL     1       7.523  42.220  62.639  1.00  0.00     0.001 A 
HETATM   27  C   UNL     1       7.000  41.553  61.529  1.00  0.00     0.014 A 
ENDBRANCH  17  22
ENDBRANCH  15  16
ENDBRANCH   1  15
BRANCH   4  28
HETATM   28  C   UNL     1       1.742  34.273  62.708  1.00  0.00     0.178 C 
BRANCH  28  29
HETATM   29  O   UNL     1       1.726  33.921  64.084  1.00  0.00    -0.400 OA
HETATM   30  H   UNL     1       2.414  34.456  64.530  1.00  0.00     0.209 HD
ENDBRANCH  28  29
ENDBRANCH   4  28
TORSDOF 5
ENDMDL
