MODEL 1
REMARK VINA RESULT:      -8.6      0.000      0.000
REMARK  8 active torsions:
REMARK  status: ('A' for Active; 'I' for Inactive)
REMARK    1  A    between atoms: C_2  and  O_3 
REMARK    2  A    between atoms: O_3  and  C_4 
REMARK    3  A    between atoms: C_4  and  C_5 
REMARK    4  A    between atoms: C_6  and  C_8 
REMARK    5  A    between atoms: C_6  and  O_7 
REMARK    6  A    between atoms: C_16  and  C_17 
REMARK    7  A    between atoms: C_18  and  C_19 
REMARK    8  A    between atoms: N_26  and  C_27 
ROOT
HETATM    1  C   UNL     1       7.571  27.278  56.669  1.00  0.00     0.177 C 
HETATM    2  C   UNL     1       7.593  28.682  57.291  1.00  0.00     0.250 C 
HETATM    3  N   UNL     1       8.911  29.251  57.033  1.00  0.00    -0.303 N 
HETATM    4  C   UNL     1       9.375  29.326  55.759  1.00  0.00     0.319 C 
HETATM    5  O   UNL     1      10.236  30.130  55.438  1.00  0.00    -0.247 OA
HETATM    6  N   UNL     1       8.808  28.477  54.873  1.00  0.00    -0.333 N 
HETATM    7  C   UNL     1       8.031  27.295  55.206  1.00  0.00     0.142 C 
HETATM    8  H   UNL     1       9.198  30.049  57.590  1.00  0.00     0.167 HD
HETATM    9  H   UNL     1       9.181  28.564  53.933  1.00  0.00     0.165 HD
ENDROOT
BRANCH   7  10
HETATM   10  C   UNL     1       7.014  27.113  54.113  1.00  0.00     0.015 A 
HETATM   11  C   UNL     1       6.646  25.894  53.450  1.00  0.00     0.097 A 
HETATM   12  N   UNL     1       5.678  26.105  52.548  1.00  0.00    -0.167 NA
HETATM   13  N   UNL     1       5.404  27.424  52.595  1.00  0.00    -0.244 N 
HETATM   14  C   UNL     1       6.198  28.060  53.523  1.00  0.00     0.130 A 
BRANCH  11  15
HETATM   15  C   UNL     1       7.157  24.534  53.639  1.00  0.00    -0.005 A 
HETATM   16  C   UNL     1       6.778  23.806  54.778  1.00  0.00     0.014 A 
HETATM   17  C   UNL     1       7.236  22.502  54.978  1.00  0.00     0.001 A 
HETATM   18  C   UNL     1       8.080  21.910  54.041  1.00  0.00     0.000 A 
HETATM   19  C   UNL     1       8.454  22.616  52.899  1.00  0.00     0.001 A 
HETATM   20  C   UNL     1       7.987  23.918  52.693  1.00  0.00     0.014 A 
ENDBRANCH  11  15
BRANCH  13  21
HETATM   21  C   UNL     1       4.400  27.994  51.761  1.00  0.00     0.058 A 
HETATM   22  C   UNL     1       4.401  27.703  50.388  1.00  0.00     0.031 A 
HETATM   23  C   UNL     1       3.423  28.247  49.552  1.00  0.00     0.002 A 
HETATM   24  C   UNL     1       2.442  29.084  50.076  1.00  0.00     0.000 A 
HETATM   25  C   UNL     1       2.436  29.381  51.438  1.00  0.00     0.002 A 
HETATM   26  C   UNL     1       3.410  28.839  52.283  1.00  0.00     0.031 A 
ENDBRANCH  13  21
ENDBRANCH   7  10
BRANCH   1  27
HETATM   27  C   UNL     1       6.363  26.400  56.909  1.00  0.00     0.270 C 
HETATM   28  O   UNL     1       5.234  26.715  56.554  1.00  0.00    -0.265 OA
BRANCH  27  29
HETATM   29  O   UNL     1       6.683  25.198  57.440  1.00  0.00    -0.321 OA
BRANCH  29  30
HETATM   30  C   UNL     1       7.930  25.123  58.149  1.00  0.00     0.174 C 
HETATM   31  C   UNL     1       8.867  24.141  57.469  1.00  0.00     0.034 C 
ENDBRANCH  29  30
ENDBRANCH  27  29
ENDBRANCH   1  27
BRANCH   2  32
HETATM   32  C   UNL     1       6.449  29.659  56.820  1.00  0.00     0.439 C 
HETATM   33  F   UNL     1       6.111  29.520  55.522  1.00  0.00    -0.166 F 
HETATM   34  F   UNL     1       5.321  29.455  57.552  1.00  0.00    -0.166 F 
HETATM   35  F   UNL     1       6.774  30.960  56.999  1.00  0.00    -0.166 F 
ENDBRANCH   2  32
BRANCH   2  36
HETATM   36  O   UNL     1       7.610  28.556  58.720  1.00  0.00    -0.363 OA
HETATM   37  H   UNL     1       7.232  27.682  58.914  1.00  0.00     0.213 HD
ENDBRANCH   2  36
TORSDOF 8
ENDMDL
MODEL 2
REMARK VINA RESULT:      -8.5      2.266      5.517
REMARK  8 active torsions:
REMARK  status: ('A' for Active; 'I' for Inactive)
REMARK    1  A    between atoms: C_2  and  O_3 
REMARK    2  A    between atoms: O_3  and  C_4 
REMARK    3  A    between atoms: C_4  and  C_5 
REMARK    4  A    between atoms: C_6  and  C_8 
REMARK    5  A    between atoms: C_6  and  O_7 
REMARK    6  A    between atoms: C_16  and  C_17 
REMARK    7  A    between atoms: C_18  and  C_19 
REMARK    8  A    between atoms: N_26  and  C_27 
ROOT
HETATM    1  C   UNL     1       6.898  29.019  55.125  1.00  0.00     0.177 C 
HETATM    2  C   UNL     1       6.506  29.125  56.607  1.00  0.00     0.250 C 
HETATM    3  N   UNL     1       5.146  29.651  56.660  1.00  0.00    -0.303 N 
HETATM    4  C   UNL     1       4.153  29.018  55.985  1.00  0.00     0.319 C 
HETATM    5  O   UNL     1       2.981  29.142  56.307  1.00  0.00    -0.247 OA
HETATM    6  N   UNL     1       4.544  28.228  54.960  1.00  0.00    -0.333 N 
HETATM    7  C   UNL     1       5.842  28.263  54.309  1.00  0.00     0.142 C 
HETATM    8  H   UNL     1       4.823  30.034  57.541  1.00  0.00     0.167 HD
HETATM    9  H   UNL     1       3.773  27.774  54.482  1.00  0.00     0.165 HD
ENDROOT
BRANCH   7  10
HETATM   10  C   UNL     1       6.139  26.865  53.840  1.00  0.00     0.015 A 
HETATM   11  C   UNL     1       6.018  26.340  52.509  1.00  0.00     0.097 A 
HETATM   12  N   UNL     1       6.401  25.058  52.456  1.00  0.00    -0.167 NA
HETATM   13  N   UNL     1       6.765  24.724  53.710  1.00  0.00    -0.244 N 
HETATM   14  C   UNL     1       6.611  25.789  54.569  1.00  0.00     0.130 A 
BRANCH  11  15
HETATM   15  C   UNL     1       5.569  27.000  51.280  1.00  0.00    -0.005 A 
HETATM   16  C   UNL     1       4.970  26.236  50.265  1.00  0.00     0.014 A 
HETATM   17  C   UNL     1       4.519  26.838  49.089  1.00  0.00     0.001 A 
HETATM   18  C   UNL     1       4.662  28.213  48.913  1.00  0.00     0.000 A 
HETATM   19  C   UNL     1       5.242  28.986  49.917  1.00  0.00     0.001 A 
HETATM   20  C   UNL     1       5.685  28.385  51.099  1.00  0.00     0.014 A 
ENDBRANCH  11  15
BRANCH  13  21
HETATM   21  C   UNL     1       7.243  23.417  54.011  1.00  0.00     0.058 A 
HETATM   22  C   UNL     1       7.658  22.579  52.964  1.00  0.00     0.031 A 
HETATM   23  C   UNL     1       8.135  21.294  53.236  1.00  0.00     0.002 A 
HETATM   24  C   UNL     1       8.197  20.836  54.549  1.00  0.00     0.000 A 
HETATM   25  C   UNL     1       7.784  21.660  55.595  1.00  0.00     0.002 A 
HETATM   26  C   UNL     1       7.308  22.948  55.331  1.00  0.00     0.031 A 
ENDBRANCH  13  21
ENDBRANCH   7  10
BRANCH   1  27
HETATM   27  C   UNL     1       8.318  28.631  54.780  1.00  0.00     0.270 C 
HETATM   28  O   UNL     1       8.675  28.375  53.637  1.00  0.00    -0.265 OA
BRANCH  27  29
HETATM   29  O   UNL     1       9.159  28.715  55.836  1.00  0.00    -0.321 OA
BRANCH  29  30
HETATM   30  C   UNL     1      10.205  29.694  55.745  1.00  0.00     0.174 C 
HETATM   31  C   UNL     1      10.989  29.755  57.043  1.00  0.00     0.034 C 
ENDBRANCH  29  30
ENDBRANCH  27  29
ENDBRANCH   1  27
BRANCH   2  32
HETATM   32  C   UNL     1       6.637  27.798  57.447  1.00  0.00     0.439 C 
HETATM   33  F   UNL     1       7.283  26.804  56.804  1.00  0.00    -0.166 F 
HETATM   34  F   UNL     1       7.314  28.034  58.602  1.00  0.00    -0.166 F 
HETATM   35  F   UNL     1       5.434  27.302  57.819  1.00  0.00    -0.166 F 
ENDBRANCH   2  32
BRANCH   2  36
HETATM   36  O   UNL     1       7.250  30.194  57.208  1.00  0.00    -0.363 OA
HETATM   37  H   UNL     1       7.811  29.779  57.886  1.00  0.00     0.213 HD
ENDBRANCH   2  36
TORSDOF 8
ENDMDL
MODEL 3
REMARK VINA RESULT:      -8.3      9.245     12.957
REMARK  8 active torsions:
REMARK  status: ('A' for Active; 'I' for Inactive)
REMARK    1  A    between atoms: C_2  and  O_3 
REMARK    2  A    between atoms: O_3  and  C_4 
REMARK    3  A    between atoms: C_4  and  C_5 
REMARK    4  A    between atoms: C_6  and  C_8 
REMARK    5  A    between atoms: C_6  and  O_7 
REMARK    6  A    between atoms: C_16  and  C_17 
REMARK    7  A    between atoms: C_18  and  C_19 
REMARK    8  A    between atoms: N_26  and  C_27 
ROOT
HETATM    1  C   UNL     1       3.921  36.890  63.231  1.00  0.00     0.177 C 
HETATM    2  C   UNL     1       4.154  37.945  62.139  1.00  0.00     0.250 C 
HETATM    3  N   UNL     1       4.848  39.068  62.761  1.00  0.00    -0.303 N 
HETATM    4  C   UNL     1       6.012  38.857  63.425  1.00  0.00     0.319 C 
HETATM    5  O   UNL     1       6.824  39.754  63.596  1.00  0.00    -0.247 OA
HETATM    6  N   UNL     1       6.225  37.594  63.859  1.00  0.00    -0.333 N 
HETATM    7  C   UNL     1       5.213  36.559  63.989  1.00  0.00     0.142 C 
HETATM    8  H   UNL     1       4.846  39.954  62.268  1.00  0.00     0.167 HD
HETATM    9  H   UNL     1       7.104  37.477  64.350  1.00  0.00     0.165 HD
ENDROOT
BRANCH   7  10
HETATM   10  C   UNL     1       5.894  35.242  63.740  1.00  0.00     0.015 A 
HETATM   11  C   UNL     1       6.188  34.210  64.694  1.00  0.00     0.097 A 
HETATM   12  N   UNL     1       6.774  33.159  64.107  1.00  0.00    -0.167 NA
HETATM   13  N   UNL     1       6.878  33.470  62.799  1.00  0.00    -0.244 N 
HETATM   14  C   UNL     1       6.364  34.722  62.548  1.00  0.00     0.130 A 
BRANCH  11  15
HETATM   15  C   UNL     1       5.928  34.166  66.136  1.00  0.00    -0.005 A 
HETATM   16  C   UNL     1       6.989  34.351  67.035  1.00  0.00     0.014 A 
HETATM   17  C   UNL     1       6.769  34.329  68.414  1.00  0.00     0.001 A 
HETATM   18  C   UNL     1       5.484  34.121  68.910  1.00  0.00     0.000 A 
HETATM   19  C   UNL     1       4.418  33.950  68.028  1.00  0.00     0.001 A 
HETATM   20  C   UNL     1       4.636  33.981  66.648  1.00  0.00     0.014 A 
ENDBRANCH  11  15
BRANCH  13  21
HETATM   21  C   UNL     1       7.453  32.555  61.872  1.00  0.00     0.058 A 
HETATM   22  C   UNL     1       8.593  31.825  62.244  1.00  0.00     0.031 A 
HETATM   23  C   UNL     1       9.172  30.918  61.352  1.00  0.00     0.002 A 
HETATM   24  C   UNL     1       8.620  30.735  60.087  1.00  0.00     0.000 A 
HETATM   25  C   UNL     1       7.490  31.458  59.708  1.00  0.00     0.002 A 
HETATM   26  C   UNL     1       6.904  32.366  60.596  1.00  0.00     0.031 A 
ENDBRANCH  13  21
ENDBRANCH   7  10
BRANCH   1  27
HETATM   27  C   UNL     1       3.093  35.672  62.893  1.00  0.00     0.270 C 
HETATM   28  O   UNL     1       2.959  34.727  63.661  1.00  0.00    -0.265 OA
BRANCH  27  29
HETATM   29  O   UNL     1       2.429  35.795  61.720  1.00  0.00    -0.321 OA
BRANCH  29  30
HETATM   30  C   UNL     1       1.792  34.610  61.217  1.00  0.00     0.174 C 
HETATM   31  C   UNL     1       2.752  33.821  60.347  1.00  0.00     0.034 C 
ENDBRANCH  29  30
ENDBRANCH  27  29
ENDBRANCH   1  27
BRANCH   2  32
HETATM   32  C   UNL     1       4.919  37.445  60.855  1.00  0.00     0.439 C 
HETATM   33  F   UNL     1       5.007  36.103  60.759  1.00  0.00    -0.166 F 
HETATM   34  F   UNL     1       4.295  37.886  59.730  1.00  0.00    -0.166 F 
HETATM   35  F   UNL     1       6.183  37.923  60.787  1.00  0.00    -0.166 F 
ENDBRANCH   2  32
BRANCH   2  36
HETATM   36  O   UNL     1       2.896  38.541  61.793  1.00  0.00    -0.363 OA
HETATM   37  H   UNL     1       2.285  38.307  62.512  1.00  0.00     0.213 HD
ENDBRANCH   2  36
TORSDOF 8
ENDMDL
MODEL 4
REMARK VINA RESULT:      -8.3      2.730      5.576
REMARK  8 active torsions:
REMARK  status: ('A' for Active; 'I' for Inactive)
REMARK    1  A    between atoms: C_2  and  O_3 
REMARK    2  A    between atoms: O_3  and  C_4 
REMARK    3  A    between atoms: C_4  and  C_5 
REMARK    4  A    between atoms: C_6  and  C_8 
REMARK    5  A    between atoms: C_6  and  O_7 
REMARK    6  A    between atoms: C_16  and  C_17 
REMARK    7  A    between atoms: C_18  and  C_19 
REMARK    8  A    between atoms: N_26  and  C_27 
ROOT
HETATM    1  C   UNL     1       6.933  27.569  56.402  1.00  0.00     0.177 C 
HETATM    2  C   UNL     1       7.315  26.084  56.499  1.00  0.00     0.250 C 
HETATM    3  N   UNL     1       6.405  25.463  57.455  1.00  0.00    -0.303 N 
HETATM    4  C   UNL     1       5.064  25.562  57.271  1.00  0.00     0.319 C 
HETATM    5  O   UNL     1       4.289  24.755  57.762  1.00  0.00    -0.247 OA
HETATM    6  N   UNL     1       4.648  26.587  56.493  1.00  0.00    -0.333 N 
HETATM    7  C   UNL     1       5.434  27.756  56.137  1.00  0.00     0.142 C 
HETATM    8  H   UNL     1       6.671  24.564  57.842  1.00  0.00     0.167 HD
HETATM    9  H   UNL     1       3.641  26.626  56.381  1.00  0.00     0.165 HD
ENDROOT
BRANCH   7  10
HETATM   10  C   UNL     1       4.977  28.196  54.773  1.00  0.00     0.015 A 
HETATM   11  C   UNL     1       4.482  29.486  54.386  1.00  0.00     0.097 A 
HETATM   12  N   UNL     1       4.201  29.525  53.077  1.00  0.00    -0.167 NA
HETATM   13  N   UNL     1       4.491  28.301  52.595  1.00  0.00    -0.244 N 
HETATM   14  C   UNL     1       4.954  27.474  53.594  1.00  0.00     0.130 A 
BRANCH  11  15
HETATM   15  C   UNL     1       4.275  30.691  55.194  1.00  0.00    -0.005 A 
HETATM   16  C   UNL     1       3.027  31.333  55.170  1.00  0.00     0.014 A 
HETATM   17  C   UNL     1       2.795  32.474  55.941  1.00  0.00     0.001 A 
HETATM   18  C   UNL     1       3.810  32.987  56.746  1.00  0.00     0.000 A 
HETATM   19  C   UNL     1       5.050  32.352  56.790  1.00  0.00     0.001 A 
HETATM   20  C   UNL     1       5.279  31.204  56.026  1.00  0.00     0.014 A 
ENDBRANCH  11  15
BRANCH  13  21
HETATM   21  C   UNL     1       4.317  27.996  51.215  1.00  0.00     0.058 A 
HETATM   22  C   UNL     1       3.527  28.842  50.419  1.00  0.00     0.031 A 
HETATM   23  C   UNL     1       3.346  28.566  49.062  1.00  0.00     0.002 A 
HETATM   24  C   UNL     1       3.947  27.447  48.490  1.00  0.00     0.000 A 
HETATM   25  C   UNL     1       4.731  26.601  49.273  1.00  0.00     0.002 A 
HETATM   26  C   UNL     1       4.918  26.872  50.633  1.00  0.00     0.031 A 
ENDBRANCH  13  21
ENDBRANCH   7  10
BRANCH   1  27
HETATM   27  C   UNL     1       7.808  28.488  55.580  1.00  0.00     0.270 C 
HETATM   28  O   UNL     1       8.007  28.319  54.384  1.00  0.00    -0.265 OA
BRANCH  27  29
HETATM   29  O   UNL     1       8.239  29.566  56.275  1.00  0.00    -0.321 OA
BRANCH  29  30
HETATM   30  C   UNL     1       9.237  29.323  57.279  1.00  0.00     0.174 C 
HETATM   31  C   UNL     1      10.627  29.520  56.702  1.00  0.00     0.034 C 
ENDBRANCH  29  30
ENDBRANCH  27  29
ENDBRANCH   1  27
BRANCH   2  32
HETATM   32  C   UNL     1       7.337  25.292  55.136  1.00  0.00     0.439 C 
HETATM   33  F   UNL     1       7.674  26.047  54.070  1.00  0.00    -0.166 F 
HETATM   34  F   UNL     1       8.228  24.267  55.198  1.00  0.00    -0.166 F 
HETATM   35  F   UNL     1       6.143  24.725  54.848  1.00  0.00    -0.166 F 
ENDBRANCH   2  32
BRANCH   2  36
HETATM   36  O   UNL     1       8.571  25.972  57.183  1.00  0.00    -0.363 OA
HETATM   37  H   UNL     1       8.803  26.874  57.462  1.00  0.00     0.213 HD
ENDBRANCH   2  36
TORSDOF 8
ENDMDL
MODEL 5
REMARK VINA RESULT:      -8.3      8.396     12.136
REMARK  8 active torsions:
REMARK  status: ('A' for Active; 'I' for Inactive)
REMARK    1  A    between atoms: C_2  and  O_3 
REMARK    2  A    between atoms: O_3  and  C_4 
REMARK    3  A    between atoms: C_4  and  C_5 
REMARK    4  A    between atoms: C_6  and  C_8 
REMARK    5  A    between atoms: C_6  and  O_7 
REMARK    6  A    between atoms: C_16  and  C_17 
REMARK    7  A    between atoms: C_18  and  C_19 
REMARK    8  A    between atoms: N_26  and  C_27 
ROOT
HETATM    1  C   UNL     1       5.055  32.420  62.146  1.00  0.00     0.177 C 
HETATM    2  C   UNL     1       6.460  31.804  62.233  1.00  0.00     0.250 C 
HETATM    3  N   UNL     1       6.812  31.334  60.898  1.00  0.00    -0.303 N 
HETATM    4  C   UNL     1       6.773  32.194  59.850  1.00  0.00     0.319 C 
HETATM    5  O   UNL     1       7.426  31.998  58.836  1.00  0.00    -0.247 OA
HETATM    6  N   UNL     1       5.991  33.286  60.009  1.00  0.00    -0.333 N 
HETATM    7  C   UNL     1       4.953  33.448  61.012  1.00  0.00     0.142 C 
HETATM    8  H   UNL     1       7.575  30.671  60.819  1.00  0.00     0.167 HD
HETATM    9  H   UNL     1       5.989  33.903  59.204  1.00  0.00     0.165 HD
ENDROOT
BRANCH   7  10
HETATM   10  C   UNL     1       4.891  34.912  61.351  1.00  0.00     0.015 A 
HETATM   11  C   UNL     1       3.783  35.808  61.177  1.00  0.00     0.097 A 
HETATM   12  N   UNL     1       4.078  37.036  61.622  1.00  0.00    -0.167 NA
HETATM   13  N   UNL     1       5.345  36.976  62.078  1.00  0.00    -0.244 N 
HETATM   14  C   UNL     1       5.865  35.711  61.920  1.00  0.00     0.130 A 
BRANCH  11  15
HETATM   15  C   UNL     1       2.451  35.553  60.622  1.00  0.00    -0.005 A 
HETATM   16  C   UNL     1       1.473  34.943  61.424  1.00  0.00     0.014 A 
HETATM   17  C   UNL     1       0.190  34.701  60.928  1.00  0.00     0.001 A 
HETATM   18  C   UNL     1      -0.130  35.067  59.623  1.00  0.00     0.000 A 
HETATM   19  C   UNL     1       0.826  35.685  58.819  1.00  0.00     0.001 A 
HETATM   20  C   UNL     1       2.107  35.936  59.318  1.00  0.00     0.014 A 
ENDBRANCH  11  15
BRANCH  13  21
HETATM   21  C   UNL     1       5.977  38.121  62.638  1.00  0.00     0.058 A 
HETATM   22  C   UNL     1       6.852  38.881  61.845  1.00  0.00     0.031 A 
HETATM   23  C   UNL     1       7.480  40.012  62.373  1.00  0.00     0.002 A 
HETATM   24  C   UNL     1       7.243  40.391  63.691  1.00  0.00     0.000 A 
HETATM   25  C   UNL     1       6.378  39.641  64.487  1.00  0.00     0.002 A 
HETATM   26  C   UNL     1       5.743  38.509  63.965  1.00  0.00     0.031 A 
ENDBRANCH  13  21
ENDBRANCH   7  10
BRANCH   1  27
HETATM   27  C   UNL     1       4.380  32.864  63.424  1.00  0.00     0.270 C 
HETATM   28  O   UNL     1       3.204  33.204  63.468  1.00  0.00    -0.265 OA
BRANCH  27  29
HETATM   29  O   UNL     1       5.172  32.729  64.512  1.00  0.00    -0.321 OA
BRANCH  29  30
HETATM   30  C   UNL     1       5.023  33.721  65.540  1.00  0.00     0.174 C 
HETATM   31  C   UNL     1       6.350  33.970  66.233  1.00  0.00     0.034 C 
ENDBRANCH  29  30
ENDBRANCH  27  29
ENDBRANCH   1  27
BRANCH   2  32
HETATM   32  C   UNL     1       7.583  32.740  62.823  1.00  0.00     0.439 C 
HETATM   33  F   UNL     1       7.181  34.010  63.036  1.00  0.00    -0.166 F 
HETATM   34  F   UNL     1       8.026  32.255  64.014  1.00  0.00    -0.166 F 
HETATM   35  F   UNL     1       8.672  32.806  62.024  1.00  0.00    -0.166 F 
ENDBRANCH   2  32
BRANCH   2  36
HETATM   36  O   UNL     1       6.380  30.570  62.960  1.00  0.00    -0.363 OA
HETATM   37  H   UNL     1       6.306  30.817  63.898  1.00  0.00     0.213 HD
ENDBRANCH   2  36
TORSDOF 8
ENDMDL
MODEL 6
REMARK VINA RESULT:      -8.1      4.323      7.255
REMARK  8 active torsions:
REMARK  status: ('A' for Active; 'I' for Inactive)
REMARK    1  A    between atoms: C_2  and  O_3 
REMARK    2  A    between atoms: O_3  and  C_4 
REMARK    3  A    between atoms: C_4  and  C_5 
REMARK    4  A    between atoms: C_6  and  C_8 
REMARK    5  A    between atoms: C_6  and  O_7 
REMARK    6  A    between atoms: C_16  and  C_17 
REMARK    7  A    between atoms: C_18  and  C_19 
REMARK    8  A    between atoms: N_26  and  C_27 
ROOT
HETATM    1  C   UNL     1       4.828  28.288  49.024  1.00  0.00     0.177 C 
HETATM    2  C   UNL     1       3.507  28.079  48.268  1.00  0.00     0.250 C 
HETATM    3  N   UNL     1       3.466  26.684  47.842  1.00  0.00    -0.303 N 
HETATM    4  C   UNL     1       3.609  25.696  48.760  1.00  0.00     0.319 C 
HETATM    5  O   UNL     1       3.184  24.568  48.559  1.00  0.00    -0.247 OA
HETATM    6  N   UNL     1       4.224  26.043  49.913  1.00  0.00    -0.333 N 
HETATM    7  C   UNL     1       5.030  27.234  50.120  1.00  0.00     0.142 C 
HETATM    8  H   UNL     1       2.808  26.434  47.112  1.00  0.00     0.167 HD
HETATM    9  H   UNL     1       4.311  25.277  50.573  1.00  0.00     0.165 HD
ENDROOT
BRANCH   7  10
HETATM   10  C   UNL     1       4.869  27.632  51.561  1.00  0.00     0.015 A 
HETATM   11  C   UNL     1       5.414  26.983  52.719  1.00  0.00     0.097 A 
HETATM   12  N   UNL     1       5.090  27.637  53.841  1.00  0.00    -0.167 NA
HETATM   13  N   UNL     1       4.346  28.694  53.457  1.00  0.00    -0.244 N 
HETATM   14  C   UNL     1       4.188  28.713  52.089  1.00  0.00     0.130 A 
BRANCH  11  15
HETATM   15  C   UNL     1       6.241  25.776  52.813  1.00  0.00    -0.005 A 
HETATM   16  C   UNL     1       5.924  24.794  53.764  1.00  0.00     0.014 A 
HETATM   17  C   UNL     1       6.685  23.627  53.868  1.00  0.00     0.001 A 
HETATM   18  C   UNL     1       7.773  23.430  53.021  1.00  0.00     0.000 A 
HETATM   19  C   UNL     1       8.091  24.390  52.062  1.00  0.00     0.001 A 
HETATM   20  C   UNL     1       7.324  25.554  51.952  1.00  0.00     0.014 A 
ENDBRANCH  11  15
BRANCH  13  21
HETATM   21  C   UNL     1       3.838  29.619  54.412  1.00  0.00     0.058 A 
HETATM   22  C   UNL     1       3.919  29.309  55.779  1.00  0.00     0.031 A 
HETATM   23  C   UNL     1       3.432  30.204  56.735  1.00  0.00     0.002 A 
HETATM   24  C   UNL     1       2.860  31.409  56.336  1.00  0.00     0.000 A 
HETATM   25  C   UNL     1       2.772  31.724  54.980  1.00  0.00     0.002 A 
HETATM   26  C   UNL     1       3.260  30.834  54.018  1.00  0.00     0.031 A 
ENDBRANCH  13  21
ENDBRANCH   7  10
BRANCH   1  27
HETATM   27  C   UNL     1       5.198  29.688  49.459  1.00  0.00     0.270 C 
HETATM   28  O   UNL     1       6.246  29.947  50.037  1.00  0.00    -0.265 OA
BRANCH  27  29
HETATM   29  O   UNL     1       4.313  30.621  49.038  1.00  0.00    -0.321 OA
BRANCH  29  30
HETATM   30  C   UNL     1       4.278  31.850  49.780  1.00  0.00     0.174 C 
HETATM   31  C   UNL     1       2.946  32.002  50.491  1.00  0.00     0.034 C 
ENDBRANCH  29  30
ENDBRANCH  27  29
ENDBRANCH   1  27
BRANCH   2  32
HETATM   32  C   UNL     1       2.198  28.474  49.053  1.00  0.00     0.439 C 
HETATM   33  F   UNL     1       2.394  28.692  50.369  1.00  0.00    -0.166 F 
HETATM   34  F   UNL     1       1.661  29.610  48.534  1.00  0.00    -0.166 F 
HETATM   35  F   UNL     1       1.233  27.531  48.954  1.00  0.00    -0.166 F 
ENDBRANCH   2  32
BRANCH   2  36
HETATM   36  O   UNL     1       3.581  28.761  47.008  1.00  0.00    -0.363 OA
HETATM   37  H   UNL     1       2.662  28.862  46.706  1.00  0.00     0.213 HD
ENDBRANCH   2  36
TORSDOF 8
ENDMDL
MODEL 7
REMARK VINA RESULT:      -8.0      8.629     12.540
REMARK  8 active torsions:
REMARK  status: ('A' for Active; 'I' for Inactive)
REMARK    1  A    between atoms: C_2  and  O_3 
REMARK    2  A    between atoms: O_3  and  C_4 
REMARK    3  A    between atoms: C_4  and  C_5 
REMARK    4  A    between atoms: C_6  and  C_8 
REMARK    5  A    between atoms: C_6  and  O_7 
REMARK    6  A    between atoms: C_16  and  C_17 
REMARK    7  A    between atoms: C_18  and  C_19 
REMARK    8  A    between atoms: N_26  and  C_27 
ROOT
HETATM    1  C   UNL     1       4.335  35.120  60.906  1.00  0.00     0.177 C 
HETATM    2  C   UNL     1       2.826  34.863  60.776  1.00  0.00     0.250 C 
HETATM    3  N   UNL     1       2.655  33.740  59.860  1.00  0.00    -0.303 N 
HETATM    4  C   UNL     1       3.282  32.563  60.113  1.00  0.00     0.319 C 
HETATM    5  O   UNL     1       2.873  31.508  59.653  1.00  0.00    -0.247 OA
HETATM    6  N   UNL     1       4.365  32.631  60.920  1.00  0.00    -0.333 N 
HETATM    7  C   UNL     1       5.105  33.838  61.248  1.00  0.00     0.142 C 
HETATM    8  H   UNL     1       1.737  33.602  59.451  1.00  0.00     0.167 HD
HETATM    9  H   UNL     1       4.805  31.733  61.084  1.00  0.00     0.165 HD
ENDROOT
BRANCH   7  10
HETATM   10  C   UNL     1       5.651  33.657  62.638  1.00  0.00     0.015 A 
HETATM   11  C   UNL     1       6.848  32.968  63.028  1.00  0.00     0.097 A 
HETATM   12  N   UNL     1       7.038  33.038  64.352  1.00  0.00    -0.167 NA
HETATM   13  N   UNL     1       6.002  33.747  64.843  1.00  0.00    -0.244 N 
HETATM   14  C   UNL     1       5.144  34.127  63.835  1.00  0.00     0.130 A 
BRANCH  11  15
HETATM   15  C   UNL     1       7.830  32.257  62.205  1.00  0.00    -0.005 A 
HETATM   16  C   UNL     1       8.246  32.818  60.987  1.00  0.00     0.014 A 
HETATM   17  C   UNL     1       9.192  32.171  60.189  1.00  0.00     0.001 A 
HETATM   18  C   UNL     1       9.734  30.955  60.600  1.00  0.00     0.000 A 
HETATM   19  C   UNL     1       9.341  30.394  61.813  1.00  0.00     0.001 A 
HETATM   20  C   UNL     1       8.401  31.045  62.618  1.00  0.00     0.014 A 
ENDBRANCH  11  15
BRANCH  13  21
HETATM   21  C   UNL     1       5.896  34.022  66.236  1.00  0.00     0.058 A 
HETATM   22  C   UNL     1       7.061  34.276  66.976  1.00  0.00     0.031 A 
HETATM   23  C   UNL     1       6.982  34.554  68.343  1.00  0.00     0.002 A 
HETATM   24  C   UNL     1       5.744  34.577  68.980  1.00  0.00     0.000 A 
HETATM   25  C   UNL     1       4.581  34.324  68.253  1.00  0.00     0.002 A 
HETATM   26  C   UNL     1       4.653  34.047  66.883  1.00  0.00     0.031 A 
ENDBRANCH  13  21
ENDBRANCH   7  10
BRANCH   1  27
HETATM   27  C   UNL     1       4.797  36.327  61.692  1.00  0.00     0.270 C 
HETATM   28  O   UNL     1       5.943  36.449  62.107  1.00  0.00    -0.265 OA
BRANCH  27  29
HETATM   29  O   UNL     1       3.852  37.292  61.778  1.00  0.00    -0.321 OA
BRANCH  29  30
HETATM   30  C   UNL     1       4.178  38.560  61.188  1.00  0.00     0.174 C 
HETATM   31  C   UNL     1       3.019  39.528  61.337  1.00  0.00     0.034 C 
ENDBRANCH  29  30
ENDBRANCH  27  29
ENDBRANCH   1  27
BRANCH   2  32
HETATM   32  C   UNL     1       2.053  34.619  62.128  1.00  0.00     0.439 C 
HETATM   33  F   UNL     1       2.316  35.536  63.081  1.00  0.00    -0.166 F 
HETATM   34  F   UNL     1       0.710  34.637  61.915  1.00  0.00    -0.166 F 
HETATM   35  F   UNL     1       2.325  33.408  62.667  1.00  0.00    -0.166 F 
ENDBRANCH   2  32
BRANCH   2  36
HETATM   36  O   UNL     1       2.236  35.935  60.028  1.00  0.00    -0.363 OA
HETATM   37  H   UNL     1       2.914  36.631  59.980  1.00  0.00     0.213 HD
ENDBRANCH   2  36
TORSDOF 8
ENDMDL
MODEL 8
REMARK VINA RESULT:      -7.7      4.344      7.970
REMARK  8 active torsions:
REMARK  status: ('A' for Active; 'I' for Inactive)
REMARK    1  A    between atoms: C_2  and  O_3 
REMARK    2  A    between atoms: O_3  and  C_4 
REMARK    3  A    between atoms: C_4  and  C_5 
REMARK    4  A    between atoms: C_6  and  C_8 
REMARK    5  A    between atoms: C_6  and  O_7 
REMARK    6  A    between atoms: C_16  and  C_17 
REMARK    7  A    between atoms: C_18  and  C_19 
REMARK    8  A    between atoms: N_26  and  C_27 
ROOT
HETATM    1  C   UNL     1       3.631  29.901  49.907  1.00  0.00     0.177 C 
HETATM    2  C   UNL     1       4.364  29.901  48.557  1.00  0.00     0.250 C 
HETATM    3  N   UNL     1       5.127  31.141  48.477  1.00  0.00    -0.303 N 
HETATM    4  C   UNL     1       6.011  31.452  49.458  1.00  0.00     0.319 C 
HETATM    5  O   UNL     1       6.944  32.217  49.261  1.00  0.00    -0.247 OA
HETATM    6  N   UNL     1       5.810  30.846  50.650  1.00  0.00    -0.333 N 
HETATM    7  C   UNL     1       4.584  30.192  51.073  1.00  0.00     0.142 C 
HETATM    8  H   UNL     1       5.454  31.435  47.563  1.00  0.00     0.167 HD
HETATM    9  H   UNL     1       6.491  31.105  51.356  1.00  0.00     0.165 HD
ENDROOT
BRANCH   7  10
HETATM   10  C   UNL     1       4.977  29.073  51.998  1.00  0.00     0.015 A 
HETATM   11  C   UNL     1       4.688  28.946  53.398  1.00  0.00     0.097 A 
HETATM   12  N   UNL     1       5.168  27.798  53.891  1.00  0.00    -0.167 NA
HETATM   13  N   UNL     1       5.767  27.169  52.860  1.00  0.00    -0.244 N 
HETATM   14  C   UNL     1       5.676  27.915  51.707  1.00  0.00     0.130 A 
BRANCH  11  15
HETATM   15  C   UNL     1       3.965  29.857  54.290  1.00  0.00    -0.005 A 
HETATM   16  C   UNL     1       3.958  29.608  55.672  1.00  0.00     0.014 A 
HETATM   17  C   UNL     1       3.290  30.466  56.549  1.00  0.00     0.001 A 
HETATM   18  C   UNL     1       2.621  31.583  56.054  1.00  0.00     0.000 A 
HETATM   19  C   UNL     1       2.630  31.849  54.686  1.00  0.00     0.001 A 
HETATM   20  C   UNL     1       3.307  30.996  53.808  1.00  0.00     0.014 A 
ENDBRANCH  11  15
BRANCH  13  21
HETATM   21  C   UNL     1       6.382  25.896  53.036  1.00  0.00     0.058 A 
HETATM   22  C   UNL     1       6.091  25.145  54.186  1.00  0.00     0.031 A 
HETATM   23  C   UNL     1       6.679  23.892  54.377  1.00  0.00     0.002 A 
HETATM   24  C   UNL     1       7.559  23.382  53.427  1.00  0.00     0.000 A 
HETATM   25  C   UNL     1       7.856  24.122  52.283  1.00  0.00     0.002 A 
HETATM   26  C   UNL     1       7.270  25.377  52.084  1.00  0.00     0.031 A 
ENDBRANCH  13  21
ENDBRANCH   7  10
BRANCH   1  27
HETATM   27  C   UNL     1       2.648  28.789  50.196  1.00  0.00     0.270 C 
HETATM   28  O   UNL     1       1.953  28.764  51.204  1.00  0.00    -0.265 OA
BRANCH  27  29
HETATM   29  O   UNL     1       2.537  27.906  49.176  1.00  0.00    -0.321 OA
BRANCH  29  30
HETATM   30  C   UNL     1       1.232  27.759  48.596  1.00  0.00     0.174 C 
HETATM   31  C   UNL     1       1.324  27.045  47.260  1.00  0.00     0.034 C 
ENDBRANCH  29  30
ENDBRANCH  27  29
ENDBRANCH   1  27
BRANCH   2  32
HETATM   32  C   UNL     1       5.279  28.649  48.274  1.00  0.00     0.439 C 
HETATM   33  F   UNL     1       4.817  27.501  48.811  1.00  0.00    -0.166 F 
HETATM   34  F   UNL     1       5.402  28.444  46.936  1.00  0.00    -0.166 F 
HETATM   35  F   UNL     1       6.539  28.815  48.739  1.00  0.00    -0.166 F 
ENDBRANCH   2  32
BRANCH   2  36
HETATM   36  O   UNL     1       3.403  30.087  47.508  1.00  0.00    -0.363 OA
HETATM   37  H   UNL     1       3.742  29.587  46.746  1.00  0.00     0.213 HD
ENDBRANCH   2  36
TORSDOF 8
ENDMDL
MODEL 9
REMARK VINA RESULT:      -7.5      2.135      5.477
REMARK  8 active torsions:
REMARK  status: ('A' for Active; 'I' for Inactive)
REMARK    1  A    between atoms: C_2  and  O_3 
REMARK    2  A    between atoms: O_3  and  C_4 
REMARK    3  A    between atoms: C_4  and  C_5 
REMARK    4  A    between atoms: C_6  and  C_8 
REMARK    5  A    between atoms: C_6  and  O_7 
REMARK    6  A    between atoms: C_16  and  C_17 
REMARK    7  A    between atoms: C_18  and  C_19 
REMARK    8  A    between atoms: N_26  and  C_27 
ROOT
HETATM    1  C   UNL     1       6.541  29.222  54.629  1.00  0.00     0.177 C 
HETATM    2  C   UNL     1       5.393  29.563  55.591  1.00  0.00     0.250 C 
HETATM    3  N   UNL     1       4.422  30.355  54.846  1.00  0.00    -0.303 N 
HETATM    4  C   UNL     1       3.899  29.868  53.692  1.00  0.00     0.319 C 
HETATM    5  O   UNL     1       2.826  30.261  53.259  1.00  0.00    -0.247 OA
HETATM    6  N   UNL     1       4.624  28.910  53.072  1.00  0.00    -0.333 N 
HETATM    7  C   UNL     1       6.024  28.612  53.320  1.00  0.00     0.142 C 
HETATM    8  H   UNL     1       3.742  30.889  55.376  1.00  0.00     0.167 HD
HETATM    9  H   UNL     1       4.200  28.573  52.214  1.00  0.00     0.165 HD
ENDROOT
BRANCH   7  10
HETATM   10  C   UNL     1       6.213  27.140  53.070  1.00  0.00     0.015 A 
HETATM   11  C   UNL     1       5.936  26.411  51.866  1.00  0.00     0.097 A 
HETATM   12  N   UNL     1       6.258  25.118  51.996  1.00  0.00    -0.167 NA
HETATM   13  N   UNL     1       6.734  24.975  53.249  1.00  0.00    -0.244 N 
HETATM   14  C   UNL     1       6.712  26.174  53.924  1.00  0.00     0.130 A 
BRANCH  11  15
HETATM   15  C   UNL     1       5.392  26.883  50.589  1.00  0.00    -0.005 A 
HETATM   16  C   UNL     1       5.763  28.148  50.106  1.00  0.00     0.014 A 
HETATM   17  C   UNL     1       5.274  28.619  48.885  1.00  0.00     0.001 A 
HETATM   18  C   UNL     1       4.407  27.830  48.134  1.00  0.00     0.000 A 
HETATM   19  C   UNL     1       4.040  26.566  48.594  1.00  0.00     0.001 A 
HETATM   20  C   UNL     1       4.537  26.091  49.811  1.00  0.00     0.014 A 
ENDBRANCH  11  15
BRANCH  13  21
HETATM   21  C   UNL     1       7.184  23.709  53.722  1.00  0.00     0.058 A 
HETATM   22  C   UNL     1       7.151  23.439  55.099  1.00  0.00     0.031 A 
HETATM   23  C   UNL     1       7.584  22.202  55.585  1.00  0.00     0.002 A 
HETATM   24  C   UNL     1       8.053  21.231  54.704  1.00  0.00     0.000 A 
HETATM   25  C   UNL     1       8.092  21.492  53.335  1.00  0.00     0.002 A 
HETATM   26  C   UNL     1       7.658  22.727  52.841  1.00  0.00     0.031 A 
ENDBRANCH  13  21
ENDBRANCH   7  10
BRANCH   1  27
HETATM   27  C   UNL     1       7.761  28.519  55.180  1.00  0.00     0.270 C 
HETATM   28  O   UNL     1       8.772  28.328  54.516  1.00  0.00    -0.265 OA
BRANCH  27  29
HETATM   29  O   UNL     1       7.656  28.240  56.500  1.00  0.00    -0.321 OA
BRANCH  29  30
HETATM   30  C   UNL     1       8.497  27.189  57.001  1.00  0.00     0.174 C 
HETATM   31  C   UNL     1       7.656  26.091  57.626  1.00  0.00     0.034 C 
ENDBRANCH  29  30
ENDBRANCH  27  29
ENDBRANCH   1  27
BRANCH   2  32
HETATM   32  C   UNL     1       4.704  28.335  56.299  1.00  0.00     0.439 C 
HETATM   33  F   UNL     1       3.357  28.398  56.315  1.00  0.00    -0.166 F 
HETATM   34  F   UNL     1       5.043  27.176  55.674  1.00  0.00    -0.166 F 
HETATM   35  F   UNL     1       5.101  28.190  57.585  1.00  0.00    -0.166 F 
ENDBRANCH   2  32
BRANCH   2  36
HETATM   36  O   UNL     1       5.863  30.517  56.554  1.00  0.00    -0.363 OA
HETATM   37  H   UNL     1       5.356  31.331  56.392  1.00  0.00     0.213 HD
ENDBRANCH   2  36
TORSDOF 8
ENDMDL
MODEL 10
REMARK VINA RESULT:      -7.5      6.184     10.056
REMARK  8 active torsions:
REMARK  status: ('A' for Active; 'I' for Inactive)
REMARK    1  A    between atoms: C_2  and  O_3 
REMARK    2  A    between atoms: O_3  and  C_4 
REMARK    3  A    between atoms: C_4  and  C_5 
REMARK    4  A    between atoms: C_6  and  C_8 
REMARK    5  A    between atoms: C_6  and  O_7 
REMARK    6  A    between atoms: C_16  and  C_17 
REMARK    7  A    between atoms: C_18  and  C_19 
REMARK    8  A    between atoms: N_26  and  C_27 
ROOT
HETATM    1  C   UNL     1       3.055  32.848  59.788  1.00  0.00     0.177 C 
HETATM    2  C   UNL     1       2.606  34.245  60.243  1.00  0.00     0.250 C 
HETATM    3  N   UNL     1       2.101  34.118  61.605  1.00  0.00    -0.303 N 
HETATM    4  C   UNL     1       2.888  33.573  62.567  1.00  0.00     0.319 C 
HETATM    5  O   UNL     1       2.707  33.809  63.752  1.00  0.00    -0.247 OA
HETATM    6  N   UNL     1       3.893  32.781  62.131  1.00  0.00    -0.333 N 
HETATM    7  C   UNL     1       3.996  32.193  60.806  1.00  0.00     0.142 C 
HETATM    8  H   UNL     1       1.523  34.869  61.966  1.00  0.00     0.167 HD
HETATM    9  H   UNL     1       4.457  32.393  62.879  1.00  0.00     0.165 HD
ENDROOT
BRANCH   7  10
HETATM   10  C   UNL     1       5.462  32.080  60.486  1.00  0.00     0.015 A 
HETATM   11  C   UNL     1       6.570  32.563  61.260  1.00  0.00     0.097 A 
HETATM   12  N   UNL     1       7.737  32.254  60.682  1.00  0.00    -0.167 NA
HETATM   13  N   UNL     1       7.430  31.588  59.550  1.00  0.00    -0.244 N 
HETATM   14  C   UNL     1       6.066  31.474  59.401  1.00  0.00     0.130 A 
BRANCH  11  15
HETATM   15  C   UNL     1       6.577  33.292  62.532  1.00  0.00    -0.005 A 
HETATM   16  C   UNL     1       7.042  32.652  63.691  1.00  0.00     0.014 A 
HETATM   17  C   UNL     1       7.075  33.326  64.915  1.00  0.00     0.001 A 
HETATM   18  C   UNL     1       6.643  34.648  64.992  1.00  0.00     0.000 A 
HETATM   19  C   UNL     1       6.191  35.300  63.845  1.00  0.00     0.001 A 
HETATM   20  C   UNL     1       6.167  34.629  62.619  1.00  0.00     0.014 A 
ENDBRANCH  11  15
BRANCH  13  21
HETATM   21  C   UNL     1       8.452  31.097  58.689  1.00  0.00     0.058 A 
HETATM   22  C   UNL     1       8.158  30.052  57.799  1.00  0.00     0.031 A 
HETATM   23  C   UNL     1       9.143  29.558  56.941  1.00  0.00     0.002 A 
HETATM   24  C   UNL     1      10.426  30.099  56.965  1.00  0.00     0.000 A 
HETATM   25  C   UNL     1      10.727  31.136  57.847  1.00  0.00     0.002 A 
HETATM   26  C   UNL     1       9.746  31.638  58.708  1.00  0.00     0.031 A 
ENDBRANCH  13  21
ENDBRANCH   7  10
BRANCH   1  27
HETATM   27  C   UNL     1       3.495  32.662  58.354  1.00  0.00     0.270 C 
HETATM   28  O   UNL     1       4.171  33.489  57.756  1.00  0.00    -0.265 OA
BRANCH  27  29
HETATM   29  O   UNL     1       3.168  31.447  57.856  1.00  0.00    -0.321 OA
BRANCH  29  30
HETATM   30  C   UNL     1       3.678  31.131  56.551  1.00  0.00     0.174 C 
HETATM   31  C   UNL     1       4.338  29.765  56.556  1.00  0.00     0.034 C 
ENDBRANCH  29  30
ENDBRANCH  27  29
ENDBRANCH   1  27
BRANCH   2  32
HETATM   32  C   UNL     1       3.695  35.381  60.143  1.00  0.00     0.439 C 
HETATM   33  F   UNL     1       4.952  34.921  59.979  1.00  0.00    -0.166 F 
HETATM   34  F   UNL     1       3.428  36.201  59.092  1.00  0.00    -0.166 F 
HETATM   35  F   UNL     1       3.712  36.177  61.237  1.00  0.00    -0.166 F 
ENDBRANCH   2  32
BRANCH   2  36
HETATM   36  O   UNL     1       1.416  34.605  59.528  1.00  0.00    -0.363 OA
HETATM   37  H   UNL     1       0.740  33.959  59.793  1.00  0.00     0.213 HD
ENDBRANCH   2  36
TORSDOF 8
ENDMDL
