MODEL 1
REMARK VINA RESULT:      -7.0      0.000      0.000
REMARK  10 active torsions:
REMARK  status: ('A' for Active; 'I' for Inactive)
REMARK    1  A    between atoms: C_2  and  O_3 
REMARK    2  A    between atoms: O_3  and  C_4 
REMARK    3  A    between atoms: C_4  and  C_5 
REMARK    4  A    between atoms: C_6  and  C_7 
REMARK    5  A    between atoms: C_16  and  C_17 
REMARK    6  A    between atoms: C_17  and  C_18 
REMARK       I    between atoms: C_18  and  N_19 
REMARK    7  A    between atoms: N_19  and  C_20 
REMARK    8  A    between atoms: C_20  and  C_21 
REMARK    9  A    between atoms: C_21  and  N_22 
REMARK   10  A    between atoms: C_31  and  C_32 
ROOT
HETATM    1  C   UNL     1       4.341  29.614  54.718  1.00  0.00     0.078 C 
HETATM    2  C   UNL     1       4.786  28.180  54.776  1.00  0.00     0.167 C 
HETATM    3  N   UNL     1       4.944  27.571  53.431  1.00  0.00    -0.318 N 
HETATM    4  C   UNL     1       5.190  26.369  53.014  1.00  0.00     0.011 C 
HETATM    5  C   UNL     1       4.895  28.580  52.259  1.00  0.00     0.170 C 
HETATM    6  S   UNL     1       5.226  27.827  50.737  1.00  0.00    -0.086 SA
HETATM    7  C   UNL     1       5.257  26.194  51.512  1.00  0.00     0.135 C 
HETATM    8  N   UNL     1       4.648  29.835  52.361  1.00  0.00    -0.219 NA
HETATM    9  C   UNL     1       4.292  30.363  53.593  1.00  0.00     0.157 C 
ENDROOT
BRANCH   4  10
HETATM   10  C   UNL     1       5.429  25.207  53.935  1.00  0.00     0.156 C 
BRANCH  10  11
HETATM   11  C   UNL     1       6.802  24.580  53.879  1.00  0.00     0.223 C 
HETATM   12  N   UNL     1       6.834  23.364  53.243  1.00  0.00    -0.359 N 
HETATM   13  H   UNL     1       5.946  22.943  52.971  1.00  0.00     0.162 HD
HETATM   14  O   UNL     1       7.808  25.136  54.313  1.00  0.00    -0.273 OA
BRANCH  12  15
HETATM   15  C   UNL     1       7.981  22.453  53.232  1.00  0.00     0.150 C 
BRANCH  15  16
HETATM   16  C   UNL     1       7.959  21.328  54.289  1.00  0.00     0.253 C 
BRANCH  16  17
HETATM   17  N   UNL     1       8.912  21.590  55.439  1.00  0.00    -0.077 N 
HETATM   18  H   UNL     1       9.724  22.108  55.051  1.00  0.00     0.279 HD
HETATM   19  C   UNL     1       8.323  22.462  56.517  1.00  0.00     0.269 C 
HETATM   20  C   UNL     1       9.436  20.308  56.031  1.00  0.00     0.269 C 
ENDBRANCH  16  17
ENDBRANCH  15  16
ENDBRANCH  12  15
ENDBRANCH  10  11
ENDBRANCH   4  10
BRANCH   2  21
HETATM   21  C   UNL     1       6.069  27.995  55.590  1.00  0.00    -0.024 A 
HETATM   22  C   UNL     1       6.162  27.075  56.663  1.00  0.00    -0.053 A 
HETATM   23  C   UNL     1       5.001  26.288  57.211  1.00  0.00     0.049 C 
HETATM   24  C   UNL     1       7.389  26.929  57.333  1.00  0.00     0.008 A 
HETATM   25  C   UNL     1       8.515  27.656  56.952  1.00  0.00     0.007 A 
HETATM   26  C   UNL     1       8.439  28.572  55.907  1.00  0.00    -0.061 A 
HETATM   27  C   UNL     1       9.636  29.400  55.537  1.00  0.00     0.048 C 
HETATM   28  C   UNL     1       7.215  28.757  55.253  1.00  0.00     0.017 A 
ENDBRANCH   2  21
BRANCH   1  29
HETATM   29  C   UNL     1       3.792  30.100  56.000  1.00  0.00     0.294 C 
HETATM   30  O   UNL     1       2.709  29.708  56.406  1.00  0.00    -0.259 OA
BRANCH  29  31
HETATM   31  O   UNL     1       4.662  30.926  56.607  1.00  0.00    -0.318 OA
BRANCH  31  32
HETATM   32  C   UNL     1       5.108  30.525  57.915  1.00  0.00     0.174 C 
HETATM   33  C   UNL     1       6.541  30.960  58.147  1.00  0.00     0.034 C 
ENDBRANCH  31  32
ENDBRANCH  29  31
ENDBRANCH   1  29
BRANCH   9  34
HETATM   34  C   UNL     1       3.737  31.803  53.567  1.00  0.00     0.435 C 
HETATM   35  F   UNL     1       3.598  32.259  52.298  1.00  0.00    -0.165 F 
HETATM   36  F   UNL     1       2.508  31.876  54.137  1.00  0.00    -0.165 F 
HETATM   37  F   UNL     1       4.556  32.658  54.220  1.00  0.00    -0.165 F 
ENDBRANCH   9  34
TORSDOF 10
ENDMDL
MODEL 2
REMARK VINA RESULT:      -6.5      5.447      9.289
REMARK  10 active torsions:
REMARK  status: ('A' for Active; 'I' for Inactive)
REMARK    1  A    between atoms: C_2  and  O_3 
REMARK    2  A    between atoms: O_3  and  C_4 
REMARK    3  A    between atoms: C_4  and  C_5 
REMARK    4  A    between atoms: C_6  and  C_7 
REMARK    5  A    between atoms: C_16  and  C_17 
REMARK    6  A    between atoms: C_17  and  C_18 
REMARK       I    between atoms: C_18  and  N_19 
REMARK    7  A    between atoms: N_19  and  C_20 
REMARK    8  A    between atoms: C_20  and  C_21 
REMARK    9  A    between atoms: C_21  and  N_22 
REMARK   10  A    between atoms: C_31  and  C_32 
ROOT
HETATM    1  C   UNL     1       6.663  29.871  57.293  1.00  0.00     0.078 C 
HETATM    2  C   UNL     1       5.601  30.662  58.003  1.00  0.00     0.167 C 
HETATM    3  N   UNL     1       6.137  31.463  59.132  1.00  0.00    -0.318 N 
HETATM    4  C   UNL     1       5.591  32.180  60.062  1.00  0.00     0.011 C 
HETATM    5  C   UNL     1       7.681  31.545  59.185  1.00  0.00     0.170 C 
HETATM    6  S   UNL     1       8.235  32.604  60.437  1.00  0.00    -0.086 SA
HETATM    7  C   UNL     1       6.546  32.829  61.041  1.00  0.00     0.135 C 
HETATM    8  N   UNL     1       8.492  30.925  58.407  1.00  0.00    -0.219 NA
HETATM    9  C   UNL     1       7.993  30.013  57.489  1.00  0.00     0.157 C 
ENDROOT
BRANCH   4  10
HETATM   10  C   UNL     1       4.109  32.400  60.173  1.00  0.00     0.156 C 
BRANCH  10  11
HETATM   11  C   UNL     1       3.536  32.410  61.571  1.00  0.00     0.223 C 
HETATM   12  N   UNL     1       2.885  33.573  61.898  1.00  0.00    -0.359 N 
HETATM   13  H   UNL     1       2.935  34.351  61.241  1.00  0.00     0.162 HD
HETATM   14  O   UNL     1       3.600  31.443  62.325  1.00  0.00    -0.273 OA
BRANCH  12  15
HETATM   15  C   UNL     1       2.425  33.927  63.243  1.00  0.00     0.150 C 
BRANCH  15  16
HETATM   16  C   UNL     1       3.460  34.631  64.146  1.00  0.00     0.253 C 
BRANCH  16  17
HETATM   17  N   UNL     1       4.186  33.665  65.063  1.00  0.00    -0.077 N 
HETATM   18  H   UNL     1       3.641  32.782  65.070  1.00  0.00     0.279 HD
HETATM   19  C   UNL     1       5.570  33.310  64.583  1.00  0.00     0.269 C 
HETATM   20  C   UNL     1       4.238  34.173  66.480  1.00  0.00     0.269 C 
ENDBRANCH  16  17
ENDBRANCH  15  16
ENDBRANCH  12  15
ENDBRANCH  10  11
ENDBRANCH   4  10
BRANCH   2  21
HETATM   21  C   UNL     1       4.805  31.562  57.054  1.00  0.00    -0.024 A 
HETATM   22  C   UNL     1       3.485  31.255  56.643  1.00  0.00    -0.053 A 
HETATM   23  C   UNL     1       2.772  29.968  56.967  1.00  0.00     0.049 C 
HETATM   24  C   UNL     1       2.802  32.155  55.806  1.00  0.00     0.008 A 
HETATM   25  C   UNL     1       3.391  33.347  55.390  1.00  0.00     0.007 A 
HETATM   26  C   UNL     1       4.691  33.661  55.776  1.00  0.00    -0.061 A 
HETATM   27  C   UNL     1       5.347  34.916  55.276  1.00  0.00     0.048 C 
HETATM   28  C   UNL     1       5.398  32.758  56.578  1.00  0.00     0.017 A 
ENDBRANCH   2  21
BRANCH   1  29
HETATM   29  C   UNL     1       6.112  28.783  56.460  1.00  0.00     0.294 C 
HETATM   30  O   UNL     1       5.706  27.750  56.969  1.00  0.00    -0.259 OA
BRANCH  29  31
HETATM   31  O   UNL     1       6.085  29.142  55.165  1.00  0.00    -0.318 OA
BRANCH  31  32
HETATM   32  C   UNL     1       5.042  28.553  54.366  1.00  0.00     0.174 C 
HETATM   33  C   UNL     1       4.382  29.602  53.493  1.00  0.00     0.034 C 
ENDBRANCH  31  32
ENDBRANCH  29  31
ENDBRANCH   1  29
BRANCH   9  34
HETATM   34  C   UNL     1       9.044  29.111  56.806  1.00  0.00     0.435 C 
HETATM   35  F   UNL     1       8.780  27.798  57.014  1.00  0.00    -0.165 F 
HETATM   36  F   UNL     1       9.059  29.291  55.462  1.00  0.00    -0.165 F 
HETATM   37  F   UNL     1      10.286  29.357  57.279  1.00  0.00    -0.165 F 
ENDBRANCH   9  34
TORSDOF 10
ENDMDL
MODEL 3
REMARK VINA RESULT:      -6.5      8.055     11.588
REMARK  10 active torsions:
REMARK  status: ('A' for Active; 'I' for Inactive)
REMARK    1  A    between atoms: C_2  and  O_3 
REMARK    2  A    between atoms: O_3  and  C_4 
REMARK    3  A    between atoms: C_4  and  C_5 
REMARK    4  A    between atoms: C_6  and  C_7 
REMARK    5  A    between atoms: C_16  and  C_17 
REMARK    6  A    between atoms: C_17  and  C_18 
REMARK       I    between atoms: C_18  and  N_19 
REMARK    7  A    between atoms: N_19  and  C_20 
REMARK    8  A    between atoms: C_20  and  C_21 
REMARK    9  A    between atoms: C_21  and  N_22 
REMARK   10  A    between atoms: C_31  and  C_32 
ROOT
HETATM    1  C   UNL     1       4.140  33.845  59.942  1.00  0.00     0.078 C 
HETATM    2  C   UNL     1       4.418  33.642  61.404  1.00  0.00     0.167 C 
HETATM    3  N   UNL     1       5.627  32.816  61.652  1.00  0.00    -0.318 N 
HETATM    4  C   UNL     1       6.164  32.307  62.715  1.00  0.00     0.011 C 
HETATM    5  C   UNL     1       6.501  32.566  60.399  1.00  0.00     0.170 C 
HETATM    6  S   UNL     1       7.961  31.720  60.783  1.00  0.00    -0.086 SA
HETATM    7  C   UNL     1       7.427  31.501  62.496  1.00  0.00     0.135 C 
HETATM    8  N   UNL     1       6.218  32.931  59.203  1.00  0.00    -0.219 NA
HETATM    9  C   UNL     1       4.987  33.516  58.941  1.00  0.00     0.157 C 
ENDROOT
BRANCH   4  10
HETATM   10  C   UNL     1       5.611  32.508  64.097  1.00  0.00     0.156 C 
BRANCH  10  11
HETATM   11  C   UNL     1       6.319  33.526  64.960  1.00  0.00     0.223 C 
HETATM   12  N   UNL     1       5.808  33.633  66.229  1.00  0.00    -0.359 N 
HETATM   13  H   UNL     1       4.954  33.122  66.446  1.00  0.00     0.162 HD
HETATM   14  O   UNL     1       7.299  34.159  64.576  1.00  0.00    -0.273 OA
BRANCH  12  15
HETATM   15  C   UNL     1       6.167  34.677  67.192  1.00  0.00     0.150 C 
BRANCH  15  16
HETATM   16  C   UNL     1       5.401  34.650  68.532  1.00  0.00     0.253 C 
BRANCH  16  17
HETATM   17  N   UNL     1       6.326  34.598  69.732  1.00  0.00    -0.077 N 
HETATM   18  H   UNL     1       5.878  35.149  70.488  1.00  0.00     0.279 HD
HETATM   19  C   UNL     1       6.522  33.206  70.276  1.00  0.00     0.269 C 
HETATM   20  C   UNL     1       7.658  35.236  69.437  1.00  0.00     0.269 C 
ENDBRANCH  16  17
ENDBRANCH  15  16
ENDBRANCH  12  15
ENDBRANCH  10  11
ENDBRANCH   4  10
BRANCH   2  21
HETATM   21  C   UNL     1       4.519  34.962  62.173  1.00  0.00    -0.024 A 
HETATM   22  C   UNL     1       3.694  35.259  63.284  1.00  0.00    -0.053 A 
HETATM   23  C   UNL     1       2.550  34.396  63.749  1.00  0.00     0.049 C 
HETATM   24  C   UNL     1       3.878  36.475  63.967  1.00  0.00     0.008 A 
HETATM   25  C   UNL     1       4.864  37.380  63.582  1.00  0.00     0.007 A 
HETATM   26  C   UNL     1       5.678  37.109  62.486  1.00  0.00    -0.061 A 
HETATM   27  C   UNL     1       6.699  38.113  62.034  1.00  0.00     0.048 C 
HETATM   28  C   UNL     1       5.483  35.921  61.772  1.00  0.00     0.017 A 
ENDBRANCH   2  21
BRANCH   1  29
HETATM   29  C   UNL     1       2.758  34.294  59.674  1.00  0.00     0.294 C 
HETATM   30  O   UNL     1       1.804  33.596  59.976  1.00  0.00    -0.259 OA
BRANCH  29  31
HETATM   31  O   UNL     1       2.755  35.531  59.148  1.00  0.00    -0.318 OA
BRANCH  31  32
HETATM   32  C   UNL     1       1.974  36.515  59.849  1.00  0.00     0.174 C 
HETATM   33  C   UNL     1       2.797  37.761  60.112  1.00  0.00     0.034 C 
ENDBRANCH  31  32
ENDBRANCH  29  31
ENDBRANCH   1  29
BRANCH   9  34
HETATM   34  C   UNL     1       4.618  33.655  57.448  1.00  0.00     0.435 C 
HETATM   35  F   UNL     1       5.450  32.930  56.662  1.00  0.00    -0.165 F 
HETATM   36  F   UNL     1       3.364  33.203  57.199  1.00  0.00    -0.165 F 
HETATM   37  F   UNL     1       4.692  34.942  57.041  1.00  0.00    -0.165 F 
ENDBRANCH   9  34
TORSDOF 10
ENDMDL
MODEL 4
REMARK VINA RESULT:      -6.3      1.680      2.608
REMARK  10 active torsions:
REMARK  status: ('A' for Active; 'I' for Inactive)
REMARK    1  A    between atoms: C_2  and  O_3 
REMARK    2  A    between atoms: O_3  and  C_4 
REMARK    3  A    between atoms: C_4  and  C_5 
REMARK    4  A    between atoms: C_6  and  C_7 
REMARK    5  A    between atoms: C_16  and  C_17 
REMARK    6  A    between atoms: C_17  and  C_18 
REMARK       I    between atoms: C_18  and  N_19 
REMARK    7  A    between atoms: N_19  and  C_20 
REMARK    8  A    between atoms: C_20  and  C_21 
REMARK    9  A    between atoms: C_21  and  N_22 
REMARK   10  A    between atoms: C_31  and  C_32 
ROOT
HETATM    1  C   UNL     1       4.675  29.810  55.215  1.00  0.00     0.078 C 
HETATM    2  C   UNL     1       5.290  28.672  55.978  1.00  0.00     0.167 C 
HETATM    3  N   UNL     1       5.253  27.390  55.231  1.00  0.00    -0.318 N 
HETATM    4  C   UNL     1       5.553  26.166  55.533  1.00  0.00     0.011 C 
HETATM    5  C   UNL     1       4.854  27.526  53.742  1.00  0.00     0.170 C 
HETATM    6  S   UNL     1       4.966  26.019  52.898  1.00  0.00    -0.086 SA
HETATM    7  C   UNL     1       5.344  25.145  54.435  1.00  0.00     0.135 C 
HETATM    8  N   UNL     1       4.484  28.608  53.161  1.00  0.00    -0.219 NA
HETATM    9  C   UNL     1       4.317  29.762  53.912  1.00  0.00     0.157 C 
ENDROOT
BRANCH   4  10
HETATM   10  C   UNL     1       6.106  25.757  56.869  1.00  0.00     0.156 C 
BRANCH  10  11
HETATM   11  C   UNL     1       7.469  25.106  56.858  1.00  0.00     0.223 C 
HETATM   12  N   UNL     1       7.460  23.801  56.433  1.00  0.00    -0.359 N 
HETATM   13  H   UNL     1       6.557  23.355  56.274  1.00  0.00     0.162 HD
HETATM   14  O   UNL     1       8.498  25.709  57.150  1.00  0.00    -0.273 OA
BRANCH  12  15
HETATM   15  C   UNL     1       8.596  22.882  56.524  1.00  0.00     0.150 C 
BRANCH  15  16
HETATM   16  C   UNL     1       9.171  22.385  55.180  1.00  0.00     0.253 C 
BRANCH  16  17
HETATM   17  N   UNL     1       8.927  20.906  54.952  1.00  0.00    -0.077 N 
HETATM   18  H   UNL     1       9.857  20.446  54.910  1.00  0.00     0.279 HD
HETATM   19  C   UNL     1       8.173  20.244  56.076  1.00  0.00     0.269 C 
HETATM   20  C   UNL     1       8.237  20.650  53.638  1.00  0.00     0.269 C 
ENDBRANCH  16  17
ENDBRANCH  15  16
ENDBRANCH  12  15
ENDBRANCH  10  11
ENDBRANCH   4  10
BRANCH   2  21
HETATM   21  C   UNL     1       6.721  28.973  56.432  1.00  0.00    -0.024 A 
HETATM   22  C   UNL     1       7.834  28.858  55.564  1.00  0.00    -0.053 A 
HETATM   23  C   UNL     1       7.767  28.305  54.165  1.00  0.00     0.049 C 
HETATM   24  C   UNL     1       9.112  29.197  56.042  1.00  0.00     0.008 A 
HETATM   25  C   UNL     1       9.300  29.658  57.343  1.00  0.00     0.007 A 
HETATM   26  C   UNL     1       8.219  29.768  58.213  1.00  0.00    -0.061 A 
HETATM   27  C   UNL     1       8.432  30.207  59.634  1.00  0.00     0.048 C 
HETATM   28  C   UNL     1       6.946  29.400  57.764  1.00  0.00     0.017 A 
ENDBRANCH   2  21
BRANCH   1  29
HETATM   29  C   UNL     1       4.334  30.964  56.072  1.00  0.00     0.294 C 
HETATM   30  O   UNL     1       3.385  30.916  56.838  1.00  0.00    -0.259 OA
BRANCH  29  31
HETATM   31  O   UNL     1       5.227  31.956  55.910  1.00  0.00    -0.318 OA
BRANCH  31  32
HETATM   32  C   UNL     1       4.857  33.236  56.454  1.00  0.00     0.174 C 
HETATM   33  C   UNL     1       4.820  34.288  55.364  1.00  0.00     0.034 C 
ENDBRANCH  31  32
ENDBRANCH  29  31
ENDBRANCH   1  29
BRANCH   9  34
HETATM   34  C   UNL     1       3.600  30.927  53.194  1.00  0.00     0.435 C 
HETATM   35  F   UNL     1       2.599  31.436  53.954  1.00  0.00    -0.165 F 
HETATM   36  F   UNL     1       4.447  31.953  52.937  1.00  0.00    -0.165 F 
HETATM   37  F   UNL     1       3.057  30.524  52.023  1.00  0.00    -0.165 F 
ENDBRANCH   9  34
TORSDOF 10
ENDMDL
MODEL 5
REMARK VINA RESULT:      -6.2      1.723      2.738
REMARK  10 active torsions:
REMARK  status: ('A' for Active; 'I' for Inactive)
REMARK    1  A    between atoms: C_2  and  O_3 
REMARK    2  A    between atoms: O_3  and  C_4 
REMARK    3  A    between atoms: C_4  and  C_5 
REMARK    4  A    between atoms: C_6  and  C_7 
REMARK    5  A    between atoms: C_16  and  C_17 
REMARK    6  A    between atoms: C_17  and  C_18 
REMARK       I    between atoms: C_18  and  N_19 
REMARK    7  A    between atoms: N_19  and  C_20 
REMARK    8  A    between atoms: C_20  and  C_21 
REMARK    9  A    between atoms: C_21  and  N_22 
REMARK   10  A    between atoms: C_31  and  C_32 
ROOT
HETATM    1  C   UNL     1       4.572  29.929  54.246  1.00  0.00     0.078 C 
HETATM    2  C   UNL     1       4.932  28.908  55.286  1.00  0.00     0.167 C 
HETATM    3  N   UNL     1       5.102  27.545  54.723  1.00  0.00    -0.318 N 
HETATM    4  C   UNL     1       5.294  26.375  55.245  1.00  0.00     0.011 C 
HETATM    5  C   UNL     1       5.152  27.492  53.177  1.00  0.00     0.170 C 
HETATM    6  S   UNL     1       5.492  25.899  52.591  1.00  0.00    -0.086 SA
HETATM    7  C   UNL     1       5.403  25.226  54.266  1.00  0.00     0.135 C 
HETATM    8  N   UNL     1       4.973  28.486  52.386  1.00  0.00    -0.219 NA
HETATM    9  C   UNL     1       4.605  29.716  52.911  1.00  0.00     0.157 C 
ENDROOT
BRANCH   4  10
HETATM   10  C   UNL     1       5.434  26.143  56.723  1.00  0.00     0.156 C 
BRANCH  10  11
HETATM   11  C   UNL     1       6.793  25.692  57.203  1.00  0.00     0.223 C 
HETATM   12  N   UNL     1       7.221  24.516  56.641  1.00  0.00    -0.359 N 
HETATM   13  H   UNL     1       6.567  24.000  56.053  1.00  0.00     0.162 HD
HETATM   14  O   UNL     1       7.477  26.349  57.984  1.00  0.00    -0.273 OA
BRANCH  12  15
HETATM   15  C   UNL     1       8.393  23.754  57.079  1.00  0.00     0.150 C 
BRANCH  15  16
HETATM   16  C   UNL     1       8.946  22.727  56.068  1.00  0.00     0.253 C 
BRANCH  16  17
HETATM   17  N   UNL     1       7.848  21.979  55.336  1.00  0.00    -0.077 N 
HETATM   18  H   UNL     1       6.974  22.526  55.454  1.00  0.00     0.279 HD
HETATM   19  C   UNL     1       8.087  21.868  53.852  1.00  0.00     0.269 C 
HETATM   20  C   UNL     1       7.610  20.615  55.931  1.00  0.00     0.269 C 
ENDBRANCH  16  17
ENDBRANCH  15  16
ENDBRANCH  12  15
ENDBRANCH  10  11
ENDBRANCH   4  10
BRANCH   2  21
HETATM   21  C   UNL     1       6.173  29.301  56.092  1.00  0.00    -0.024 A 
HETATM   22  C   UNL     1       6.099  29.756  57.430  1.00  0.00    -0.053 A 
HETATM   23  C   UNL     1       4.812  30.036  58.162  1.00  0.00     0.049 C 
HETATM   24  C   UNL     1       7.288  30.054  58.119  1.00  0.00     0.008 A 
HETATM   25  C   UNL     1       8.534  29.895  57.517  1.00  0.00     0.007 A 
HETATM   26  C   UNL     1       8.626  29.458  56.198  1.00  0.00    -0.061 A 
HETATM   27  C   UNL     1       9.966  29.345  55.530  1.00  0.00     0.048 C 
HETATM   28  C   UNL     1       7.450  29.193  55.486  1.00  0.00     0.017 A 
ENDBRANCH   2  21
BRANCH   1  29
HETATM   29  C   UNL     1       4.007  31.167  54.821  1.00  0.00     0.294 C 
HETATM   30  O   UNL     1       4.716  32.138  55.035  1.00  0.00    -0.259 OA
BRANCH  29  31
HETATM   31  O   UNL     1       2.678  31.051  54.985  1.00  0.00    -0.318 OA
BRANCH  31  32
HETATM   32  C   UNL     1       1.980  32.250  55.368  1.00  0.00     0.174 C 
HETATM   33  C   UNL     1       1.499  33.001  54.142  1.00  0.00     0.034 C 
ENDBRANCH  31  32
ENDBRANCH  29  31
ENDBRANCH   1  29
BRANCH   9  34
HETATM   34  C   UNL     1       4.134  30.767  51.881  1.00  0.00     0.435 C 
HETATM   35  F   UNL     1       4.484  30.416  50.619  1.00  0.00    -0.165 F 
HETATM   36  F   UNL     1       2.784  30.898  51.882  1.00  0.00    -0.165 F 
HETATM   37  F   UNL     1       4.676  31.980  52.132  1.00  0.00    -0.165 F 
ENDBRANCH   9  34
TORSDOF 10
ENDMDL
MODEL 6
REMARK VINA RESULT:      -5.9      4.308      8.077
REMARK  10 active torsions:
REMARK  status: ('A' for Active; 'I' for Inactive)
REMARK    1  A    between atoms: C_2  and  O_3 
REMARK    2  A    between atoms: O_3  and  C_4 
REMARK    3  A    between atoms: C_4  and  C_5 
REMARK    4  A    between atoms: C_6  and  C_7 
REMARK    5  A    between atoms: C_16  and  C_17 
REMARK    6  A    between atoms: C_17  and  C_18 
REMARK       I    between atoms: C_18  and  N_19 
REMARK    7  A    between atoms: N_19  and  C_20 
REMARK    8  A    between atoms: C_20  and  C_21 
REMARK    9  A    between atoms: C_21  and  N_22 
REMARK   10  A    between atoms: C_31  and  C_32 
ROOT
HETATM    1  C   UNL     1       6.514  26.405  56.333  1.00  0.00     0.078 C 
HETATM    2  C   UNL     1       5.845  27.741  56.184  1.00  0.00     0.167 C 
HETATM    3  N   UNL     1       6.550  28.825  56.914  1.00  0.00    -0.318 N 
HETATM    4  C   UNL     1       6.280  30.069  57.152  1.00  0.00     0.011 C 
HETATM    5  C   UNL     1       7.952  28.436  57.441  1.00  0.00     0.170 C 
HETATM    6  S   UNL     1       8.774  29.781  58.157  1.00  0.00    -0.086 SA
HETATM    7  C   UNL     1       7.307  30.821  57.972  1.00  0.00     0.135 C 
HETATM    8  N   UNL     1       8.482  27.270  57.372  1.00  0.00    -0.219 NA
HETATM    9  C   UNL     1       7.736  26.210  56.879  1.00  0.00     0.157 C 
ENDROOT
BRANCH   4  10
HETATM   10  C   UNL     1       5.050  30.762  56.637  1.00  0.00     0.156 C 
BRANCH  10  11
HETATM   11  C   UNL     1       3.924  30.948  57.626  1.00  0.00     0.223 C 
HETATM   12  N   UNL     1       4.202  31.847  58.625  1.00  0.00    -0.359 N 
HETATM   13  H   UNL     1       5.149  32.217  58.686  1.00  0.00     0.162 HD
HETATM   14  O   UNL     1       2.836  30.388  57.511  1.00  0.00    -0.273 OA
BRANCH  12  15
HETATM   15  C   UNL     1       3.377  32.057  59.817  1.00  0.00     0.150 C 
BRANCH  15  16
HETATM   16  C   UNL     1       4.144  32.242  61.144  1.00  0.00     0.253 C 
BRANCH  16  17
HETATM   17  N   UNL     1       5.346  33.156  61.000  1.00  0.00    -0.077 N 
HETATM   18  H   UNL     1       5.391  33.447  60.004  1.00  0.00     0.279 HD
HETATM   19  C   UNL     1       5.235  34.421  61.811  1.00  0.00     0.269 C 
HETATM   20  C   UNL     1       6.632  32.441  61.319  1.00  0.00     0.269 C 
ENDBRANCH  16  17
ENDBRANCH  15  16
ENDBRANCH  12  15
ENDBRANCH  10  11
ENDBRANCH   4  10
BRANCH   2  21
HETATM   21  C   UNL     1       5.647  28.139  54.718  1.00  0.00    -0.024 A 
HETATM   22  C   UNL     1       6.726  28.248  53.807  1.00  0.00    -0.053 A 
HETATM   23  C   UNL     1       8.177  28.126  54.191  1.00  0.00     0.049 C 
HETATM   24  C   UNL     1       6.458  28.573  52.466  1.00  0.00     0.008 A 
HETATM   25  C   UNL     1       5.156  28.773  52.015  1.00  0.00     0.007 A 
HETATM   26  C   UNL     1       4.084  28.680  52.898  1.00  0.00    -0.061 A 
HETATM   27  C   UNL     1       2.686  28.956  52.423  1.00  0.00     0.048 C 
HETATM   28  C   UNL     1       4.336  28.394  54.244  1.00  0.00     0.017 A 
ENDBRANCH   2  21
BRANCH   1  29
HETATM   29  C   UNL     1       5.634  25.274  55.976  1.00  0.00     0.294 C 
HETATM   30  O   UNL     1       4.694  24.963  56.690  1.00  0.00    -0.259 OA
BRANCH  29  31
HETATM   31  O   UNL     1       5.992  24.750  54.791  1.00  0.00    -0.318 OA
BRANCH  31  32
HETATM   32  C   UNL     1       5.024  24.859  53.731  1.00  0.00     0.174 C 
HETATM   33  C   UNL     1       5.715  24.950  52.385  1.00  0.00     0.034 C 
ENDBRANCH  31  32
ENDBRANCH  29  31
ENDBRANCH   1  29
BRANCH   9  34
HETATM   34  C   UNL     1       8.343  24.807  57.099  1.00  0.00     0.435 C 
HETATM   35  F   UNL     1       9.353  24.840  58.003  1.00  0.00    -0.165 F 
HETATM   36  F   UNL     1       7.424  23.935  57.583  1.00  0.00    -0.165 F 
HETATM   37  F   UNL     1       8.842  24.301  55.949  1.00  0.00    -0.165 F 
ENDBRANCH   9  34
TORSDOF 10
ENDMDL
MODEL 7
REMARK VINA RESULT:      -5.8      6.053      8.617
REMARK  10 active torsions:
REMARK  status: ('A' for Active; 'I' for Inactive)
REMARK    1  A    between atoms: C_2  and  O_3 
REMARK    2  A    between atoms: O_3  and  C_4 
REMARK    3  A    between atoms: C_4  and  C_5 
REMARK    4  A    between atoms: C_6  and  C_7 
REMARK    5  A    between atoms: C_16  and  C_17 
REMARK    6  A    between atoms: C_17  and  C_18 
REMARK       I    between atoms: C_18  and  N_19 
REMARK    7  A    between atoms: N_19  and  C_20 
REMARK    8  A    between atoms: C_20  and  C_21 
REMARK    9  A    between atoms: C_21  and  N_22 
REMARK   10  A    between atoms: C_31  and  C_32 
ROOT
HETATM    1  C   UNL     1       4.667  35.372  61.835  1.00  0.00     0.078 C 
HETATM    2  C   UNL     1       4.437  34.004  61.260  1.00  0.00     0.167 C 
HETATM    3  N   UNL     1       4.066  34.037  59.823  1.00  0.00    -0.318 N 
HETATM    4  C   UNL     1       3.678  33.137  58.975  1.00  0.00     0.011 C 
HETATM    5  C   UNL     1       4.258  35.413  59.142  1.00  0.00     0.170 C 
HETATM    6  S   UNL     1       3.944  35.348  57.442  1.00  0.00    -0.086 SA
HETATM    7  C   UNL     1       3.390  33.632  57.574  1.00  0.00     0.135 C 
HETATM    8  N   UNL     1       4.613  36.497  59.730  1.00  0.00    -0.219 NA
HETATM    9  C   UNL     1       4.753  36.510  61.110  1.00  0.00     0.157 C 
ENDROOT
BRANCH   4  10
HETATM   10  C   UNL     1       3.541  31.682  59.320  1.00  0.00     0.156 C 
BRANCH  10  11
HETATM   11  C   UNL     1       3.719  30.705  58.181  1.00  0.00     0.223 C 
HETATM   12  N   UNL     1       4.931  30.062  58.183  1.00  0.00    -0.359 N 
HETATM   13  H   UNL     1       5.633  30.365  58.857  1.00  0.00     0.162 HD
HETATM   14  O   UNL     1       2.835  30.467  57.363  1.00  0.00    -0.273 OA
BRANCH  12  15
HETATM   15  C   UNL     1       5.440  29.230  57.090  1.00  0.00     0.150 C 
BRANCH  15  16
HETATM   16  C   UNL     1       6.130  29.985  55.933  1.00  0.00     0.253 C 
BRANCH  16  17
HETATM   17  N   UNL     1       7.331  29.240  55.385  1.00  0.00    -0.077 N 
HETATM   18  H   UNL     1       7.599  29.704  54.495  1.00  0.00     0.279 HD
HETATM   19  C   UNL     1       8.539  29.309  56.283  1.00  0.00     0.269 C 
HETATM   20  C   UNL     1       7.000  27.807  55.063  1.00  0.00     0.269 C 
ENDBRANCH  16  17
ENDBRANCH  15  16
ENDBRANCH  12  15
ENDBRANCH  10  11
ENDBRANCH   4  10
BRANCH   2  21
HETATM   21  C   UNL     1       5.629  33.068  61.473  1.00  0.00    -0.024 A 
HETATM   22  C   UNL     1       5.601  31.999  62.401  1.00  0.00    -0.053 A 
HETATM   23  C   UNL     1       4.475  31.743  63.368  1.00  0.00     0.049 C 
HETATM   24  C   UNL     1       6.720  31.154  62.506  1.00  0.00     0.008 A 
HETATM   25  C   UNL     1       7.844  31.338  61.705  1.00  0.00     0.007 A 
HETATM   26  C   UNL     1       7.894  32.389  60.795  1.00  0.00    -0.061 A 
HETATM   27  C   UNL     1       9.132  32.624  59.976  1.00  0.00     0.048 C 
HETATM   28  C   UNL     1       6.804  33.262  60.704  1.00  0.00     0.017 A 
ENDBRANCH   2  21
BRANCH   1  29
HETATM   29  C   UNL     1       4.628  35.393  63.312  1.00  0.00     0.294 C 
HETATM   30  O   UNL     1       3.564  35.384  63.909  1.00  0.00    -0.259 OA
BRANCH  29  31
HETATM   31  O   UNL     1       5.872  35.358  63.820  1.00  0.00    -0.318 OA
BRANCH  31  32
HETATM   32  C   UNL     1       6.040  34.599  65.032  1.00  0.00     0.174 C 
HETATM   33  C   UNL     1       7.339  33.819  64.998  1.00  0.00     0.034 C 
ENDBRANCH  31  32
ENDBRANCH  29  31
ENDBRANCH   1  29
BRANCH   9  34
HETATM   34  C   UNL     1       4.895  37.907  61.753  1.00  0.00     0.435 C 
HETATM   35  F   UNL     1       4.872  38.888  60.818  1.00  0.00    -0.165 F 
HETATM   36  F   UNL     1       3.877  38.169  62.610  1.00  0.00    -0.165 F 
HETATM   37  F   UNL     1       6.058  38.019  62.433  1.00  0.00    -0.165 F 
ENDBRANCH   9  34
TORSDOF 10
ENDMDL
MODEL 8
REMARK VINA RESULT:      -5.7      4.091      6.891
REMARK  10 active torsions:
REMARK  status: ('A' for Active; 'I' for Inactive)
REMARK    1  A    between atoms: C_2  and  O_3 
REMARK    2  A    between atoms: O_3  and  C_4 
REMARK    3  A    between atoms: C_4  and  C_5 
REMARK    4  A    between atoms: C_6  and  C_7 
REMARK    5  A    between atoms: C_16  and  C_17 
REMARK    6  A    between atoms: C_17  and  C_18 
REMARK       I    between atoms: C_18  and  N_19 
REMARK    7  A    between atoms: N_19  and  C_20 
REMARK    8  A    between atoms: C_20  and  C_21 
REMARK    9  A    between atoms: C_21  and  N_22 
REMARK   10  A    between atoms: C_31  and  C_32 
ROOT
HETATM    1  C   UNL     1       3.329  28.379  49.906  1.00  0.00     0.078 C 
HETATM    2  C   UNL     1       3.803  28.966  51.205  1.00  0.00     0.167 C 
HETATM    3  N   UNL     1       4.797  28.108  51.897  1.00  0.00    -0.318 N 
HETATM    4  C   UNL     1       5.371  28.157  53.057  1.00  0.00     0.011 C 
HETATM    5  C   UNL     1       5.347  26.943  51.039  1.00  0.00     0.170 C 
HETATM    6  S   UNL     1       6.600  26.070  51.854  1.00  0.00    -0.086 SA
HETATM    7  C   UNL     1       6.339  27.033  53.362  1.00  0.00     0.135 C 
HETATM    8  N   UNL     1       4.955  26.632  49.858  1.00  0.00    -0.219 NA
HETATM    9  C   UNL     1       3.880  27.305  49.297  1.00  0.00     0.157 C 
ENDROOT
BRANCH   4  10
HETATM   10  C   UNL     1       5.138  29.260  54.049  1.00  0.00     0.156 C 
BRANCH  10  11
HETATM   11  C   UNL     1       5.472  28.949  55.489  1.00  0.00     0.223 C 
HETATM   12  N   UNL     1       6.576  29.613  55.961  1.00  0.00    -0.359 N 
HETATM   13  H   UNL     1       7.130  30.154  55.298  1.00  0.00     0.162 HD
HETATM   14  O   UNL     1       4.784  28.210  56.189  1.00  0.00    -0.273 OA
BRANCH  12  15
HETATM   15  C   UNL     1       7.237  29.339  57.239  1.00  0.00     0.150 C 
BRANCH  15  16
HETATM   16  C   UNL     1       8.714  28.899  57.155  1.00  0.00     0.253 C 
BRANCH  16  17
HETATM   17  N   UNL     1       9.678  30.063  57.276  1.00  0.00    -0.077 N 
HETATM   18  H   UNL     1       9.388  30.774  56.578  1.00  0.00     0.279 HD
HETATM   19  C   UNL     1       9.631  30.740  58.622  1.00  0.00     0.269 C 
HETATM   20  C   UNL     1      11.090  29.655  56.946  1.00  0.00     0.269 C 
ENDBRANCH  16  17
ENDBRANCH  15  16
ENDBRANCH  12  15
ENDBRANCH  10  11
ENDBRANCH   4  10
BRANCH   2  21
HETATM   21  C   UNL     1       4.358  30.384  51.042  1.00  0.00    -0.024 A 
HETATM   22  C   UNL     1       3.916  31.470  51.835  1.00  0.00    -0.053 A 
HETATM   23  C   UNL     1       2.775  31.396  52.815  1.00  0.00     0.049 C 
HETATM   24  C   UNL     1       4.507  32.733  51.657  1.00  0.00     0.008 A 
HETATM   25  C   UNL     1       5.528  32.931  50.730  1.00  0.00     0.007 A 
HETATM   26  C   UNL     1       5.969  31.877  49.934  1.00  0.00    -0.061 A 
HETATM   27  C   UNL     1       7.027  32.106  48.892  1.00  0.00     0.048 C 
HETATM   28  C   UNL     1       5.365  30.623  50.073  1.00  0.00     0.017 A 
ENDBRANCH   2  21
BRANCH   1  29
HETATM   29  C   UNL     1       2.075  28.990  49.419  1.00  0.00     0.294 C 
HETATM   30  O   UNL     1       1.009  28.746  49.961  1.00  0.00    -0.259 OA
BRANCH  29  31
HETATM   31  O   UNL     1       2.322  29.838  48.406  1.00  0.00    -0.318 OA
BRANCH  31  32
HETATM   32  C   UNL     1       1.367  30.899  48.221  1.00  0.00     0.174 C 
HETATM   33  C   UNL     1       1.803  32.145  48.966  1.00  0.00     0.034 C 
ENDBRANCH  31  32
ENDBRANCH  29  31
ENDBRANCH   1  29
BRANCH   9  34
HETATM   34  C   UNL     1       3.298  26.679  48.011  1.00  0.00     0.435 C 
HETATM   35  F   UNL     1       3.941  25.531  47.683  1.00  0.00    -0.165 F 
HETATM   36  F   UNL     1       1.989  26.355  48.160  1.00  0.00    -0.165 F 
HETATM   37  F   UNL     1       3.408  27.522  46.960  1.00  0.00    -0.165 F 
ENDBRANCH   9  34
TORSDOF 10
ENDMDL
MODEL 9
REMARK VINA RESULT:      -5.6     17.568     20.272
REMARK  10 active torsions:
REMARK  status: ('A' for Active; 'I' for Inactive)
REMARK    1  A    between atoms: C_2  and  O_3 
REMARK    2  A    between atoms: O_3  and  C_4 
REMARK    3  A    between atoms: C_4  and  C_5 
REMARK    4  A    between atoms: C_6  and  C_7 
REMARK    5  A    between atoms: C_16  and  C_17 
REMARK    6  A    between atoms: C_17  and  C_18 
REMARK       I    between atoms: C_18  and  N_19 
REMARK    7  A    between atoms: N_19  and  C_20 
REMARK    8  A    between atoms: C_20  and  C_21 
REMARK    9  A    between atoms: C_21  and  N_22 
REMARK   10  A    between atoms: C_31  and  C_32 
ROOT
HETATM    1  C   UNL     1      12.557  10.950  54.464  1.00  0.00     0.078 C 
HETATM    2  C   UNL     1      13.994  10.703  54.826  1.00  0.00     0.167 C 
HETATM    3  N   UNL     1      14.147   9.929  56.084  1.00  0.00    -0.318 N 
HETATM    4  C   UNL     1      15.164   9.595  56.814  1.00  0.00     0.011 C 
HETATM    5  C   UNL     1      12.836   9.302  56.616  1.00  0.00     0.170 C 
HETATM    6  S   UNL     1      13.107   8.301  58.001  1.00  0.00    -0.086 SA
HETATM    7  C   UNL     1      14.848   8.788  58.055  1.00  0.00     0.135 C 
HETATM    8  N   UNL     1      11.667   9.473  56.115  1.00  0.00    -0.219 NA
HETATM    9  C   UNL     1      11.497  10.366  55.067  1.00  0.00     0.157 C 
ENDROOT
BRANCH   4  10
HETATM   10  C   UNL     1      16.582   9.943  56.464  1.00  0.00     0.156 C 
BRANCH  10  11
HETATM   11  C   UNL     1      17.640   9.517  57.454  1.00  0.00     0.223 C 
HETATM   12  N   UNL     1      18.094  10.533  58.256  1.00  0.00    -0.359 N 
HETATM   13  H   UNL     1      17.779  11.481  58.053  1.00  0.00     0.162 HD
HETATM   14  O   UNL     1      18.018   8.353  57.568  1.00  0.00    -0.273 OA
BRANCH  12  15
HETATM   15  C   UNL     1      19.253  10.444  59.148  1.00  0.00     0.150 C 
BRANCH  15  16
HETATM   16  C   UNL     1      18.940  10.159  60.633  1.00  0.00     0.253 C 
BRANCH  16  17
HETATM   17  N   UNL     1      19.901  10.857  61.576  1.00  0.00    -0.077 N 
HETATM   18  H   UNL     1      20.596  11.356  60.989  1.00  0.00     0.279 HD
HETATM   19  C   UNL     1      19.240  11.901  62.438  1.00  0.00     0.269 C 
HETATM   20  C   UNL     1      20.655   9.874  62.432  1.00  0.00     0.269 C 
ENDBRANCH  16  17
ENDBRANCH  15  16
ENDBRANCH  12  15
ENDBRANCH  10  11
ENDBRANCH   4  10
BRANCH   2  21
HETATM   21  C   UNL     1      14.777  10.028  53.697  1.00  0.00    -0.024 A 
HETATM   22  C   UNL     1      16.022  10.521  53.236  1.00  0.00    -0.053 A 
HETATM   23  C   UNL     1      16.645  11.815  53.690  1.00  0.00     0.049 C 
HETATM   24  C   UNL     1      16.703   9.819  52.226  1.00  0.00     0.008 A 
HETATM   25  C   UNL     1      16.187   8.644  51.685  1.00  0.00     0.007 A 
HETATM   26  C   UNL     1      14.961   8.150  52.120  1.00  0.00    -0.061 A 
HETATM   27  C   UNL     1      14.376   6.916  51.493  1.00  0.00     0.048 C 
HETATM   28  C   UNL     1      14.252   8.857  53.098  1.00  0.00     0.017 A 
ENDBRANCH   2  21
BRANCH   1  29
HETATM   29  C   UNL     1      12.388  12.036  53.477  1.00  0.00     0.294 C 
HETATM   30  O   UNL     1      12.456  13.206  53.818  1.00  0.00    -0.259 OA
BRANCH  29  31
HETATM   31  O   UNL     1      12.229  11.534  52.241  1.00  0.00    -0.318 OA
BRANCH  31  32
HETATM   32  C   UNL     1      12.821  12.291  51.169  1.00  0.00     0.174 C 
HETATM   33  C   UNL     1      13.766  11.424  50.361  1.00  0.00     0.034 C 
ENDBRANCH  31  32
ENDBRANCH  29  31
ENDBRANCH   1  29
BRANCH   9  34
HETATM   34  C   UNL     1      10.034  10.723  54.725  1.00  0.00     0.435 C 
HETATM   35  F   UNL     1       9.163  10.084  55.543  1.00  0.00    -0.165 F 
HETATM   36  F   UNL     1       9.796  12.050  54.872  1.00  0.00    -0.165 F 
HETATM   37  F   UNL     1       9.728  10.378  53.454  1.00  0.00    -0.165 F 
ENDBRANCH   9  34
TORSDOF 10
ENDMDL
MODEL 10
REMARK VINA RESULT:      -5.6      4.138      7.276
REMARK  10 active torsions:
REMARK  status: ('A' for Active; 'I' for Inactive)
REMARK    1  A    between atoms: C_2  and  O_3 
REMARK    2  A    between atoms: O_3  and  C_4 
REMARK    3  A    between atoms: C_4  and  C_5 
REMARK    4  A    between atoms: C_6  and  C_7 
REMARK    5  A    between atoms: C_16  and  C_17 
REMARK    6  A    between atoms: C_17  and  C_18 
REMARK       I    between atoms: C_18  and  N_19 
REMARK    7  A    between atoms: N_19  and  C_20 
REMARK    8  A    between atoms: C_20  and  C_21 
REMARK    9  A    between atoms: C_21  and  N_22 
REMARK   10  A    between atoms: C_31  and  C_32 
ROOT
HETATM    1  C   UNL     1       3.300  28.187  49.697  1.00  0.00     0.078 C 
HETATM    2  C   UNL     1       3.816  28.782  50.976  1.00  0.00     0.167 C 
HETATM    3  N   UNL     1       4.716  27.863  51.718  1.00  0.00    -0.318 N 
HETATM    4  C   UNL     1       5.281  27.907  52.883  1.00  0.00     0.011 C 
HETATM    5  C   UNL     1       5.160  26.615  50.917  1.00  0.00     0.170 C 
HETATM    6  S   UNL     1       6.315  25.662  51.785  1.00  0.00    -0.086 SA
HETATM    7  C   UNL     1       6.134  26.710  53.248  1.00  0.00     0.135 C 
HETATM    8  N   UNL     1       4.751  26.292  49.745  1.00  0.00    -0.219 NA
HETATM    9  C   UNL     1       3.751  27.040  49.142  1.00  0.00     0.157 C 
ENDROOT
BRANCH   4  10
HETATM   10  C   UNL     1       5.145  29.069  53.824  1.00  0.00     0.156 C 
BRANCH  10  11
HETATM   11  C   UNL     1       5.502  28.807  55.268  1.00  0.00     0.223 C 
HETATM   12  N   UNL     1       6.755  29.242  55.621  1.00  0.00    -0.359 N 
HETATM   13  H   UNL     1       7.366  29.591  54.883  1.00  0.00     0.162 HD
HETATM   14  O   UNL     1       4.718  28.300  56.067  1.00  0.00    -0.273 OA
BRANCH  12  15
HETATM   15  C   UNL     1       7.425  28.931  56.885  1.00  0.00     0.150 C 
BRANCH  15  16
HETATM   16  C   UNL     1       7.932  30.144  57.696  1.00  0.00     0.253 C 
BRANCH  16  17
HETATM   17  N   UNL     1       6.993  30.524  58.824  1.00  0.00    -0.077 N 
HETATM   18  H   UNL     1       6.606  29.642  59.211  1.00  0.00     0.279 HD
HETATM   19  C   UNL     1       7.683  31.225  59.966  1.00  0.00     0.269 C 
HETATM   20  C   UNL     1       5.832  31.347  58.331  1.00  0.00     0.269 C 
ENDBRANCH  16  17
ENDBRANCH  15  16
ENDBRANCH  12  15
ENDBRANCH  10  11
ENDBRANCH   4  10
BRANCH   2  21
HETATM   21  C   UNL     1       4.507  30.131  50.761  1.00  0.00    -0.024 A 
HETATM   22  C   UNL     1       5.540  30.315  49.810  1.00  0.00    -0.053 A 
HETATM   23  C   UNL     1       6.167  29.201  49.013  1.00  0.00     0.049 C 
HETATM   24  C   UNL     1       6.093  31.595  49.640  1.00  0.00     0.008 A 
HETATM   25  C   UNL     1       5.634  32.687  50.373  1.00  0.00     0.007 A 
HETATM   26  C   UNL     1       4.626  32.524  51.319  1.00  0.00    -0.061 A 
HETATM   27  C   UNL     1       4.174  33.689  52.153  1.00  0.00     0.048 C 
HETATM   28  C   UNL     1       4.091  31.248  51.528  1.00  0.00     0.017 A 
ENDBRANCH   2  21
BRANCH   1  29
HETATM   29  C   UNL     1       2.116  28.894  49.168  1.00  0.00     0.294 C 
HETATM   30  O   UNL     1       1.026  28.775  49.704  1.00  0.00    -0.259 OA
BRANCH  29  31
HETATM   31  O   UNL     1       2.453  29.671  48.124  1.00  0.00    -0.318 OA
BRANCH  31  32
HETATM   32  C   UNL     1       1.760  30.928  48.021  1.00  0.00     0.174 C 
HETATM   33  C   UNL     1       2.745  32.080  48.008  1.00  0.00     0.034 C 
ENDBRANCH  31  32
ENDBRANCH  29  31
ENDBRANCH   1  29
BRANCH   9  34
HETATM   34  C   UNL     1       3.124  26.417  47.875  1.00  0.00     0.435 C 
HETATM   35  F   UNL     1       1.778  26.306  47.991  1.00  0.00    -0.165 F 
HETATM   36  F   UNL     1       3.353  27.179  46.777  1.00  0.00    -0.165 F 
HETATM   37  F   UNL     1       3.616  25.180  47.640  1.00  0.00    -0.165 F 
ENDBRANCH   9  34
TORSDOF 10
ENDMDL
