MODEL 1
REMARK VINA RESULT:     -10.6      0.000      0.000
REMARK  5 active torsions:
REMARK  status: ('A' for Active; 'I' for Inactive)
REMARK    1  A    between atoms: C_7  and  C_8 
REMARK    2  A    between atoms: C_8  and  N_9 
REMARK    3  A    between atoms: C_13  and  C_14 
REMARK    4  A    between atoms: C_17  and  C_18 
REMARK    5  A    between atoms: C_18  and  N_19 
ROOT
HETATM    1  N   UNL     1       6.420  25.351  54.651  1.00  0.00    -0.067 N 
HETATM    2  H   UNL     1       5.627  24.801  54.297  1.00  0.00     0.280 HD
HETATM    3  C   UNL     1       6.531  25.081  56.134  1.00  0.00     0.236 C 
HETATM    4  C   UNL     1       5.320  25.637  56.877  1.00  0.00     0.040 C 
HETATM    5  C   UNL     1       5.075  27.124  56.608  1.00  0.00     0.060 C 
HETATM    6  C   UNL     1       4.994  27.363  55.095  1.00  0.00     0.040 C 
HETATM    7  C   UNL     1       6.183  26.804  54.321  1.00  0.00     0.236 C 
ENDROOT
BRANCH   5   8
HETATM    8  C   UNL     1       6.140  27.972  57.252  1.00  0.00     0.134 A 
HETATM    9  N   UNL     1       6.034  29.302  57.596  1.00  0.00    -0.323 N 
HETATM   10  C   UNL     1       4.885  30.154  57.412  1.00  0.00     0.159 C 
HETATM   11  C   UNL     1       7.245  29.640  58.154  1.00  0.00     0.155 A 
HETATM   12  N   UNL     1       8.017  28.572  58.174  1.00  0.00    -0.133 NA
HETATM   13  N   UNL     1       7.333  27.542  57.606  1.00  0.00    -0.134 NA
BRANCH  11  14
HETATM   14  C   UNL     1       7.655  30.980  58.667  1.00  0.00     0.315 C 
BRANCH  14  15
HETATM   15  N   UNL     1       7.604  31.024  60.186  1.00  0.00    -0.064 N 
HETATM   16  H   UNL     1       7.028  30.206  60.444  1.00  0.00     0.280 HD
HETATM   17  C   UNL     1       8.959  30.800  60.819  1.00  0.00     0.235 C 
HETATM   18  C   UNL     1       8.794  30.655  62.323  1.00  0.00     0.028 C 
HETATM   19  C   UNL     1       8.085  31.863  62.926  1.00  0.00     0.003 C 
HETATM   20  C   UNL     1       6.756  32.128  62.228  1.00  0.00     0.028 C 
HETATM   21  C   UNL     1       6.921  32.255  60.720  1.00  0.00     0.235 C 
ENDBRANCH  14  15
ENDBRANCH  11  14
ENDBRANCH   5   8
BRANCH   1  22
HETATM   22  C   UNL     1       7.643  24.854  53.885  1.00  0.00     0.273 C 
BRANCH  22  23
HETATM   23  C   UNL     1       7.918  23.383  54.051  1.00  0.00    -0.032 A 
HETATM   24  C   UNL     1       7.869  22.516  52.950  1.00  0.00     0.012 A 
HETATM   25  C   UNL     1       8.085  21.148  53.128  1.00  0.00     0.043 A 
HETATM   26  C   UNL     1       8.349  20.645  54.398  1.00  0.00     0.122 A 
HETATM   27  C   UNL     1       8.422  21.487  55.508  1.00  0.00    -0.023 A 
HETATM   28  F   UNL     1       8.531  19.327  54.546  1.00  0.00    -0.206 F 
HETATM   29  C   UNL     1       8.679  20.922  56.872  1.00  0.00     0.051 C 
HETATM   30  C   UNL     1       8.197  22.858  55.328  1.00  0.00     0.018 A 
ENDBRANCH  22  23
ENDBRANCH   1  22
TORSDOF 5
ENDMDL
MODEL 2
REMARK VINA RESULT:     -10.3      1.265      1.643
REMARK  5 active torsions:
REMARK  status: ('A' for Active; 'I' for Inactive)
REMARK    1  A    between atoms: C_7  and  C_8 
REMARK    2  A    between atoms: C_8  and  N_9 
REMARK    3  A    between atoms: C_13  and  C_14 
REMARK    4  A    between atoms: C_17  and  C_18 
REMARK    5  A    between atoms: C_18  and  N_19 
ROOT
HETATM    1  N   UNL     1       6.490  25.971  55.267  1.00  0.00    -0.067 N 
HETATM    2  H   UNL     1       6.164  25.623  54.357  1.00  0.00     0.280 HD
HETATM    3  C   UNL     1       5.306  26.606  55.959  1.00  0.00     0.236 C 
HETATM    4  C   UNL     1       4.850  27.857  55.214  1.00  0.00     0.040 C 
HETATM    5  C   UNL     1       5.971  28.877  55.002  1.00  0.00     0.060 C 
HETATM    6  C   UNL     1       7.163  28.192  54.322  1.00  0.00     0.040 C 
HETATM    7  C   UNL     1       7.633  26.928  55.034  1.00  0.00     0.236 C 
ENDROOT
BRANCH   5   8
HETATM    8  C   UNL     1       6.365  29.524  56.302  1.00  0.00     0.134 A 
HETATM    9  N   UNL     1       5.865  30.699  56.820  1.00  0.00    -0.323 N 
HETATM   10  C   UNL     1       4.861  31.547  56.225  1.00  0.00     0.159 C 
HETATM   11  C   UNL     1       6.514  30.885  58.018  1.00  0.00     0.155 A 
HETATM   12  N   UNL     1       7.329  29.870  58.223  1.00  0.00    -0.133 NA
HETATM   13  N   UNL     1       7.241  29.033  57.153  1.00  0.00    -0.134 NA
BRANCH  11  14
HETATM   14  C   UNL     1       6.349  32.030  58.961  1.00  0.00     0.315 C 
BRANCH  14  15
HETATM   15  N   UNL     1       7.048  31.756  60.283  1.00  0.00    -0.064 N 
HETATM   16  H   UNL     1       7.180  30.732  60.293  1.00  0.00     0.280 HD
HETATM   17  C   UNL     1       8.434  32.360  60.342  1.00  0.00     0.235 C 
HETATM   18  C   UNL     1       9.140  31.875  61.598  1.00  0.00     0.028 C 
HETATM   19  C   UNL     1       8.334  32.196  62.852  1.00  0.00     0.003 C 
HETATM   20  C   UNL     1       6.914  31.653  62.749  1.00  0.00     0.028 C 
HETATM   21  C   UNL     1       6.214  32.124  61.481  1.00  0.00     0.235 C 
ENDBRANCH  14  15
ENDBRANCH  11  14
ENDBRANCH   5   8
BRANCH   1  22
HETATM   22  C   UNL     1       7.004  24.747  56.019  1.00  0.00     0.273 C 
BRANCH  22  23
HETATM   23  C   UNL     1       7.395  23.597  55.130  1.00  0.00    -0.032 A 
HETATM   24  C   UNL     1       7.380  23.731  53.734  1.00  0.00     0.012 A 
HETATM   25  C   UNL     1       7.704  22.643  52.923  1.00  0.00     0.043 A 
HETATM   26  C   UNL     1       8.042  21.423  53.499  1.00  0.00     0.122 A 
HETATM   27  C   UNL     1       8.083  21.265  54.885  1.00  0.00    -0.023 A 
HETATM   28  F   UNL     1       8.328  20.388  52.700  1.00  0.00    -0.206 F 
HETATM   29  C   UNL     1       8.421  19.933  55.486  1.00  0.00     0.051 C 
HETATM   30  C   UNL     1       7.749  22.357  55.697  1.00  0.00     0.018 A 
ENDBRANCH  22  23
ENDBRANCH   1  22
TORSDOF 5
ENDMDL
MODEL 3
REMARK VINA RESULT:      -9.4      5.239      8.610
REMARK  5 active torsions:
REMARK  status: ('A' for Active; 'I' for Inactive)
REMARK    1  A    between atoms: C_7  and  C_8 
REMARK    2  A    between atoms: C_8  and  N_9 
REMARK    3  A    between atoms: C_13  and  C_14 
REMARK    4  A    between atoms: C_17  and  C_18 
REMARK    5  A    between atoms: C_18  and  N_19 
ROOT
HETATM    1  N   UNL     1       6.932  25.074  53.365  1.00  0.00    -0.067 N 
HETATM    2  H   UNL     1       6.883  24.890  54.375  1.00  0.00     0.280 HD
HETATM    3  C   UNL     1       7.256  26.540  53.187  1.00  0.00     0.236 C 
HETATM    4  C   UNL     1       6.104  27.411  53.677  1.00  0.00     0.040 C 
HETATM    5  C   UNL     1       4.762  27.064  53.027  1.00  0.00     0.060 C 
HETATM    6  C   UNL     1       4.481  25.567  53.205  1.00  0.00     0.040 C 
HETATM    7  C   UNL     1       5.620  24.668  52.739  1.00  0.00     0.236 C 
ENDROOT
BRANCH   5   8
HETATM    8  C   UNL     1       4.745  27.468  51.577  1.00  0.00     0.134 A 
HETATM    9  N   UNL     1       4.059  28.529  51.027  1.00  0.00    -0.323 N 
HETATM   10  C   UNL     1       3.219  29.471  51.727  1.00  0.00     0.159 C 
HETATM   11  C   UNL     1       4.349  28.505  49.683  1.00  0.00     0.155 A 
HETATM   12  N   UNL     1       5.182  27.512  49.445  1.00  0.00    -0.133 NA
HETATM   13  N   UNL     1       5.419  26.866  50.619  1.00  0.00    -0.134 NA
BRANCH  11  14
HETATM   14  C   UNL     1       3.830  29.433  48.635  1.00  0.00     0.315 C 
BRANCH  14  15
HETATM   15  N   UNL     1       2.474  28.977  48.122  1.00  0.00    -0.064 N 
HETATM   16  H   UNL     1       1.802  29.360  48.807  1.00  0.00     0.280 HD
HETATM   17  C   UNL     1       2.118  29.600  46.791  1.00  0.00     0.235 C 
HETATM   18  C   UNL     1       0.677  29.260  46.445  1.00  0.00     0.028 C 
HETATM   19  C   UNL     1       0.444  27.754  46.441  1.00  0.00     0.003 C 
HETATM   20  C   UNL     1       0.880  27.123  47.758  1.00  0.00     0.028 C 
HETATM   21  C   UNL     1       2.317  27.480  48.112  1.00  0.00     0.235 C 
ENDBRANCH  14  15
ENDBRANCH  11  14
ENDBRANCH   5   8
BRANCH   1  22
HETATM   22  C   UNL     1       8.044  24.173  52.834  1.00  0.00     0.273 C 
BRANCH  22  23
HETATM   23  C   UNL     1       8.171  22.860  53.558  1.00  0.00    -0.032 A 
HETATM   24  C   UNL     1       8.182  21.649  52.851  1.00  0.00     0.012 A 
HETATM   25  C   UNL     1       8.258  20.438  53.540  1.00  0.00     0.043 A 
HETATM   26  C   UNL     1       8.324  20.431  54.930  1.00  0.00     0.122 A 
HETATM   27  C   UNL     1       8.334  21.621  55.658  1.00  0.00    -0.023 A 
HETATM   28  F   UNL     1       8.375  19.256  55.569  1.00  0.00    -0.206 F 
HETATM   29  C   UNL     1       8.375  21.592  57.157  1.00  0.00     0.051 C 
HETATM   30  C   UNL     1       8.249  22.835  54.964  1.00  0.00     0.018 A 
ENDBRANCH  22  23
ENDBRANCH   1  22
TORSDOF 5
ENDMDL
MODEL 4
REMARK VINA RESULT:      -9.2      1.755      2.656
REMARK  5 active torsions:
REMARK  status: ('A' for Active; 'I' for Inactive)
REMARK    1  A    between atoms: C_7  and  C_8 
REMARK    2  A    between atoms: C_8  and  N_9 
REMARK    3  A    between atoms: C_13  and  C_14 
REMARK    4  A    between atoms: C_17  and  C_18 
REMARK    5  A    between atoms: C_18  and  N_19 
ROOT
HETATM    1  N   UNL     1       7.595  26.430  55.440  1.00  0.00    -0.067 N 
HETATM    2  H   UNL     1       8.480  25.985  55.164  1.00  0.00     0.280 HD
HETATM    3  C   UNL     1       7.499  27.744  54.700  1.00  0.00     0.236 C 
HETATM    4  C   UNL     1       8.577  28.713  55.177  1.00  0.00     0.040 C 
HETATM    5  C   UNL     1       8.565  28.935  56.691  1.00  0.00     0.060 C 
HETATM    6  C   UNL     1       8.638  27.580  57.407  1.00  0.00     0.040 C 
HETATM    7  C   UNL     1       7.583  26.583  56.941  1.00  0.00     0.236 C 
ENDROOT
BRANCH   5   8
HETATM    8  C   UNL     1       7.355  29.725  57.111  1.00  0.00     0.134 A 
HETATM    9  N   UNL     1       7.337  30.816  57.954  1.00  0.00    -0.323 N 
HETATM   10  C   UNL     1       8.473  31.424  58.603  1.00  0.00     0.159 C 
HETATM   11  C   UNL     1       6.020  31.202  58.036  1.00  0.00     0.155 A 
HETATM   12  N   UNL     1       5.296  30.415  57.266  1.00  0.00    -0.133 NA
HETATM   13  N   UNL     1       6.125  29.495  56.702  1.00  0.00    -0.134 NA
BRANCH  11  14
HETATM   14  C   UNL     1       5.462  32.324  58.847  1.00  0.00     0.315 C 
BRANCH  14  15
HETATM   15  N   UNL     1       5.346  31.936  60.313  1.00  0.00    -0.064 N 
HETATM   16  H   UNL     1       5.404  30.905  60.307  1.00  0.00     0.280 HD
HETATM   17  C   UNL     1       6.520  32.419  61.135  1.00  0.00     0.235 C 
HETATM   18  C   UNL     1       6.434  31.823  62.532  1.00  0.00     0.028 C 
HETATM   19  C   UNL     1       5.105  32.156  63.200  1.00  0.00     0.003 C 
HETATM   20  C   UNL     1       3.928  31.737  62.327  1.00  0.00     0.028 C 
HETATM   21  C   UNL     1       4.025  32.320  60.924  1.00  0.00     0.235 C 
ENDBRANCH  14  15
ENDBRANCH  11  14
ENDBRANCH   5   8
BRANCH   1  22
HETATM   22  C   UNL     1       6.495  25.457  55.025  1.00  0.00     0.273 C 
BRANCH  22  23
HETATM   23  C   UNL     1       7.002  24.127  54.536  1.00  0.00    -0.032 A 
HETATM   24  C   UNL     1       7.256  23.911  53.174  1.00  0.00     0.012 A 
HETATM   25  C   UNL     1       7.686  22.659  52.732  1.00  0.00     0.043 A 
HETATM   26  C   UNL     1       7.861  21.623  53.644  1.00  0.00     0.122 A 
HETATM   27  C   UNL     1       7.633  21.813  55.007  1.00  0.00    -0.023 A 
HETATM   28  F   UNL     1       8.252  20.425  53.192  1.00  0.00    -0.206 F 
HETATM   29  C   UNL     1       7.799  20.675  55.969  1.00  0.00     0.051 C 
HETATM   30  C   UNL     1       7.194  23.069  55.447  1.00  0.00     0.018 A 
ENDBRANCH  22  23
ENDBRANCH   1  22
TORSDOF 5
ENDMDL
MODEL 5
REMARK VINA RESULT:      -9.1      2.454      3.715
REMARK  5 active torsions:
REMARK  status: ('A' for Active; 'I' for Inactive)
REMARK    1  A    between atoms: C_7  and  C_8 
REMARK    2  A    between atoms: C_8  and  N_9 
REMARK    3  A    between atoms: C_13  and  C_14 
REMARK    4  A    between atoms: C_17  and  C_18 
REMARK    5  A    between atoms: C_18  and  N_19 
ROOT
HETATM    1  N   UNL     1       7.333  26.050  55.251  1.00  0.00    -0.067 N 
HETATM    2  H   UNL     1       8.266  25.717  54.977  1.00  0.00     0.280 HD
HETATM    3  C   UNL     1       7.008  27.247  54.387  1.00  0.00     0.236 C 
HETATM    4  C   UNL     1       7.937  28.414  54.707  1.00  0.00     0.040 C 
HETATM    5  C   UNL     1       7.944  28.794  56.190  1.00  0.00     0.060 C 
HETATM    6  C   UNL     1       8.252  27.551  57.034  1.00  0.00     0.040 C 
HETATM    7  C   UNL     1       7.350  26.360  56.727  1.00  0.00     0.236 C 
ENDROOT
BRANCH   5   8
HETATM    8  C   UNL     1       6.641  29.432  56.589  1.00  0.00     0.134 A 
HETATM    9  N   UNL     1       6.429  30.259  57.671  1.00  0.00    -0.323 N 
HETATM   10  C   UNL     1       7.410  30.685  58.639  1.00  0.00     0.159 C 
HETATM   11  C   UNL     1       5.096  30.597  57.626  1.00  0.00     0.155 A 
HETATM   12  N   UNL     1       4.550  30.036  56.566  1.00  0.00    -0.133 NA
HETATM   13  N   UNL     1       5.508  29.307  55.931  1.00  0.00    -0.134 NA
BRANCH  11  14
HETATM   14  C   UNL     1       4.354  31.458  58.594  1.00  0.00     0.315 C 
BRANCH  14  15
HETATM   15  N   UNL     1       3.980  32.791  57.967  1.00  0.00    -0.064 N 
HETATM   16  H   UNL     1       3.250  32.551  57.277  1.00  0.00     0.280 HD
HETATM   17  C   UNL     1       3.331  33.735  58.955  1.00  0.00     0.235 C 
HETATM   18  C   UNL     1       2.806  34.955  58.214  1.00  0.00     0.028 C 
HETATM   19  C   UNL     1       3.909  35.644  57.420  1.00  0.00     0.003 C 
HETATM   20  C   UNL     1       4.611  34.666  56.485  1.00  0.00     0.028 C 
HETATM   21  C   UNL     1       5.120  33.437  57.225  1.00  0.00     0.235 C 
ENDBRANCH  14  15
ENDBRANCH  11  14
ENDBRANCH   5   8
BRANCH   1  22
HETATM   22  C   UNL     1       6.385  24.883  54.993  1.00  0.00     0.273 C 
BRANCH  22  23
HETATM   23  C   UNL     1       7.072  23.610  54.576  1.00  0.00    -0.032 A 
HETATM   24  C   UNL     1       7.382  23.370  53.230  1.00  0.00     0.012 A 
HETATM   25  C   UNL     1       7.982  22.167  52.855  1.00  0.00     0.043 A 
HETATM   26  C   UNL     1       8.273  21.205  53.817  1.00  0.00     0.122 A 
HETATM   27  C   UNL     1       7.993  21.425  55.166  1.00  0.00    -0.023 A 
HETATM   28  F   UNL     1       8.829  20.050  53.429  1.00  0.00    -0.206 F 
HETATM   29  C   UNL     1       8.287  20.363  56.184  1.00  0.00     0.051 C 
HETATM   30  C   UNL     1       7.383  22.630  55.539  1.00  0.00     0.018 A 
ENDBRANCH  22  23
ENDBRANCH   1  22
TORSDOF 5
ENDMDL
MODEL 6
REMARK VINA RESULT:      -9.1      3.492      5.511
REMARK  5 active torsions:
REMARK  status: ('A' for Active; 'I' for Inactive)
REMARK    1  A    between atoms: C_7  and  C_8 
REMARK    2  A    between atoms: C_8  and  N_9 
REMARK    3  A    between atoms: C_13  and  C_14 
REMARK    4  A    between atoms: C_17  and  C_18 
REMARK    5  A    between atoms: C_18  and  N_19 
ROOT
HETATM    1  N   UNL     1       7.075  25.690  54.920  1.00  0.00    -0.067 N 
HETATM    2  H   UNL     1       7.569  25.248  55.706  1.00  0.00     0.280 HD
HETATM    3  C   UNL     1       7.541  27.126  54.841  1.00  0.00     0.236 C 
HETATM    4  C   UNL     1       7.087  27.911  56.067  1.00  0.00     0.040 C 
HETATM    5  C   UNL     1       5.576  27.839  56.307  1.00  0.00     0.060 C 
HETATM    6  C   UNL     1       5.136  26.370  56.355  1.00  0.00     0.040 C 
HETATM    7  C   UNL     1       5.589  25.553  55.151  1.00  0.00     0.236 C 
ENDROOT
BRANCH   5   8
HETATM    8  C   UNL     1       4.826  28.613  55.256  1.00  0.00     0.134 A 
HETATM    9  N   UNL     1       4.714  29.984  55.169  1.00  0.00    -0.323 N 
HETATM   10  C   UNL     1       5.293  30.957  56.063  1.00  0.00     0.159 C 
HETATM   11  C   UNL     1       3.947  30.225  54.053  1.00  0.00     0.155 A 
HETATM   12  N   UNL     1       3.644  29.074  53.487  1.00  0.00    -0.133 NA
HETATM   13  N   UNL     1       4.183  28.076  54.240  1.00  0.00    -0.134 NA
BRANCH  11  14
HETATM   14  C   UNL     1       3.510  31.555  53.533  1.00  0.00     0.315 C 
BRANCH  14  15
HETATM   15  N   UNL     1       4.579  32.174  52.648  1.00  0.00    -0.064 N 
HETATM   16  H   UNL     1       5.465  31.775  53.002  1.00  0.00     0.280 HD
HETATM   17  C   UNL     1       4.466  31.731  51.206  1.00  0.00     0.235 C 
HETATM   18  C   UNL     1       5.678  32.225  50.431  1.00  0.00     0.028 C 
HETATM   19  C   UNL     1       5.836  33.737  50.544  1.00  0.00     0.003 C 
HETATM   20  C   UNL     1       5.869  34.182  52.002  1.00  0.00     0.028 C 
HETATM   21  C   UNL     1       4.664  33.671  52.780  1.00  0.00     0.235 C 
ENDBRANCH  14  15
ENDBRANCH  11  14
ENDBRANCH   5   8
BRANCH   1  22
HETATM   22  C   UNL     1       7.468  24.891  53.681  1.00  0.00     0.273 C 
BRANCH  22  23
HETATM   23  C   UNL     1       7.794  23.448  53.957  1.00  0.00    -0.032 A 
HETATM   24  C   UNL     1       7.870  22.516  52.912  1.00  0.00     0.012 A 
HETATM   25  C   UNL     1       8.133  21.174  53.189  1.00  0.00     0.043 A 
HETATM   26  C   UNL     1       8.320  20.759  54.504  1.00  0.00     0.122 A 
HETATM   27  C   UNL     1       8.268  21.667  55.562  1.00  0.00    -0.023 A 
HETATM   28  F   UNL     1       8.549  19.463  54.746  1.00  0.00    -0.206 F 
HETATM   29  C   UNL     1       8.443  21.195  56.975  1.00  0.00     0.051 C 
HETATM   30  C   UNL     1       7.996  23.012  55.282  1.00  0.00     0.018 A 
ENDBRANCH  22  23
ENDBRANCH   1  22
TORSDOF 5
ENDMDL
MODEL 7
REMARK VINA RESULT:      -9.1      3.313      9.401
REMARK  5 active torsions:
REMARK  status: ('A' for Active; 'I' for Inactive)
REMARK    1  A    between atoms: C_7  and  C_8 
REMARK    2  A    between atoms: C_8  and  N_9 
REMARK    3  A    between atoms: C_13  and  C_14 
REMARK    4  A    between atoms: C_17  and  C_18 
REMARK    5  A    between atoms: C_18  and  N_19 
ROOT
HETATM    1  N   UNL     1       6.616  29.202  56.921  1.00  0.00    -0.067 N 
HETATM    2  H   UNL     1       5.903  29.923  57.084  1.00  0.00     0.280 HD
HETATM    3  C   UNL     1       6.978  29.246  55.454  1.00  0.00     0.236 C 
HETATM    4  C   UNL     1       5.795  28.815  54.592  1.00  0.00     0.040 C 
HETATM    5  C   UNL     1       5.234  27.443  54.976  1.00  0.00     0.060 C 
HETATM    6  C   UNL     1       4.904  27.428  56.474  1.00  0.00     0.040 C 
HETATM    7  C   UNL     1       6.061  27.870  57.363  1.00  0.00     0.236 C 
ENDROOT
BRANCH   5   8
HETATM    8  C   UNL     1       6.194  26.344  54.604  1.00  0.00     0.134 A 
HETATM    9  N   UNL     1       5.917  25.241  53.826  1.00  0.00    -0.323 N 
HETATM   10  C   UNL     1       4.655  24.913  53.208  1.00  0.00     0.159 C 
HETATM   11  C   UNL     1       7.092  24.529  53.758  1.00  0.00     0.155 A 
HETATM   12  N   UNL     1       8.024  25.180  54.424  1.00  0.00    -0.133 NA
HETATM   13  N   UNL     1       7.462  26.300  54.955  1.00  0.00    -0.134 NA
BRANCH  11  14
HETATM   14  C   UNL     1       7.318  23.233  53.052  1.00  0.00     0.315 C 
BRANCH  14  15
HETATM   15  N   UNL     1       7.993  22.223  53.965  1.00  0.00    -0.064 N 
HETATM   16  H   UNL     1       8.977  22.534  54.005  1.00  0.00     0.280 HD
HETATM   17  C   UNL     1       7.475  22.287  55.385  1.00  0.00     0.235 C 
HETATM   18  C   UNL     1       8.332  21.399  56.273  1.00  0.00     0.028 C 
HETATM   19  C   UNL     1       8.377  19.966  55.755  1.00  0.00     0.003 C 
HETATM   20  C   UNL     1       8.823  19.918  54.299  1.00  0.00     0.028 C 
HETATM   21  C   UNL     1       7.975  20.822  53.414  1.00  0.00     0.235 C 
ENDBRANCH  14  15
ENDBRANCH  11  14
ENDBRANCH   5   8
BRANCH   1  22
HETATM   22  C   UNL     1       7.796  29.577  57.813  1.00  0.00     0.273 C 
BRANCH  22  23
HETATM   23  C   UNL     1       7.477  30.618  58.851  1.00  0.00    -0.032 A 
HETATM   24  C   UNL     1       6.411  31.511  58.669  1.00  0.00     0.012 A 
HETATM   25  C   UNL     1       6.154  32.497  59.622  1.00  0.00     0.043 A 
HETATM   26  C   UNL     1       6.956  32.596  60.754  1.00  0.00     0.122 A 
HETATM   27  C   UNL     1       8.013  31.710  60.971  1.00  0.00    -0.023 A 
HETATM   28  F   UNL     1       6.703  33.565  61.643  1.00  0.00    -0.206 F 
HETATM   29  C   UNL     1       8.884  31.853  62.183  1.00  0.00     0.051 C 
HETATM   30  C   UNL     1       8.273  30.726  60.009  1.00  0.00     0.018 A 
ENDBRANCH  22  23
ENDBRANCH   1  22
TORSDOF 5
ENDMDL
MODEL 8
REMARK VINA RESULT:      -9.0      5.242      8.013
REMARK  5 active torsions:
REMARK  status: ('A' for Active; 'I' for Inactive)
REMARK    1  A    between atoms: C_7  and  C_8 
REMARK    2  A    between atoms: C_8  and  N_9 
REMARK    3  A    between atoms: C_13  and  C_14 
REMARK    4  A    between atoms: C_17  and  C_18 
REMARK    5  A    between atoms: C_18  and  N_19 
ROOT
HETATM    1  N   UNL     1       7.044  25.154  53.361  1.00  0.00    -0.067 N 
HETATM    2  H   UNL     1       7.101  25.054  54.382  1.00  0.00     0.280 HD
HETATM    3  C   UNL     1       7.383  26.589  53.026  1.00  0.00     0.236 C 
HETATM    4  C   UNL     1       6.314  27.537  53.562  1.00  0.00     0.040 C 
HETATM    5  C   UNL     1       4.901  27.184  53.091  1.00  0.00     0.060 C 
HETATM    6  C   UNL     1       4.603  25.717  53.424  1.00  0.00     0.040 C 
HETATM    7  C   UNL     1       5.661  24.744  52.916  1.00  0.00     0.236 C 
ENDROOT
BRANCH   5   8
HETATM    8  C   UNL     1       4.735  27.470  51.623  1.00  0.00     0.134 A 
HETATM    9  N   UNL     1       3.878  28.388  51.056  1.00  0.00    -0.323 N 
HETATM   10  C   UNL     1       2.966  29.264  51.751  1.00  0.00     0.159 C 
HETATM   11  C   UNL     1       4.079  28.298  49.698  1.00  0.00     0.155 A 
HETATM   12  N   UNL     1       5.021  27.406  49.466  1.00  0.00    -0.133 NA
HETATM   13  N   UNL     1       5.419  26.888  50.660  1.00  0.00    -0.134 NA
BRANCH  11  14
HETATM   14  C   UNL     1       3.373  29.067  48.632  1.00  0.00     0.315 C 
BRANCH  14  15
HETATM   15  N   UNL     1       4.282  30.125  48.026  1.00  0.00    -0.064 N 
HETATM   16  H   UNL     1       5.184  29.639  47.894  1.00  0.00     0.280 HD
HETATM   17  C   UNL     1       3.831  30.557  46.649  1.00  0.00     0.235 C 
HETATM   18  C   UNL     1       4.892  31.455  46.031  1.00  0.00     0.028 C 
HETATM   19  C   UNL     1       5.199  32.652  46.924  1.00  0.00     0.003 C 
HETATM   20  C   UNL     1       5.575  32.209  48.333  1.00  0.00     0.028 C 
HETATM   21  C   UNL     1       4.520  31.296  48.942  1.00  0.00     0.235 C 
ENDBRANCH  14  15
ENDBRANCH  11  14
ENDBRANCH   5   8
BRANCH   1  22
HETATM   22  C   UNL     1       8.066  24.176  52.791  1.00  0.00     0.273 C 
BRANCH  22  23
HETATM   23  C   UNL     1       8.170  22.881  53.551  1.00  0.00    -0.032 A 
HETATM   24  C   UNL     1       8.137  21.650  52.879  1.00  0.00     0.012 A 
HETATM   25  C   UNL     1       8.191  20.458  53.602  1.00  0.00     0.043 A 
HETATM   26  C   UNL     1       8.279  20.489  54.990  1.00  0.00     0.122 A 
HETATM   27  C   UNL     1       8.332  21.699  55.684  1.00  0.00    -0.023 A 
HETATM   28  F   UNL     1       8.308  19.332  55.662  1.00  0.00    -0.206 F 
HETATM   29  C   UNL     1       8.395  21.711  57.181  1.00  0.00     0.051 C 
HETATM   30  C   UNL     1       8.268  22.894  54.956  1.00  0.00     0.018 A 
ENDBRANCH  22  23
ENDBRANCH   1  22
TORSDOF 5
ENDMDL
MODEL 9
REMARK VINA RESULT:      -8.9      5.998      7.994
REMARK  5 active torsions:
REMARK  status: ('A' for Active; 'I' for Inactive)
REMARK    1  A    between atoms: C_7  and  C_8 
REMARK    2  A    between atoms: C_8  and  N_9 
REMARK    3  A    between atoms: C_13  and  C_14 
REMARK    4  A    between atoms: C_17  and  C_18 
REMARK    5  A    between atoms: C_18  and  N_19 
ROOT
HETATM    1  N   UNL     1       5.888  26.358  52.143  1.00  0.00    -0.067 N 
HETATM    2  H   UNL     1       5.252  25.656  52.543  1.00  0.00     0.280 HD
HETATM    3  C   UNL     1       5.605  27.672  52.834  1.00  0.00     0.236 C 
HETATM    4  C   UNL     1       4.210  28.179  52.483  1.00  0.00     0.040 C 
HETATM    5  C   UNL     1       3.966  28.289  50.975  1.00  0.00     0.060 C 
HETATM    6  C   UNL     1       4.288  26.947  50.307  1.00  0.00     0.040 C 
HETATM    7  C   UNL     1       5.671  26.405  50.650  1.00  0.00     0.236 C 
ENDROOT
BRANCH   5   8
HETATM    8  C   UNL     1       4.768  29.416  50.381  1.00  0.00     0.134 A 
HETATM    9  N   UNL     1       4.382  30.242  49.347  1.00  0.00    -0.323 N 
HETATM   10  C   UNL     1       3.134  30.199  48.626  1.00  0.00     0.159 C 
HETATM   11  C   UNL     1       5.429  31.115  49.157  1.00  0.00     0.155 A 
HETATM   12  N   UNL     1       6.369  30.851  50.042  1.00  0.00    -0.133 NA
HETATM   13  N   UNL     1       5.960  29.792  50.793  1.00  0.00    -0.134 NA
BRANCH  11  14
HETATM   14  C   UNL     1       5.521  32.197  48.134  1.00  0.00     0.315 C 
BRANCH  14  15
HETATM   15  N   UNL     1       6.470  33.297  48.583  1.00  0.00    -0.064 N 
HETATM   16  H   UNL     1       7.116  32.823  49.236  1.00  0.00     0.280 HD
HETATM   17  C   UNL     1       7.326  33.821  47.453  1.00  0.00     0.235 C 
HETATM   18  C   UNL     1       8.381  34.762  48.015  1.00  0.00     0.028 C 
HETATM   19  C   UNL     1       7.748  35.896  48.814  1.00  0.00     0.003 C 
HETATM   20  C   UNL     1       6.824  35.358  49.900  1.00  0.00     0.028 C 
HETATM   21  C   UNL     1       5.781  34.402  49.338  1.00  0.00     0.235 C 
ENDBRANCH  14  15
ENDBRANCH  11  14
ENDBRANCH   5   8
BRANCH   1  22
HETATM   22  C   UNL     1       7.298  25.851  52.430  1.00  0.00     0.273 C 
BRANCH  22  23
HETATM   23  C   UNL     1       7.347  24.633  53.313  1.00  0.00    -0.032 A 
HETATM   24  C   UNL     1       7.077  24.729  54.685  1.00  0.00     0.012 A 
HETATM   25  C   UNL     1       7.168  23.597  55.497  1.00  0.00     0.043 A 
HETATM   26  C   UNL     1       7.526  22.372  54.944  1.00  0.00     0.122 A 
HETATM   27  C   UNL     1       7.783  22.243  53.579  1.00  0.00    -0.023 A 
HETATM   28  F   UNL     1       7.628  21.306  55.747  1.00  0.00    -0.206 F 
HETATM   29  C   UNL     1       8.197  20.920  53.008  1.00  0.00     0.051 C 
HETATM   30  C   UNL     1       7.699  23.382  52.768  1.00  0.00     0.018 A 
ENDBRANCH  22  23
ENDBRANCH   1  22
TORSDOF 5
ENDMDL
MODEL 10
REMARK VINA RESULT:      -8.8      3.521      9.658
REMARK  5 active torsions:
REMARK  status: ('A' for Active; 'I' for Inactive)
REMARK    1  A    between atoms: C_7  and  C_8 
REMARK    2  A    between atoms: C_8  and  N_9 
REMARK    3  A    between atoms: C_13  and  C_14 
REMARK    4  A    between atoms: C_17  and  C_18 
REMARK    5  A    between atoms: C_18  and  N_19 
ROOT
HETATM    1  N   UNL     1       7.980  29.921  57.535  1.00  0.00    -0.067 N 
HETATM    2  H   UNL     1       7.520  30.705  57.053  1.00  0.00     0.280 HD
HETATM    3  C   UNL     1       8.862  29.224  56.524  1.00  0.00     0.236 C 
HETATM    4  C   UNL     1       8.020  28.562  55.437  1.00  0.00     0.040 C 
HETATM    5  C   UNL     1       6.959  27.606  55.990  1.00  0.00     0.060 C 
HETATM    6  C   UNL     1       6.102  28.341  57.029  1.00  0.00     0.040 C 
HETATM    7  C   UNL     1       6.915  29.028  58.121  1.00  0.00     0.236 C 
ENDROOT
BRANCH   5   8
HETATM    8  C   UNL     1       7.595  26.369  56.564  1.00  0.00     0.134 A 
HETATM    9  N   UNL     1       7.306  25.064  56.226  1.00  0.00    -0.323 N 
HETATM   10  C   UNL     1       6.338  24.618  55.253  1.00  0.00     0.159 C 
HETATM   11  C   UNL     1       8.134  24.286  57.000  1.00  0.00     0.155 A 
HETATM   12  N   UNL     1       8.896  25.073  57.733  1.00  0.00    -0.133 NA
HETATM   13  N   UNL     1       8.553  26.363  57.467  1.00  0.00    -0.134 NA
BRANCH  11  14
HETATM   14  C   UNL     1       8.195  22.795  57.032  1.00  0.00     0.315 C 
BRANCH  14  15
HETATM   15  N   UNL     1       8.150  22.215  55.627  1.00  0.00    -0.064 N 
HETATM   16  H   UNL     1       7.386  22.733  55.164  1.00  0.00     0.280 HD
HETATM   17  C   UNL     1       9.402  22.515  54.835  1.00  0.00     0.235 C 
HETATM   18  C   UNL     1       9.199  22.085  53.391  1.00  0.00     0.028 C 
HETATM   19  C   UNL     1       8.814  20.613  53.296  1.00  0.00     0.003 C 
HETATM   20  C   UNL     1       7.598  20.303  54.161  1.00  0.00     0.028 C 
HETATM   21  C   UNL     1       7.796  20.752  55.602  1.00  0.00     0.235 C 
ENDBRANCH  14  15
ENDBRANCH  11  14
ENDBRANCH   5   8
BRANCH   1  22
HETATM   22  C   UNL     1       8.790  30.548  58.666  1.00  0.00     0.273 C 
BRANCH  22  23
HETATM   23  C   UNL     1       7.972  31.362  59.631  1.00  0.00    -0.032 A 
HETATM   24  C   UNL     1       6.801  32.009  59.212  1.00  0.00     0.012 A 
HETATM   25  C   UNL     1       6.076  32.795  60.110  1.00  0.00     0.043 A 
HETATM   26  C   UNL     1       6.516  32.936  61.422  1.00  0.00     0.122 A 
HETATM   27  C   UNL     1       7.668  32.290  61.872  1.00  0.00    -0.023 A 
HETATM   28  F   UNL     1       5.816  33.713  62.258  1.00  0.00    -0.206 F 
HETATM   29  C   UNL     1       8.142  32.480  63.282  1.00  0.00     0.051 C 
HETATM   30  C   UNL     1       8.398  31.509  60.966  1.00  0.00     0.018 A 
ENDBRANCH  22  23
ENDBRANCH   1  22
TORSDOF 5
ENDMDL
