MODEL 1
REMARK VINA RESULT:      -8.7      0.000      0.000
REMARK  6 active torsions:
REMARK  status: ('A' for Active; 'I' for Inactive)
REMARK    1  A    between atoms: O_2  and  C_3 
REMARK    2  A    between atoms: C_4  and  N_5 
REMARK       I    between atoms: N_5  and  C_6 
REMARK       I    between atoms: C_6  and  N_7 
REMARK    3  A    between atoms: N_7  and  C_8 
REMARK    4  A    between atoms: C_8  and  C_9 
REMARK    5  A    between atoms: C_9  and  C_10 
REMARK    6  A    between atoms: C_10  and  N_11 
ROOT
HETATM    1  N   UNL     1       7.054  29.740  57.862  1.00  0.00    -0.306 N 
HETATM    2  C   UNL     1       7.117  28.379  57.687  1.00  0.00     0.320 C 
HETATM    3  N   UNL     1       6.135  27.965  56.807  1.00  0.00    -0.343 N 
HETATM    4  O   UNL     1       7.874  27.606  58.254  1.00  0.00    -0.247 OA
HETATM    5  H   UNL     1       6.199  30.190  57.561  1.00  0.00     0.171 HD
HETATM    6  H   UNL     1       5.970  28.606  56.043  1.00  0.00     0.164 HD
ENDROOT
BRANCH   3   7
HETATM    7  C   UNL     1       5.935  26.556  56.525  1.00  0.00     0.126 C 
BRANCH   7   8
HETATM    8  C   UNL     1       6.742  26.069  55.323  1.00  0.00     0.040 C 
BRANCH   8   9
HETATM    9  C   UNL     1       7.789  25.033  55.724  1.00  0.00     0.131 C 
BRANCH   9  10
HETATM   10  N   UNL     1       7.844  23.919  54.793  1.00  0.00    -0.341 N 
HETATM   11  C   UNL     1       8.057  22.612  55.146  1.00  0.00     0.139 A 
HETATM   12  C   UNL     1       8.062  21.856  53.975  1.00  0.00     0.011 A 
HETATM   13  N   UNL     1       8.225  22.158  56.406  1.00  0.00    -0.242 NA
HETATM   14  C   UNL     1       8.263  20.473  54.097  1.00  0.00     0.017 A 
HETATM   15  C   UNL     1       7.846  22.756  52.898  1.00  0.00     0.032 A 
HETATM   16  C   UNL     1       8.443  19.955  55.379  1.00  0.00     0.020 A 
HETATM   17  C   UNL     1       8.414  20.820  56.464  1.00  0.00     0.119 A 
HETATM   18  C   UNL     1       7.715  24.023  53.430  1.00  0.00     0.093 A 
ENDBRANCH   9  10
ENDBRANCH   8   9
ENDBRANCH   7   8
ENDBRANCH   3   7
BRANCH   1  19
HETATM   19  C   UNL     1       7.892  30.543  58.662  1.00  0.00     0.071 A 
HETATM   20  C   UNL     1       9.188  30.791  58.179  1.00  0.00     0.095 A 
HETATM   21  C   UNL     1      10.107  31.533  58.921  1.00  0.00     0.041 A 
HETATM   22  C   UNL     1       9.718  32.067  60.149  1.00  0.00     0.026 A 
HETATM   23  C   UNL     1       8.424  31.842  60.624  1.00  0.00     0.036 A 
HETATM   24  C   UNL     1       7.510  31.083  59.890  1.00  0.00     0.056 A 
HETATM   25 CL   UNL     1       7.959  32.502  62.146  1.00  0.00    -0.084 Cl
BRANCH  20  26
HETATM   26  O   UNL     1       9.554  30.259  56.964  1.00  0.00    -0.354 OA
HETATM   27  C   UNL     1      10.889  29.752  57.031  1.00  0.00     0.210 C 
ENDBRANCH  20  26
ENDBRANCH   1  19
TORSDOF 6
ENDMDL
MODEL 2
REMARK VINA RESULT:      -8.6      5.311     10.083
REMARK  6 active torsions:
REMARK  status: ('A' for Active; 'I' for Inactive)
REMARK    1  A    between atoms: O_2  and  C_3 
REMARK    2  A    between atoms: C_4  and  N_5 
REMARK       I    between atoms: N_5  and  C_6 
REMARK       I    between atoms: C_6  and  N_7 
REMARK    3  A    between atoms: N_7  and  C_8 
REMARK    4  A    between atoms: C_8  and  C_9 
REMARK    5  A    between atoms: C_9  and  C_10 
REMARK    6  A    between atoms: C_10  and  N_11 
ROOT
HETATM    1  N   UNL     1       5.946  30.385  58.456  1.00  0.00    -0.306 N 
HETATM    2  C   UNL     1       5.507  31.672  58.655  1.00  0.00     0.320 C 
HETATM    3  N   UNL     1       4.357  31.671  59.421  1.00  0.00    -0.343 N 
HETATM    4  O   UNL     1       5.997  32.689  58.188  1.00  0.00    -0.247 OA
HETATM    5  H   UNL     1       5.279  29.650  58.651  1.00  0.00     0.171 HD
HETATM    6  H   UNL     1       4.351  30.974  60.153  1.00  0.00     0.164 HD
ENDROOT
BRANCH   3   7
HETATM    7  C   UNL     1       3.645  32.904  59.696  1.00  0.00     0.126 C 
BRANCH   7   8
HETATM    8  C   UNL     1       3.652  33.279  61.178  1.00  0.00     0.040 C 
BRANCH   8   9
HETATM    9  C   UNL     1       4.118  32.120  62.055  1.00  0.00     0.131 C 
BRANCH   9  10
HETATM   10  N   UNL     1       5.352  32.424  62.756  1.00  0.00    -0.341 N 
HETATM   11  C   UNL     1       5.428  33.002  63.997  1.00  0.00     0.139 A 
HETATM   12  C   UNL     1       6.778  33.148  64.311  1.00  0.00     0.011 A 
HETATM   13  N   UNL     1       4.373  33.355  64.762  1.00  0.00    -0.242 NA
HETATM   14  C   UNL     1       7.096  33.723  65.551  1.00  0.00     0.017 A 
HETATM   15  C   UNL     1       7.518  32.638  63.212  1.00  0.00     0.032 A 
HETATM   16  C   UNL     1       6.041  34.105  66.378  1.00  0.00     0.020 A 
HETATM   17  C   UNL     1       4.738  33.902  65.943  1.00  0.00     0.119 A 
HETATM   18  C   UNL     1       6.615  32.198  62.266  1.00  0.00     0.093 A 
ENDBRANCH   9  10
ENDBRANCH   8   9
ENDBRANCH   7   8
ENDBRANCH   3   7
BRANCH   1  19
HETATM   19  C   UNL     1       7.091  29.969  57.747  1.00  0.00     0.071 A 
HETATM   20  C   UNL     1       8.330  30.117  58.394  1.00  0.00     0.095 A 
HETATM   21  C   UNL     1       9.523  29.778  57.755  1.00  0.00     0.041 A 
HETATM   22  C   UNL     1       9.480  29.250  56.465  1.00  0.00     0.026 A 
HETATM   23  C   UNL     1       8.250  29.080  55.827  1.00  0.00     0.036 A 
HETATM   24  C   UNL     1       7.056  29.437  56.458  1.00  0.00     0.056 A 
HETATM   25 CL   UNL     1       8.211  28.433  54.231  1.00  0.00    -0.084 Cl
BRANCH  20  26
HETATM   26  O   UNL     1       8.353  30.636  59.667  1.00  0.00    -0.354 OA
HETATM   27  C   UNL     1       9.408  31.594  59.788  1.00  0.00     0.210 C 
ENDBRANCH  20  26
ENDBRANCH   1  19
TORSDOF 6
ENDMDL
MODEL 3
REMARK VINA RESULT:      -8.5      3.481      9.737
REMARK  6 active torsions:
REMARK  status: ('A' for Active; 'I' for Inactive)
REMARK    1  A    between atoms: O_2  and  C_3 
REMARK    2  A    between atoms: C_4  and  N_5 
REMARK       I    between atoms: N_5  and  C_6 
REMARK       I    between atoms: C_6  and  N_7 
REMARK    3  A    between atoms: N_7  and  C_8 
REMARK    4  A    between atoms: C_8  and  C_9 
REMARK    5  A    between atoms: C_9  and  C_10 
REMARK    6  A    between atoms: C_10  and  N_11 
ROOT
HETATM    1  N   UNL     1       8.335  25.499  56.148  1.00  0.00    -0.306 N 
HETATM    2  C   UNL     1       7.390  26.338  56.686  1.00  0.00     0.320 C 
HETATM    3  N   UNL     1       7.986  27.496  57.149  1.00  0.00    -0.343 N 
HETATM    4  O   UNL     1       6.197  26.106  56.812  1.00  0.00    -0.247 OA
HETATM    5  H   UNL     1       9.298  25.702  56.384  1.00  0.00     0.171 HD
HETATM    6  H   UNL     1       8.743  27.830  56.568  1.00  0.00     0.164 HD
ENDROOT
BRANCH   3   7
HETATM    7  C   UNL     1       7.211  28.505  57.844  1.00  0.00     0.126 C 
BRANCH   7   8
HETATM    8  C   UNL     1       8.003  29.783  58.116  1.00  0.00     0.040 C 
BRANCH   8   9
HETATM    9  C   UNL     1       7.221  30.764  58.986  1.00  0.00     0.131 C 
BRANCH   9  10
HETATM   10  N   UNL     1       7.924  31.090  60.214  1.00  0.00    -0.341 N 
HETATM   11  C   UNL     1       7.382  31.777  61.269  1.00  0.00     0.139 A 
HETATM   12  C   UNL     1       8.374  31.906  62.240  1.00  0.00     0.011 A 
HETATM   13  N   UNL     1       6.114  32.233  61.338  1.00  0.00    -0.242 NA
HETATM   14  C   UNL     1       8.038  32.582  63.423  1.00  0.00     0.017 A 
HETATM   15  C   UNL     1       9.539  31.273  61.732  1.00  0.00     0.032 A 
HETATM   16  C   UNL     1       6.739  33.073  63.543  1.00  0.00     0.020 A 
HETATM   17  C   UNL     1       5.846  32.874  62.498  1.00  0.00     0.119 A 
HETATM   18  C   UNL     1       9.235  30.778  60.480  1.00  0.00     0.093 A 
ENDBRANCH   9  10
ENDBRANCH   8   9
ENDBRANCH   7   8
ENDBRANCH   3   7
BRANCH   1  19
HETATM   19  C   UNL     1       8.126  24.237  55.557  1.00  0.00     0.071 A 
HETATM   20  C   UNL     1       7.876  24.214  54.174  1.00  0.00     0.095 A 
HETATM   21  C   UNL     1       7.609  23.018  53.508  1.00  0.00     0.041 A 
HETATM   22  C   UNL     1       7.627  21.821  54.223  1.00  0.00     0.026 A 
HETATM   23  C   UNL     1       7.898  21.835  55.592  1.00  0.00     0.036 A 
HETATM   24  C   UNL     1       8.146  23.035  56.264  1.00  0.00     0.056 A 
HETATM   25 CL   UNL     1       7.910  20.350  56.464  1.00  0.00    -0.084 Cl
BRANCH  20  26
HETATM   26  O   UNL     1       7.865  25.405  53.484  1.00  0.00    -0.354 OA
HETATM   27  C   UNL     1       7.848  25.157  52.077  1.00  0.00     0.210 C 
ENDBRANCH  20  26
ENDBRANCH   1  19
TORSDOF 6
ENDMDL
MODEL 4
REMARK VINA RESULT:      -8.4      5.500      7.474
REMARK  6 active torsions:
REMARK  status: ('A' for Active; 'I' for Inactive)
REMARK    1  A    between atoms: O_2  and  C_3 
REMARK    2  A    between atoms: C_4  and  N_5 
REMARK       I    between atoms: N_5  and  C_6 
REMARK       I    between atoms: C_6  and  N_7 
REMARK    3  A    between atoms: N_7  and  C_8 
REMARK    4  A    between atoms: C_8  and  C_9 
REMARK    5  A    between atoms: C_9  and  C_10 
REMARK    6  A    between atoms: C_10  and  N_11 
ROOT
HETATM    1  N   UNL     1       5.900  27.238  51.608  1.00  0.00    -0.306 N 
HETATM    2  C   UNL     1       5.270  27.161  52.827  1.00  0.00     0.320 C 
HETATM    3  N   UNL     1       6.203  27.044  53.840  1.00  0.00    -0.343 N 
HETATM    4  O   UNL     1       4.065  27.133  53.023  1.00  0.00    -0.247 OA
HETATM    5  H   UNL     1       6.870  26.952  51.587  1.00  0.00     0.171 HD
HETATM    6  H   UNL     1       7.041  27.591  53.693  1.00  0.00     0.164 HD
ENDROOT
BRANCH   3   7
HETATM    7  C   UNL     1       5.787  26.855  55.216  1.00  0.00     0.126 C 
BRANCH   7   8
HETATM    8  C   UNL     1       6.167  25.483  55.771  1.00  0.00     0.040 C 
BRANCH   8   9
HETATM    9  C   UNL     1       7.613  25.118  55.445  1.00  0.00     0.131 C 
BRANCH   9  10
HETATM   10  N   UNL     1       7.710  23.887  54.681  1.00  0.00    -0.341 N 
HETATM   11  C   UNL     1       7.976  22.652  55.214  1.00  0.00     0.139 A 
HETATM   12  C   UNL     1       8.009  21.739  54.162  1.00  0.00     0.011 A 
HETATM   13  N   UNL     1       8.165  22.389  56.524  1.00  0.00    -0.242 NA
HETATM   14  C   UNL     1       8.265  20.396  54.477  1.00  0.00     0.017 A 
HETATM   15  C   UNL     1       7.754  22.468  52.970  1.00  0.00     0.032 A 
HETATM   16  C   UNL     1       8.468  20.073  55.818  1.00  0.00     0.020 A 
HETATM   17  C   UNL     1       8.407  21.082  56.770  1.00  0.00     0.119 A 
HETATM   18  C   UNL     1       7.574  23.791  53.318  1.00  0.00     0.093 A 
ENDBRANCH   9  10
ENDBRANCH   8   9
ENDBRANCH   7   8
ENDBRANCH   3   7
BRANCH   1  19
HETATM   19  C   UNL     1       5.302  27.384  50.340  1.00  0.00     0.071 A 
HETATM   20  C   UNL     1       5.355  28.659  49.752  1.00  0.00     0.095 A 
HETATM   21  C   UNL     1       4.749  28.914  48.522  1.00  0.00     0.041 A 
HETATM   22  C   UNL     1       4.110  27.874  47.849  1.00  0.00     0.026 A 
HETATM   23  C   UNL     1       4.073  26.599  48.417  1.00  0.00     0.036 A 
HETATM   24  C   UNL     1       4.663  26.348  49.659  1.00  0.00     0.056 A 
HETATM   25 CL   UNL     1       3.274  25.325  47.578  1.00  0.00    -0.084 Cl
BRANCH  20  26
HETATM   26  O   UNL     1       5.992  29.673  50.429  1.00  0.00    -0.354 OA
HETATM   27  C   UNL     1       5.048  30.673  50.820  1.00  0.00     0.210 C 
ENDBRANCH  20  26
ENDBRANCH   1  19
TORSDOF 6
ENDMDL
MODEL 5
REMARK VINA RESULT:      -8.4      4.998     10.223
REMARK  6 active torsions:
REMARK  status: ('A' for Active; 'I' for Inactive)
REMARK    1  A    between atoms: O_2  and  C_3 
REMARK    2  A    between atoms: C_4  and  N_5 
REMARK       I    between atoms: N_5  and  C_6 
REMARK       I    between atoms: C_6  and  N_7 
REMARK    3  A    between atoms: N_7  and  C_8 
REMARK    4  A    between atoms: C_8  and  C_9 
REMARK    5  A    between atoms: C_9  and  C_10 
REMARK    6  A    between atoms: C_10  and  N_11 
ROOT
HETATM    1  N   UNL     1       6.176  30.432  58.469  1.00  0.00    -0.306 N 
HETATM    2  C   UNL     1       5.671  31.694  58.661  1.00  0.00     0.320 C 
HETATM    3  N   UNL     1       4.634  31.660  59.574  1.00  0.00    -0.343 N 
HETATM    4  O   UNL     1       6.017  32.714  58.083  1.00  0.00    -0.247 OA
HETATM    5  H   UNL     1       5.598  29.665  58.788  1.00  0.00     0.171 HD
HETATM    6  H   UNL     1       4.777  31.008  60.335  1.00  0.00     0.164 HD
ENDROOT
BRANCH   3   7
HETATM    7  C   UNL     1       3.874  32.856  59.882  1.00  0.00     0.126 C 
BRANCH   7   8
HETATM    8  C   UNL     1       3.957  33.253  61.355  1.00  0.00     0.040 C 
BRANCH   8   9
HETATM    9  C   UNL     1       4.481  32.112  62.223  1.00  0.00     0.131 C 
BRANCH   9  10
HETATM   10  N   UNL     1       5.636  32.507  63.010  1.00  0.00    -0.341 N 
HETATM   11  C   UNL     1       5.579  33.067  64.260  1.00  0.00     0.139 A 
HETATM   12  C   UNL     1       6.887  33.322  64.666  1.00  0.00     0.011 A 
HETATM   13  N   UNL     1       4.450  33.315  64.957  1.00  0.00    -0.242 NA
HETATM   14  C   UNL     1       7.073  33.899  65.932  1.00  0.00     0.017 A 
HETATM   15  C   UNL     1       7.740  32.897  63.613  1.00  0.00     0.032 A 
HETATM   16  C   UNL     1       5.936  34.175  66.691  1.00  0.00     0.020 A 
HETATM   17  C   UNL     1       4.687  33.869  66.167  1.00  0.00     0.119 A 
HETATM   18  C   UNL     1       6.943  32.399  62.603  1.00  0.00     0.093 A 
ENDBRANCH   9  10
ENDBRANCH   8   9
ENDBRANCH   7   8
ENDBRANCH   3   7
BRANCH   1  19
HETATM   19  C   UNL     1       7.247  30.053  57.634  1.00  0.00     0.071 A 
HETATM   20  C   UNL     1       6.918  29.449  56.409  1.00  0.00     0.095 A 
HETATM   21  C   UNL     1       7.909  28.996  55.537  1.00  0.00     0.041 A 
HETATM   22  C   UNL     1       9.249  29.179  55.875  1.00  0.00     0.026 A 
HETATM   23  C   UNL     1       9.582  29.799  57.081  1.00  0.00     0.036 A 
HETATM   24  C   UNL     1       8.591  30.236  57.963  1.00  0.00     0.056 A 
HETATM   25 CL   UNL     1      11.242  30.013  57.489  1.00  0.00    -0.084 Cl
BRANCH  20  26
HETATM   26  O   UNL     1       5.591  29.279  56.091  1.00  0.00    -0.354 OA
HETATM   27  C   UNL     1       5.403  28.034  55.414  1.00  0.00     0.210 C 
ENDBRANCH  20  26
ENDBRANCH   1  19
TORSDOF 6
ENDMDL
MODEL 6
REMARK VINA RESULT:      -8.4      1.936      2.618
REMARK  6 active torsions:
REMARK  status: ('A' for Active; 'I' for Inactive)
REMARK    1  A    between atoms: O_2  and  C_3 
REMARK    2  A    between atoms: C_4  and  N_5 
REMARK       I    between atoms: N_5  and  C_6 
REMARK       I    between atoms: C_6  and  N_7 
REMARK    3  A    between atoms: N_7  and  C_8 
REMARK    4  A    between atoms: C_8  and  C_9 
REMARK    5  A    between atoms: C_9  and  C_10 
REMARK    6  A    between atoms: C_10  and  N_11 
ROOT
HETATM    1  N   UNL     1       7.684  29.143  55.368  1.00  0.00    -0.306 N 
HETATM    2  C   UNL     1       6.880  28.145  54.872  1.00  0.00     0.320 C 
HETATM    3  N   UNL     1       7.263  27.817  53.586  1.00  0.00    -0.343 N 
HETATM    4  O   UNL     1       5.918  27.640  55.431  1.00  0.00    -0.247 OA
HETATM    5  H   UNL     1       8.234  29.652  54.688  1.00  0.00     0.171 HD
HETATM    6  H   UNL     1       8.263  27.835  53.437  1.00  0.00     0.164 HD
ENDROOT
BRANCH   3   7
HETATM    7  C   UNL     1       6.511  26.851  52.809  1.00  0.00     0.126 C 
BRANCH   7   8
HETATM    8  C   UNL     1       7.272  25.546  52.581  1.00  0.00     0.040 C 
BRANCH   8   9
HETATM    9  C   UNL     1       6.470  24.332  53.041  1.00  0.00     0.131 C 
BRANCH   9  10
HETATM   10  N   UNL     1       7.060  23.692  54.203  1.00  0.00    -0.341 N 
HETATM   11  C   UNL     1       7.626  22.442  54.208  1.00  0.00     0.139 A 
HETATM   12  C   UNL     1       8.054  22.181  55.508  1.00  0.00     0.011 A 
HETATM   13  N   UNL     1       7.740  21.630  53.136  1.00  0.00    -0.242 NA
HETATM   14  C   UNL     1       8.673  20.945  55.750  1.00  0.00     0.017 A 
HETATM   15  C   UNL     1       7.725  23.319  56.292  1.00  0.00     0.032 A 
HETATM   16  C   UNL     1       8.815  20.070  54.674  1.00  0.00     0.020 A 
HETATM   17  C   UNL     1       8.343  20.456  53.426  1.00  0.00     0.119 A 
HETATM   18  C   UNL     1       7.112  24.235  55.463  1.00  0.00     0.093 A 
ENDBRANCH   9  10
ENDBRANCH   8   9
ENDBRANCH   7   8
ENDBRANCH   3   7
BRANCH   1  19
HETATM   19  C   UNL     1       7.629  29.736  56.645  1.00  0.00     0.071 A 
HETATM   20  C   UNL     1       8.737  29.543  57.487  1.00  0.00     0.095 A 
HETATM   21  C   UNL     1       8.754  30.050  58.787  1.00  0.00     0.041 A 
HETATM   22  C   UNL     1       7.665  30.792  59.243  1.00  0.00     0.026 A 
HETATM   23  C   UNL     1       6.571  31.006  58.403  1.00  0.00     0.036 A 
HETATM   24  C   UNL     1       6.545  30.482  57.108  1.00  0.00     0.056 A 
HETATM   25 CL   UNL     1       5.230  31.919  58.982  1.00  0.00    -0.084 Cl
BRANCH  20  26
HETATM   26  O   UNL     1       9.803  28.812  57.019  1.00  0.00    -0.354 OA
HETATM   27  C   UNL     1      10.979  29.625  56.981  1.00  0.00     0.210 C 
ENDBRANCH  20  26
ENDBRANCH   1  19
TORSDOF 6
ENDMDL
MODEL 7
REMARK VINA RESULT:      -8.4      3.384      8.364
REMARK  6 active torsions:
REMARK  status: ('A' for Active; 'I' for Inactive)
REMARK    1  A    between atoms: O_2  and  C_3 
REMARK    2  A    between atoms: C_4  and  N_5 
REMARK       I    between atoms: N_5  and  C_6 
REMARK       I    between atoms: C_6  and  N_7 
REMARK    3  A    between atoms: N_7  and  C_8 
REMARK    4  A    between atoms: C_8  and  C_9 
REMARK    5  A    between atoms: C_9  and  C_10 
REMARK    6  A    between atoms: C_10  and  N_11 
ROOT
HETATM    1  N   UNL     1       7.437  25.807  55.028  1.00  0.00    -0.306 N 
HETATM    2  C   UNL     1       6.280  26.530  54.864  1.00  0.00     0.320 C 
HETATM    3  N   UNL     1       6.466  27.832  55.289  1.00  0.00    -0.343 N 
HETATM    4  O   UNL     1       5.206  26.105  54.466  1.00  0.00    -0.247 OA
HETATM    5  H   UNL     1       8.136  26.214  55.635  1.00  0.00     0.171 HD
HETATM    6  H   UNL     1       7.379  28.209  55.072  1.00  0.00     0.164 HD
ENDROOT
BRANCH   3   7
HETATM    7  C   UNL     1       5.364  28.774  55.303  1.00  0.00     0.126 C 
BRANCH   7   8
HETATM    8  C   UNL     1       5.416  29.734  56.491  1.00  0.00     0.040 C 
BRANCH   8   9
HETATM    9  C   UNL     1       6.199  29.148  57.662  1.00  0.00     0.131 C 
BRANCH   9  10
HETATM   10  N   UNL     1       7.285  30.014  58.085  1.00  0.00    -0.341 N 
HETATM   11  C   UNL     1       8.591  29.883  57.690  1.00  0.00     0.139 A 
HETATM   12  C   UNL     1       9.324  30.884  58.326  1.00  0.00     0.011 A 
HETATM   13  N   UNL     1       9.062  28.950  56.837  1.00  0.00    -0.242 NA
HETATM   14  C   UNL     1      10.702  30.944  58.064  1.00  0.00     0.017 A 
HETATM   15  C   UNL     1       8.412  31.625  59.123  1.00  0.00     0.032 A 
HETATM   16  C   UNL     1      11.237  30.000  57.189  1.00  0.00     0.020 A 
HETATM   17  C   UNL     1      10.393  29.055  56.621  1.00  0.00     0.119 A 
HETATM   18  C   UNL     1       7.161  31.067  58.957  1.00  0.00     0.093 A 
ENDBRANCH   9  10
ENDBRANCH   8   9
ENDBRANCH   7   8
ENDBRANCH   3   7
BRANCH   1  19
HETATM   19  C   UNL     1       7.659  24.455  54.697  1.00  0.00     0.071 A 
HETATM   20  C   UNL     1       8.000  24.173  53.363  1.00  0.00     0.095 A 
HETATM   21  C   UNL     1       8.191  22.861  52.929  1.00  0.00     0.041 A 
HETATM   22  C   UNL     1       8.075  21.816  53.845  1.00  0.00     0.026 A 
HETATM   23  C   UNL     1       7.758  22.092  55.176  1.00  0.00     0.036 A 
HETATM   24  C   UNL     1       7.548  23.404  55.607  1.00  0.00     0.056 A 
HETATM   25 CL   UNL     1       7.612  20.791  56.295  1.00  0.00    -0.084 Cl
BRANCH  20  26
HETATM   26  O   UNL     1       8.113  25.216  52.474  1.00  0.00    -0.354 OA
HETATM   27  C   UNL     1       6.988  25.235  51.593  1.00  0.00     0.210 C 
ENDBRANCH  20  26
ENDBRANCH   1  19
TORSDOF 6
ENDMDL
MODEL 8
REMARK VINA RESULT:      -8.3      3.874      8.206
REMARK  6 active torsions:
REMARK  status: ('A' for Active; 'I' for Inactive)
REMARK    1  A    between atoms: O_2  and  C_3 
REMARK    2  A    between atoms: C_4  and  N_5 
REMARK       I    between atoms: N_5  and  C_6 
REMARK       I    between atoms: C_6  and  N_7 
REMARK    3  A    between atoms: N_7  and  C_8 
REMARK    4  A    between atoms: C_8  and  C_9 
REMARK    5  A    between atoms: C_9  and  C_10 
REMARK    6  A    between atoms: C_10  and  N_11 
ROOT
HETATM    1  N   UNL     1       7.001  25.239  54.253  1.00  0.00    -0.306 N 
HETATM    2  C   UNL     1       5.755  25.654  53.851  1.00  0.00     0.320 C 
HETATM    3  N   UNL     1       5.737  27.027  53.691  1.00  0.00    -0.343 N 
HETATM    4  O   UNL     1       4.765  24.953  53.707  1.00  0.00    -0.247 OA
HETATM    5  H   UNL     1       7.618  25.958  54.609  1.00  0.00     0.171 HD
HETATM    6  H   UNL     1       6.590  27.407  53.302  1.00  0.00     0.164 HD
ENDROOT
BRANCH   3   7
HETATM    7  C   UNL     1       4.508  27.721  53.358  1.00  0.00     0.126 C 
BRANCH   7   8
HETATM    8  C   UNL     1       4.212  28.892  54.293  1.00  0.00     0.040 C 
BRANCH   8   9
HETATM    9  C   UNL     1       4.190  28.460  55.757  1.00  0.00     0.131 C 
BRANCH   9  10
HETATM   10  N   UNL     1       5.060  29.276  56.584  1.00  0.00    -0.341 N 
HETATM   11  C   UNL     1       6.389  29.025  56.811  1.00  0.00     0.139 A 
HETATM   12  C   UNL     1       6.863  30.016  57.668  1.00  0.00     0.011 A 
HETATM   13  N   UNL     1       7.093  28.000  56.286  1.00  0.00    -0.242 NA
HETATM   14  C   UNL     1       8.215  29.960  58.039  1.00  0.00     0.017 A 
HETATM   15  C   UNL     1       5.771  30.877  57.954  1.00  0.00     0.032 A 
HETATM   16  C   UNL     1       8.986  28.918  57.523  1.00  0.00     0.020 A 
HETATM   17  C   UNL     1       8.388  27.995  56.675  1.00  0.00     0.119 A 
HETATM   18  C   UNL     1       4.670  30.398  57.274  1.00  0.00     0.093 A 
ENDBRANCH   9  10
ENDBRANCH   8   9
ENDBRANCH   7   8
ENDBRANCH   3   7
BRANCH   1  19
HETATM   19  C   UNL     1       7.428  23.919  54.502  1.00  0.00     0.071 A 
HETATM   20  C   UNL     1       7.728  23.587  55.834  1.00  0.00     0.095 A 
HETATM   21  C   UNL     1       8.205  22.321  56.174  1.00  0.00     0.041 A 
HETATM   22  C   UNL     1       8.351  21.358  55.176  1.00  0.00     0.026 A 
HETATM   23  C   UNL     1       8.033  21.675  53.854  1.00  0.00     0.036 A 
HETATM   24  C   UNL     1       7.575  22.949  53.511  1.00  0.00     0.056 A 
HETATM   25 CL   UNL     1       8.225  20.478  52.631  1.00  0.00    -0.084 Cl
BRANCH  20  26
HETATM   26  O   UNL     1       7.575  24.549  56.806  1.00  0.00    -0.354 OA
HETATM   27  C   UNL     1       8.705  24.548  57.681  1.00  0.00     0.210 C 
ENDBRANCH  20  26
ENDBRANCH   1  19
TORSDOF 6
ENDMDL
MODEL 9
REMARK VINA RESULT:      -8.3      5.640      7.915
REMARK  6 active torsions:
REMARK  status: ('A' for Active; 'I' for Inactive)
REMARK    1  A    between atoms: O_2  and  C_3 
REMARK    2  A    between atoms: C_4  and  N_5 
REMARK       I    between atoms: N_5  and  C_6 
REMARK       I    between atoms: C_6  and  N_7 
REMARK    3  A    between atoms: N_7  and  C_8 
REMARK    4  A    between atoms: C_8  and  C_9 
REMARK    5  A    between atoms: C_9  and  C_10 
REMARK    6  A    between atoms: C_10  and  N_11 
ROOT
HETATM    1  N   UNL     1       5.638  27.977  51.643  1.00  0.00    -0.306 N 
HETATM    2  C   UNL     1       4.852  28.319  52.716  1.00  0.00     0.320 C 
HETATM    3  N   UNL     1       5.622  28.422  53.859  1.00  0.00    -0.343 N 
HETATM    4  O   UNL     1       3.639  28.460  52.715  1.00  0.00    -0.247 OA
HETATM    5  H   UNL     1       6.556  27.611  51.861  1.00  0.00     0.171 HD
HETATM    6  H   UNL     1       6.538  28.823  53.704  1.00  0.00     0.164 HD
ENDROOT
BRANCH   3   7
HETATM    7  C   UNL     1       5.011  28.685  55.148  1.00  0.00     0.126 C 
BRANCH   7   8
HETATM    8  C   UNL     1       5.377  27.646  56.206  1.00  0.00     0.040 C 
BRANCH   8   9
HETATM    9  C   UNL     1       6.857  27.276  56.151  1.00  0.00     0.131 C 
BRANCH   9  10
HETATM   10  N   UNL     1       7.061  25.865  55.877  1.00  0.00    -0.341 N 
HETATM   11  C   UNL     1       7.362  25.340  54.646  1.00  0.00     0.139 A 
HETATM   12  C   UNL     1       7.455  23.957  54.791  1.00  0.00     0.011 A 
HETATM   13  N   UNL     1       7.535  26.051  53.513  1.00  0.00    -0.242 NA
HETATM   14  C   UNL     1       7.761  23.205  53.647  1.00  0.00     0.017 A 
HETATM   15  C   UNL     1       7.198  23.663  56.157  1.00  0.00     0.032 A 
HETATM   16  C   UNL     1       7.949  23.894  52.450  1.00  0.00     0.020 A 
HETATM   17  C   UNL     1       7.828  25.277  52.444  1.00  0.00     0.119 A 
HETATM   18  C   UNL     1       6.957  24.858  56.804  1.00  0.00     0.093 A 
ENDBRANCH   9  10
ENDBRANCH   8   9
ENDBRANCH   7   8
ENDBRANCH   3   7
BRANCH   1  19
HETATM   19  C   UNL     1       5.234  27.796  50.305  1.00  0.00     0.071 A 
HETATM   20  C   UNL     1       5.522  28.837  49.406  1.00  0.00     0.095 A 
HETATM   21  C   UNL     1       5.118  28.772  48.072  1.00  0.00     0.041 A 
HETATM   22  C   UNL     1       4.448  27.637  47.618  1.00  0.00     0.026 A 
HETATM   23  C   UNL     1       4.179  26.590  48.501  1.00  0.00     0.036 A 
HETATM   24  C   UNL     1       4.565  26.663  49.842  1.00  0.00     0.056 A 
HETATM   25 CL   UNL     1       3.344  25.197  47.928  1.00  0.00    -0.084 Cl
BRANCH  20  26
HETATM   26  O   UNL     1       6.187  29.948  49.871  1.00  0.00    -0.354 OA
HETATM   27  C   UNL     1       5.363  31.108  49.731  1.00  0.00     0.210 C 
ENDBRANCH  20  26
ENDBRANCH   1  19
TORSDOF 6
ENDMDL
MODEL 10
REMARK VINA RESULT:      -8.3      2.353      3.562
REMARK  6 active torsions:
REMARK  status: ('A' for Active; 'I' for Inactive)
REMARK    1  A    between atoms: O_2  and  C_3 
REMARK    2  A    between atoms: C_4  and  N_5 
REMARK       I    between atoms: N_5  and  C_6 
REMARK       I    between atoms: C_6  and  N_7 
REMARK    3  A    between atoms: N_7  and  C_8 
REMARK    4  A    between atoms: C_8  and  C_9 
REMARK    5  A    between atoms: C_9  and  C_10 
REMARK    6  A    between atoms: C_10  and  N_11 
ROOT
HETATM    1  N   UNL     1       6.608  27.921  55.761  1.00  0.00    -0.306 N 
HETATM    2  C   UNL     1       6.645  27.777  54.395  1.00  0.00     0.320 C 
HETATM    3  N   UNL     1       5.651  26.913  53.979  1.00  0.00    -0.343 N 
HETATM    4  O   UNL     1       7.460  28.273  53.633  1.00  0.00    -0.247 OA
HETATM    5  H   UNL     1       6.076  27.226  56.269  1.00  0.00     0.171 HD
HETATM    6  H   UNL     1       4.785  27.002  54.494  1.00  0.00     0.164 HD
ENDROOT
BRANCH   3   7
HETATM    7  C   UNL     1       5.537  26.525  52.586  1.00  0.00     0.126 C 
BRANCH   7   8
HETATM    8  C   UNL     1       5.829  25.043  52.354  1.00  0.00     0.040 C 
BRANCH   8   9
HETATM    9  C   UNL     1       7.326  24.746  52.389  1.00  0.00     0.131 C 
BRANCH   9  10
HETATM   10  N   UNL     1       7.647  23.647  53.282  1.00  0.00    -0.341 N 
HETATM   11  C   UNL     1       7.905  23.775  54.622  1.00  0.00     0.139 A 
HETATM   12  C   UNL     1       8.191  22.504  55.118  1.00  0.00     0.011 A 
HETATM   13  N   UNL     1       7.880  24.931  55.318  1.00  0.00    -0.242 NA
HETATM   14  C   UNL     1       8.486  22.393  56.485  1.00  0.00     0.017 A 
HETATM   15  C   UNL     1       8.097  21.601  54.027  1.00  0.00     0.032 A 
HETATM   16  C   UNL     1       8.473  23.561  57.248  1.00  0.00     0.020 A 
HETATM   17  C   UNL     1       8.171  24.766  56.628  1.00  0.00     0.119 A 
HETATM   18  C   UNL     1       7.761  22.331  52.905  1.00  0.00     0.093 A 
ENDBRANCH   9  10
ENDBRANCH   8   9
ENDBRANCH   7   8
ENDBRANCH   3   7
BRANCH   1  19
HETATM   19  C   UNL     1       7.440  28.728  56.563  1.00  0.00     0.071 A 
HETATM   20  C   UNL     1       6.809  29.553  57.510  1.00  0.00     0.095 A 
HETATM   21  C   UNL     1       7.545  30.423  58.315  1.00  0.00     0.041 A 
HETATM   22  C   UNL     1       8.934  30.447  58.200  1.00  0.00     0.026 A 
HETATM   23  C   UNL     1       9.568  29.614  57.277  1.00  0.00     0.036 A 
HETATM   24  C   UNL     1       8.831  28.756  56.457  1.00  0.00     0.056 A 
HETATM   25 CL   UNL     1      11.285  29.659  57.141  1.00  0.00    -0.084 Cl
BRANCH  20  26
HETATM   26  O   UNL     1       5.438  29.514  57.611  1.00  0.00    -0.354 OA
HETATM   27  C   UNL     1       4.900  30.835  57.511  1.00  0.00     0.210 C 
ENDBRANCH  20  26
ENDBRANCH   1  19
TORSDOF 6
ENDMDL
