MODEL 1
REMARK VINA RESULT:     -10.3      0.000      0.000
REMARK  8 active torsions:
REMARK  status: ('A' for Active; 'I' for Inactive)
REMARK    1  A    between atoms: C_2  and  N_3 
REMARK    2  A    between atoms: C_11  and  C_12 
REMARK    3  A    between atoms: C_14  and  O_15 
REMARK    4  A    between atoms: O_15  and  C_16 
REMARK    5  A    between atoms: C_18  and  O_19 
REMARK    6  A    between atoms: O_19  and  C_20 
REMARK    7  A    between atoms: C_20  and  C_21 
REMARK    8  A    between atoms: C_31  and  O_32 
ROOT
HETATM    1  N   UNL     1       6.388  34.027  64.395  1.00  0.00    -0.067 N 
HETATM    2  H   UNL     1       6.624  34.598  65.215  1.00  0.00     0.280 HD
HETATM    3  C   UNL     1       7.612  33.141  64.143  1.00  0.00     0.281 C 
HETATM    4  C   UNL     1       7.567  32.559  62.773  1.00  0.00     0.018 A 
HETATM    5  C   UNL     1       6.812  33.057  61.724  1.00  0.00    -0.024 A 
HETATM    6  C   UNL     1       6.977  32.257  60.549  1.00  0.00     0.057 A 
HETATM    7  C   UNL     1       7.833  31.203  60.767  1.00  0.00     0.087 A 
HETATM    8  N   UNL     1       8.100  30.288  59.823  1.00  0.00    -0.357 N 
HETATM    9  C   UNL     1       7.682  30.564  58.457  1.00  0.00     0.243 C 
HETATM   10  N   UNL     1       6.669  31.611  58.243  1.00  0.00    -0.235 NA
HETATM   11  C   UNL     1       6.390  32.360  59.239  1.00  0.00     0.173 C 
HETATM   12  S   UNL     1       8.463  31.179  62.343  1.00  0.00    -0.074 SA
HETATM   13  C   UNL     1       5.921  34.253  61.897  1.00  0.00     0.068 C 
HETATM   14  C   UNL     1       6.195  34.989  63.221  1.00  0.00     0.240 C 
HETATM   15  H   UNL     1       8.845  29.605  59.926  1.00  0.00     0.162 HD
ENDROOT
BRANCH   9  16
HETATM   16  C   UNL     1       7.191  29.274  57.814  1.00  0.00    -0.012 A 
HETATM   17  C   UNL     1       5.956  29.226  57.130  1.00  0.00     0.050 A 
HETATM   18  C   UNL     1       5.544  28.068  56.466  1.00  0.00     0.103 A 
HETATM   19  C   UNL     1       6.393  26.957  56.477  1.00  0.00     0.112 A 
HETATM   20  C   UNL     1       7.624  26.984  57.135  1.00  0.00     0.041 A 
HETATM   21  C   UNL     1       8.017  28.138  57.808  1.00  0.00     0.014 A 
BRANCH  18  22
HETATM   22  O   UNL     1       4.375  27.936  55.765  1.00  0.00    -0.349 OA
BRANCH  22  23
HETATM   23  C   UNL     1       4.198  28.789  54.635  1.00  0.00     0.171 C 
HETATM   24  C   UNL     1       3.822  27.924  53.446  1.00  0.00     0.034 C 
ENDBRANCH  22  23
ENDBRANCH  18  22
BRANCH  19  25
HETATM   25  O   UNL     1       6.049  25.843  55.693  1.00  0.00    -0.272 OA
BRANCH  25  26
HETATM   26  C   UNL     1       6.769  25.667  54.529  1.00  0.00     0.298 C 
HETATM   27  O   UNL     1       6.988  26.500  53.662  1.00  0.00    -0.259 OA
BRANCH  26  28
HETATM   28  C   UNL     1       7.202  24.244  54.433  1.00  0.00     0.039 A 
HETATM   29  C   UNL     1       7.508  23.731  53.166  1.00  0.00     0.017 A 
HETATM   30  C   UNL     1       7.884  22.393  53.019  1.00  0.00     0.001 A 
HETATM   31  C   UNL     1       7.960  21.564  54.137  1.00  0.00     0.000 A 
HETATM   32  C   UNL     1       7.668  22.069  55.404  1.00  0.00     0.001 A 
HETATM   33  C   UNL     1       7.292  23.407  55.554  1.00  0.00     0.017 A 
ENDBRANCH  26  28
ENDBRANCH  25  26
ENDBRANCH  19  25
ENDBRANCH   9  16
BRANCH  11  34
HETATM   34  O   UNL     1       5.472  33.327  59.067  1.00  0.00    -0.344 OA
HETATM   35  H   UNL     1       5.842  33.941  58.408  1.00  0.00     0.219 HD
ENDBRANCH  11  34
BRANCH   1  36
HETATM   36  C   UNL     1       5.174  33.204  64.772  1.00  0.00     0.231 C 
HETATM   37  C   UNL     1       4.294  33.950  65.757  1.00  0.00     0.034 C 
ENDBRANCH   1  36
TORSDOF 8
ENDMDL
MODEL 2
REMARK VINA RESULT:      -9.4      1.016      2.198
REMARK  8 active torsions:
REMARK  status: ('A' for Active; 'I' for Inactive)
REMARK    1  A    between atoms: C_2  and  N_3 
REMARK    2  A    between atoms: C_11  and  C_12 
REMARK    3  A    between atoms: C_14  and  O_15 
REMARK    4  A    between atoms: O_15  and  C_16 
REMARK    5  A    between atoms: C_18  and  O_19 
REMARK    6  A    between atoms: O_19  and  C_20 
REMARK    7  A    between atoms: C_20  and  C_21 
REMARK    8  A    between atoms: C_31  and  O_32 
ROOT
HETATM    1  N   UNL     1       6.261  33.926  64.569  1.00  0.00    -0.067 N 
HETATM    2  H   UNL     1       6.496  34.425  65.435  1.00  0.00     0.280 HD
HETATM    3  C   UNL     1       7.467  33.032  64.267  1.00  0.00     0.281 C 
HETATM    4  C   UNL     1       7.431  32.561  62.855  1.00  0.00     0.018 A 
HETATM    5  C   UNL     1       6.707  33.158  61.837  1.00  0.00    -0.024 A 
HETATM    6  C   UNL     1       6.873  32.447  60.605  1.00  0.00     0.057 A 
HETATM    7  C   UNL     1       7.699  31.359  60.754  1.00  0.00     0.087 A 
HETATM    8  N   UNL     1       7.961  30.514  59.744  1.00  0.00    -0.357 N 
HETATM    9  C   UNL     1       7.573  30.907  58.398  1.00  0.00     0.243 C 
HETATM   10  N   UNL     1       6.589  31.992  58.252  1.00  0.00    -0.235 NA
HETATM   11  C   UNL     1       6.311  32.668  59.299  1.00  0.00     0.173 C 
HETATM   12  S   UNL     1       8.302  31.196  62.332  1.00  0.00    -0.074 SA
HETATM   13  C   UNL     1       5.842  34.359  62.089  1.00  0.00     0.068 C 
HETATM   14  C   UNL     1       6.110  34.982  63.472  1.00  0.00     0.240 C 
HETATM   15  H   UNL     1       8.687  29.806  59.805  1.00  0.00     0.162 HD
ENDROOT
BRANCH   9  16
HETATM   16  C   UNL     1       7.062  29.683  57.649  1.00  0.00    -0.012 A 
HETATM   17  C   UNL     1       7.883  28.551  57.457  1.00  0.00     0.050 A 
HETATM   18  C   UNL     1       7.389  27.395  56.848  1.00  0.00     0.103 A 
HETATM   19  C   UNL     1       6.049  27.376  56.445  1.00  0.00     0.112 A 
HETATM   20  C   UNL     1       5.213  28.478  56.636  1.00  0.00     0.041 A 
HETATM   21  C   UNL     1       5.722  29.631  57.229  1.00  0.00     0.014 A 
BRANCH  18  22
HETATM   22  O   UNL     1       8.106  26.248  56.637  1.00  0.00    -0.349 OA
BRANCH  22  23
HETATM   23  C   UNL     1       8.344  25.415  57.770  1.00  0.00     0.171 C 
HETATM   24  C   UNL     1       9.090  24.180  57.299  1.00  0.00     0.034 C 
ENDBRANCH  22  23
ENDBRANCH  18  22
BRANCH  19  25
HETATM   25  O   UNL     1       5.511  26.171  55.965  1.00  0.00    -0.272 OA
BRANCH  25  26
HETATM   26  C   UNL     1       5.379  26.062  54.595  1.00  0.00     0.298 C 
HETATM   27  O   UNL     1       4.566  26.633  53.883  1.00  0.00    -0.259 OA
BRANCH  26  28
HETATM   28  C   UNL     1       6.357  25.058  54.088  1.00  0.00     0.039 A 
HETATM   29  C   UNL     1       7.083  25.368  52.931  1.00  0.00     0.017 A 
HETATM   30  C   UNL     1       7.984  24.445  52.396  1.00  0.00     0.001 A 
HETATM   31  C   UNL     1       8.168  23.211  53.017  1.00  0.00     0.000 A 
HETATM   32  C   UNL     1       7.458  22.897  54.175  1.00  0.00     0.001 A 
HETATM   33  C   UNL     1       6.555  23.818  54.713  1.00  0.00     0.017 A 
ENDBRANCH  26  28
ENDBRANCH  25  26
ENDBRANCH  19  25
ENDBRANCH   9  16
BRANCH  11  34
HETATM   34  O   UNL     1       5.419  33.667  59.190  1.00  0.00    -0.344 OA
HETATM   35  H   UNL     1       5.113  33.661  58.265  1.00  0.00     0.219 HD
ENDBRANCH  11  34
BRANCH   1  36
HETATM   36  C   UNL     1       5.021  33.107  64.862  1.00  0.00     0.231 C 
HETATM   37  C   UNL     1       3.826  34.003  65.131  1.00  0.00     0.034 C 
ENDBRANCH   1  36
TORSDOF 8
ENDMDL
MODEL 3
REMARK VINA RESULT:      -9.4      1.636      2.354
REMARK  8 active torsions:
REMARK  status: ('A' for Active; 'I' for Inactive)
REMARK    1  A    between atoms: C_2  and  N_3 
REMARK    2  A    between atoms: C_11  and  C_12 
REMARK    3  A    between atoms: C_14  and  O_15 
REMARK    4  A    between atoms: O_15  and  C_16 
REMARK    5  A    between atoms: C_18  and  O_19 
REMARK    6  A    between atoms: O_19  and  C_20 
REMARK    7  A    between atoms: C_20  and  C_21 
REMARK    8  A    between atoms: C_31  and  O_32 
ROOT
HETATM    1  N   UNL     1       5.970  33.736  62.394  1.00  0.00    -0.067 N 
HETATM    2  H   UNL     1       6.243  34.485  63.041  1.00  0.00     0.280 HD
HETATM    3  C   UNL     1       7.246  33.365  61.632  1.00  0.00     0.281 C 
HETATM    4  C   UNL     1       6.918  32.586  60.406  1.00  0.00     0.018 A 
HETATM    5  C   UNL     1       5.680  32.565  59.787  1.00  0.00    -0.024 A 
HETATM    6  C   UNL     1       5.693  31.703  58.644  1.00  0.00     0.057 A 
HETATM    7  C   UNL     1       6.924  31.118  58.463  1.00  0.00     0.087 A 
HETATM    8  N   UNL     1       7.160  30.231  57.483  1.00  0.00    -0.357 N 
HETATM    9  C   UNL     1       6.165  30.086  56.431  1.00  0.00     0.243 C 
HETATM   10  N   UNL     1       4.811  30.605  56.684  1.00  0.00    -0.235 NA
HETATM   11  C   UNL     1       4.657  31.346  57.713  1.00  0.00     0.173 C 
HETATM   12  S   UNL     1       8.067  31.610  59.617  1.00  0.00    -0.074 SA
HETATM   13  C   UNL     1       4.513  33.333  60.338  1.00  0.00     0.068 C 
HETATM   14  C   UNL     1       4.944  34.332  61.428  1.00  0.00     0.240 C 
HETATM   15  H   UNL     1       8.097  29.919  57.250  1.00  0.00     0.162 HD
ENDROOT
BRANCH   9  16
HETATM   16  C   UNL     1       6.059  28.617  56.044  1.00  0.00    -0.012 A 
HETATM   17  C   UNL     1       5.395  28.222  54.863  1.00  0.00     0.050 A 
HETATM   18  C   UNL     1       5.371  26.883  54.461  1.00  0.00     0.103 A 
HETATM   19  C   UNL     1       6.038  25.940  55.250  1.00  0.00     0.112 A 
HETATM   20  C   UNL     1       6.713  26.308  56.416  1.00  0.00     0.041 A 
HETATM   21  C   UNL     1       6.715  27.643  56.815  1.00  0.00     0.014 A 
BRANCH  18  22
HETATM   22  O   UNL     1       4.768  26.412  53.326  1.00  0.00    -0.349 OA
BRANCH  22  23
HETATM   23  C   UNL     1       5.095  27.065  52.100  1.00  0.00     0.171 C 
HETATM   24  C   UNL     1       5.208  26.007  51.018  1.00  0.00     0.034 C 
ENDBRANCH  22  23
ENDBRANCH  18  22
BRANCH  19  25
HETATM   25  O   UNL     1       6.138  24.622  54.777  1.00  0.00    -0.272 OA
BRANCH  25  26
HETATM   26  C   UNL     1       7.249  24.327  54.012  1.00  0.00     0.298 C 
HETATM   27  O   UNL     1       7.869  25.089  53.286  1.00  0.00    -0.259 OA
BRANCH  26  28
HETATM   28  C   UNL     1       7.561  22.876  54.142  1.00  0.00     0.039 A 
HETATM   29  C   UNL     1       7.536  22.307  55.422  1.00  0.00     0.017 A 
HETATM   30  C   UNL     1       7.857  20.959  55.601  1.00  0.00     0.001 A 
HETATM   31  C   UNL     1       8.200  20.173  54.501  1.00  0.00     0.000 A 
HETATM   32  C   UNL     1       8.217  20.728  53.223  1.00  0.00     0.001 A 
HETATM   33  C   UNL     1       7.897  22.076  53.040  1.00  0.00     0.017 A 
ENDBRANCH  26  28
ENDBRANCH  25  26
ENDBRANCH  19  25
ENDBRANCH   9  16
BRANCH  11  34
HETATM   34  O   UNL     1       3.430  31.835  57.962  1.00  0.00    -0.344 OA
HETATM   35  H   UNL     1       2.838  31.065  58.036  1.00  0.00     0.219 HD
ENDBRANCH  11  34
BRANCH   1  36
HETATM   36  C   UNL     1       5.475  32.585  63.244  1.00  0.00     0.231 C 
HETATM   37  C   UNL     1       4.877  33.085  64.545  1.00  0.00     0.034 C 
ENDBRANCH   1  36
TORSDOF 8
ENDMDL
MODEL 4
REMARK VINA RESULT:      -9.3      2.923     10.309
REMARK  8 active torsions:
REMARK  status: ('A' for Active; 'I' for Inactive)
REMARK    1  A    between atoms: C_2  and  N_3 
REMARK    2  A    between atoms: C_11  and  C_12 
REMARK    3  A    between atoms: C_14  and  O_15 
REMARK    4  A    between atoms: O_15  and  C_16 
REMARK    5  A    between atoms: C_18  and  O_19 
REMARK    6  A    between atoms: O_19  and  C_20 
REMARK    7  A    between atoms: C_20  and  C_21 
REMARK    8  A    between atoms: C_31  and  O_32 
ROOT
HETATM    1  N   UNL     1       7.802  22.970  54.110  1.00  0.00    -0.067 N 
HETATM    2  H   UNL     1       7.597  22.047  53.710  1.00  0.00     0.280 HD
HETATM    3  C   UNL     1       6.665  23.253  55.097  1.00  0.00     0.281 C 
HETATM    4  C   UNL     1       6.621  24.700  55.446  1.00  0.00     0.018 A 
HETATM    5  C   UNL     1       7.191  25.715  54.697  1.00  0.00    -0.024 A 
HETATM    6  C   UNL     1       6.985  26.988  55.319  1.00  0.00     0.057 A 
HETATM    7  C   UNL     1       6.284  26.872  56.495  1.00  0.00     0.087 A 
HETATM    8  N   UNL     1       6.016  27.928  57.279  1.00  0.00    -0.357 N 
HETATM    9  C   UNL     1       6.243  29.261  56.740  1.00  0.00     0.243 C 
HETATM   10  N   UNL     1       7.102  29.388  55.550  1.00  0.00    -0.235 NA
HETATM   11  C   UNL     1       7.405  28.310  54.936  1.00  0.00     0.173 C 
HETATM   12  S   UNL     1       5.842  25.271  56.847  1.00  0.00    -0.074 SA
HETATM   13  C   UNL     1       7.955  25.426  53.437  1.00  0.00     0.068 C 
HETATM   14  C   UNL     1       7.752  23.977  52.959  1.00  0.00     0.240 C 
HETATM   15  H   UNL     1       5.370  27.873  58.060  1.00  0.00     0.162 HD
ENDROOT
BRANCH   9  16
HETATM   16  C   UNL     1       6.802  30.155  57.839  1.00  0.00    -0.012 A 
HETATM   17  C   UNL     1       6.076  31.271  58.308  1.00  0.00     0.050 A 
HETATM   18  C   UNL     1       6.545  32.041  59.375  1.00  0.00     0.103 A 
HETATM   19  C   UNL     1       7.748  31.669  59.986  1.00  0.00     0.112 A 
HETATM   20  C   UNL     1       8.477  30.562  59.548  1.00  0.00     0.041 A 
HETATM   21  C   UNL     1       8.008  29.812  58.473  1.00  0.00     0.014 A 
BRANCH  18  22
HETATM   22  O   UNL     1       5.902  33.127  59.906  1.00  0.00    -0.349 OA
BRANCH  22  23
HETATM   23  C   UNL     1       4.609  33.431  59.388  1.00  0.00     0.171 C 
HETATM   24  C   UNL     1       3.575  32.985  60.406  1.00  0.00     0.034 C 
ENDBRANCH  22  23
ENDBRANCH  18  22
BRANCH  19  25
HETATM   25  O   UNL     1       8.150  32.352  61.145  1.00  0.00    -0.272 OA
BRANCH  25  26
HETATM   26  C   UNL     1       8.074  31.646  62.329  1.00  0.00     0.298 C 
HETATM   27  O   UNL     1       8.575  30.558  62.575  1.00  0.00    -0.259 OA
BRANCH  26  28
HETATM   28  C   UNL     1       7.203  32.386  63.285  1.00  0.00     0.039 A 
HETATM   29  C   UNL     1       7.819  33.149  64.285  1.00  0.00     0.017 A 
HETATM   30  C   UNL     1       7.046  33.832  65.228  1.00  0.00     0.001 A 
HETATM   31  C   UNL     1       5.655  33.759  65.172  1.00  0.00     0.000 A 
HETATM   32  C   UNL     1       5.033  33.011  64.173  1.00  0.00     0.001 A 
HETATM   33  C   UNL     1       5.803  32.326  63.229  1.00  0.00     0.017 A 
ENDBRANCH  26  28
ENDBRANCH  25  26
ENDBRANCH  19  25
ENDBRANCH   9  16
BRANCH  11  34
HETATM   34  O   UNL     1       8.183  28.401  53.844  1.00  0.00    -0.344 OA
HETATM   35  H   UNL     1       7.698  27.958  53.125  1.00  0.00     0.219 HD
ENDBRANCH  11  34
BRANCH   1  36
HETATM   36  C   UNL     1       9.136  22.852  54.817  1.00  0.00     0.231 C 
HETATM   37  C   UNL     1       9.423  21.413  55.203  1.00  0.00     0.034 C 
ENDBRANCH   1  36
TORSDOF 8
ENDMDL
MODEL 5
REMARK VINA RESULT:      -8.9      2.424      3.095
REMARK  8 active torsions:
REMARK  status: ('A' for Active; 'I' for Inactive)
REMARK    1  A    between atoms: C_2  and  N_3 
REMARK    2  A    between atoms: C_11  and  C_12 
REMARK    3  A    between atoms: C_14  and  O_15 
REMARK    4  A    between atoms: O_15  and  C_16 
REMARK    5  A    between atoms: C_18  and  O_19 
REMARK    6  A    between atoms: O_19  and  C_20 
REMARK    7  A    between atoms: C_20  and  C_21 
REMARK    8  A    between atoms: C_31  and  O_32 
ROOT
HETATM    1  N   UNL     1       3.547  34.793  60.476  1.00  0.00    -0.067 N 
HETATM    2  H   UNL     1       3.473  35.698  60.956  1.00  0.00     0.280 HD
HETATM    3  C   UNL     1       4.983  34.316  60.716  1.00  0.00     0.281 C 
HETATM    4  C   UNL     1       5.341  33.230  59.763  1.00  0.00     0.018 A 
HETATM    5  C   UNL     1       4.690  32.976  58.567  1.00  0.00    -0.024 A 
HETATM    6  C   UNL     1       5.269  31.852  57.897  1.00  0.00     0.057 A 
HETATM    7  C   UNL     1       6.312  31.314  58.614  1.00  0.00     0.087 A 
HETATM    8  N   UNL     1       6.975  30.221  58.206  1.00  0.00    -0.357 N 
HETATM    9  C   UNL     1       6.758  29.751  56.846  1.00  0.00     0.243 C 
HETATM   10  N   UNL     1       5.567  30.235  56.129  1.00  0.00    -0.235 NA
HETATM   11  C   UNL     1       4.926  31.205  56.658  1.00  0.00     0.173 C 
HETATM   12  S   UNL     1       6.626  32.154  60.055  1.00  0.00    -0.074 SA
HETATM   13  C   UNL     1       3.505  33.789  58.131  1.00  0.00     0.068 C 
HETATM   14  C   UNL     1       3.331  35.058  58.985  1.00  0.00     0.240 C 
HETATM   15  H   UNL     1       7.838  29.915  58.646  1.00  0.00     0.162 HD
ENDROOT
BRANCH   9  16
HETATM   16  C   UNL     1       6.742  28.228  56.841  1.00  0.00    -0.012 A 
HETATM   17  C   UNL     1       6.095  27.510  55.811  1.00  0.00     0.050 A 
HETATM   18  C   UNL     1       6.153  26.115  55.757  1.00  0.00     0.103 A 
HETATM   19  C   UNL     1       6.886  25.441  56.740  1.00  0.00     0.112 A 
HETATM   20  C   UNL     1       7.546  26.130  57.760  1.00  0.00     0.041 A 
HETATM   21  C   UNL     1       7.466  27.519  57.813  1.00  0.00     0.014 A 
BRANCH  18  22
HETATM   22  O   UNL     1       5.572  25.340  54.790  1.00  0.00    -0.349 OA
BRANCH  22  23
HETATM   23  C   UNL     1       5.224  25.984  53.566  1.00  0.00     0.171 C 
HETATM   24  C   UNL     1       4.988  24.910  52.519  1.00  0.00     0.034 C 
ENDBRANCH  22  23
ENDBRANCH  18  22
BRANCH  19  25
HETATM   25  O   UNL     1       7.066  24.055  56.608  1.00  0.00    -0.272 OA
BRANCH  25  26
HETATM   26  C   UNL     1       8.332  23.632  56.255  1.00  0.00     0.298 C 
HETATM   27  O   UNL     1       9.397  24.054  56.679  1.00  0.00    -0.259 OA
BRANCH  26  28
HETATM   28  C   UNL     1       8.221  22.596  55.190  1.00  0.00     0.039 A 
HETATM   29  C   UNL     1       8.086  23.025  53.862  1.00  0.00     0.017 A 
HETATM   30  C   UNL     1       7.942  22.093  52.832  1.00  0.00     0.001 A 
HETATM   31  C   UNL     1       7.937  20.729  53.121  1.00  0.00     0.000 A 
HETATM   32  C   UNL     1       8.081  20.293  54.438  1.00  0.00     0.001 A 
HETATM   33  C   UNL     1       8.225  21.222  55.471  1.00  0.00     0.017 A 
ENDBRANCH  26  28
ENDBRANCH  25  26
ENDBRANCH  19  25
ENDBRANCH   9  16
BRANCH  11  34
HETATM   34  O   UNL     1       3.838  31.668  56.020  1.00  0.00    -0.344 OA
HETATM   35  H   UNL     1       3.299  32.123  56.693  1.00  0.00     0.219 HD
ENDBRANCH  11  34
BRANCH   1  36
HETATM   36  C   UNL     1       2.538  33.872  61.129  1.00  0.00     0.231 C 
HETATM   37  C   UNL     1       1.788  34.583  62.239  1.00  0.00     0.034 C 
ENDBRANCH   1  36
TORSDOF 8
ENDMDL
MODEL 6
REMARK VINA RESULT:      -8.8      2.048      3.247
REMARK  8 active torsions:
REMARK  status: ('A' for Active; 'I' for Inactive)
REMARK    1  A    between atoms: C_2  and  N_3 
REMARK    2  A    between atoms: C_11  and  C_12 
REMARK    3  A    between atoms: C_14  and  O_15 
REMARK    4  A    between atoms: O_15  and  C_16 
REMARK    5  A    between atoms: C_18  and  O_19 
REMARK    6  A    between atoms: O_19  and  C_20 
REMARK    7  A    between atoms: C_20  and  C_21 
REMARK    8  A    between atoms: C_31  and  O_32 
ROOT
HETATM    1  N   UNL     1       7.499  32.982  62.201  1.00  0.00    -0.067 N 
HETATM    2  H   UNL     1       7.825  33.737  62.815  1.00  0.00     0.280 HD
HETATM    3  C   UNL     1       8.568  32.844  61.113  1.00  0.00     0.281 C 
HETATM    4  C   UNL     1       8.040  32.073  59.953  1.00  0.00     0.018 A 
HETATM    5  C   UNL     1       6.698  31.885  59.670  1.00  0.00    -0.024 A 
HETATM    6  C   UNL     1       6.530  31.081  58.497  1.00  0.00     0.057 A 
HETATM    7  C   UNL     1       7.738  30.702  57.963  1.00  0.00     0.087 A 
HETATM    8  N   UNL     1       7.829  29.902  56.889  1.00  0.00    -0.357 N 
HETATM    9  C   UNL     1       6.623  29.646  56.116  1.00  0.00     0.243 C 
HETATM   10  N   UNL     1       5.325  29.938  56.746  1.00  0.00    -0.235 NA
HETATM   11  C   UNL     1       5.345  30.604  57.835  1.00  0.00     0.173 C 
HETATM   12  S   UNL     1       9.065  31.318  58.824  1.00  0.00    -0.074 SA
HETATM   13  C   UNL     1       5.623  32.439  60.559  1.00  0.00     0.068 C 
HETATM   14  C   UNL     1       6.182  33.449  61.578  1.00  0.00     0.240 C 
HETATM   15  H   UNL     1       8.707  29.748  56.401  1.00  0.00     0.162 HD
ENDROOT
BRANCH   9  16
HETATM   16  C   UNL     1       6.624  28.195  55.655  1.00  0.00    -0.012 A 
HETATM   17  C   UNL     1       6.915  27.146  56.555  1.00  0.00     0.050 A 
HETATM   18  C   UNL     1       6.832  25.809  56.156  1.00  0.00     0.103 A 
HETATM   19  C   UNL     1       6.433  25.529  54.845  1.00  0.00     0.112 A 
HETATM   20  C   UNL     1       6.127  26.549  53.941  1.00  0.00     0.041 A 
HETATM   21  C   UNL     1       6.231  27.878  54.345  1.00  0.00     0.014 A 
BRANCH  18  22
HETATM   22  O   UNL     1       7.078  24.730  56.962  1.00  0.00    -0.349 OA
BRANCH  22  23
HETATM   23  C   UNL     1       8.305  24.732  57.690  1.00  0.00     0.171 C 
HETATM   24  C   UNL     1       9.433  24.448  56.714  1.00  0.00     0.034 C 
ENDBRANCH  22  23
ENDBRANCH  18  22
BRANCH  19  25
HETATM   25  O   UNL     1       6.209  24.191  54.483  1.00  0.00    -0.272 OA
BRANCH  25  26
HETATM   26  C   UNL     1       7.010  23.685  53.479  1.00  0.00     0.298 C 
HETATM   27  O   UNL     1       7.191  24.161  52.368  1.00  0.00    -0.259 OA
BRANCH  26  28
HETATM   28  C   UNL     1       7.593  22.388  53.925  1.00  0.00     0.039 A 
HETATM   29  C   UNL     1       8.282  21.615  52.981  1.00  0.00     0.017 A 
HETATM   30  C   UNL     1       8.814  20.374  53.341  1.00  0.00     0.001 A 
HETATM   31  C   UNL     1       8.666  19.904  54.645  1.00  0.00     0.000 A 
HETATM   32  C   UNL     1       7.992  20.672  55.593  1.00  0.00     0.001 A 
HETATM   33  C   UNL     1       7.456  21.913  55.237  1.00  0.00     0.017 A 
ENDBRANCH  26  28
ENDBRANCH  25  26
ENDBRANCH  19  25
ENDBRANCH   9  16
BRANCH  11  34
HETATM   34  O   UNL     1       4.171  30.888  58.426  1.00  0.00    -0.344 OA
HETATM   35  H   UNL     1       3.587  30.129  58.250  1.00  0.00     0.219 HD
ENDBRANCH  11  34
BRANCH   1  36
HETATM   36  C   UNL     1       7.410  31.735  63.056  1.00  0.00     0.231 C 
HETATM   37  C   UNL     1       8.541  30.774  62.738  1.00  0.00     0.034 C 
ENDBRANCH   1  36
TORSDOF 8
ENDMDL
MODEL 7
REMARK VINA RESULT:      -8.7      6.441     10.174
REMARK  8 active torsions:
REMARK  status: ('A' for Active; 'I' for Inactive)
REMARK    1  A    between atoms: C_2  and  N_3 
REMARK    2  A    between atoms: C_11  and  C_12 
REMARK    3  A    between atoms: C_14  and  O_15 
REMARK    4  A    between atoms: O_15  and  C_16 
REMARK    5  A    between atoms: C_18  and  O_19 
REMARK    6  A    between atoms: O_19  and  C_20 
REMARK    7  A    between atoms: C_20  and  C_21 
REMARK    8  A    between atoms: C_31  and  O_32 
ROOT
HETATM    1  N   UNL     1       5.140  33.159  46.045  1.00  0.00    -0.067 N 
HETATM    2  H   UNL     1       4.808  33.670  45.218  1.00  0.00     0.280 HD
HETATM    3  C   UNL     1       4.559  31.748  45.919  1.00  0.00     0.281 C 
HETATM    4  C   UNL     1       4.628  31.033  47.223  1.00  0.00     0.018 A 
HETATM    5  C   UNL     1       4.767  31.644  48.457  1.00  0.00    -0.024 A 
HETATM    6  C   UNL     1       4.820  30.673  49.507  1.00  0.00     0.057 A 
HETATM    7  C   UNL     1       4.727  29.391  49.020  1.00  0.00     0.087 A 
HETATM    8  N   UNL     1       4.805  28.313  49.815  1.00  0.00    -0.357 N 
HETATM    9  C   UNL     1       4.721  28.511  51.255  1.00  0.00     0.243 C 
HETATM   10  N   UNL     1       4.948  29.868  51.780  1.00  0.00    -0.235 NA
HETATM   11  C   UNL     1       4.979  30.821  50.930  1.00  0.00     0.173 C 
HETATM   12  S   UNL     1       4.544  29.337  47.333  1.00  0.00    -0.074 SA
HETATM   13  C   UNL     1       4.893  33.135  48.585  1.00  0.00     0.068 C 
HETATM   14  C   UNL     1       4.545  33.857  47.270  1.00  0.00     0.240 C 
HETATM   15  H   UNL     1       4.581  27.379  49.485  1.00  0.00     0.162 HD
ENDROOT
BRANCH   9  16
HETATM   16  C   UNL     1       5.684  27.555  51.946  1.00  0.00    -0.012 A 
HETATM   17  C   UNL     1       6.399  27.949  53.098  1.00  0.00     0.050 A 
HETATM   18  C   UNL     1       7.216  27.047  53.785  1.00  0.00     0.103 A 
HETATM   19  C   UNL     1       7.295  25.732  53.316  1.00  0.00     0.112 A 
HETATM   20  C   UNL     1       6.587  25.314  52.187  1.00  0.00     0.041 A 
HETATM   21  C   UNL     1       5.790  26.227  51.501  1.00  0.00     0.014 A 
BRANCH  18  22
HETATM   22  O   UNL     1       7.931  27.336  54.916  1.00  0.00    -0.349 OA
BRANCH  22  23
HETATM   23  C   UNL     1       7.188  27.555  56.114  1.00  0.00     0.171 C 
HETATM   24  C   UNL     1       7.946  26.917  57.263  1.00  0.00     0.034 C 
ENDBRANCH  22  23
ENDBRANCH  18  22
BRANCH  19  25
HETATM   25  O   UNL     1       7.998  24.788  54.083  1.00  0.00    -0.272 OA
BRANCH  25  26
HETATM   26  C   UNL     1       7.235  23.896  54.809  1.00  0.00     0.298 C 
HETATM   27  O   UNL     1       6.349  24.162  55.608  1.00  0.00    -0.259 OA
BRANCH  26  28
HETATM   28  C   UNL     1       7.704  22.510  54.528  1.00  0.00     0.039 A 
HETATM   29  C   UNL     1       7.980  21.673  55.617  1.00  0.00     0.017 A 
HETATM   30  C   UNL     1       8.457  20.377  55.407  1.00  0.00     0.001 A 
HETATM   31  C   UNL     1       8.655  19.910  54.108  1.00  0.00     0.000 A 
HETATM   32  C   UNL     1       8.373  20.732  53.018  1.00  0.00     0.001 A 
HETATM   33  C   UNL     1       7.896  22.030  53.225  1.00  0.00     0.017 A 
ENDBRANCH  26  28
ENDBRANCH  25  26
ENDBRANCH  19  25
ENDBRANCH   9  16
BRANCH  11  34
HETATM   34  O   UNL     1       5.180  32.069  51.386  1.00  0.00    -0.344 OA
HETATM   35  H   UNL     1       4.939  32.668  50.656  1.00  0.00     0.219 HD
ENDBRANCH  11  34
BRANCH   1  36
HETATM   36  C   UNL     1       6.653  33.147  45.971  1.00  0.00     0.231 C 
HETATM   37  C   UNL     1       7.155  34.121  44.923  1.00  0.00     0.034 C 
ENDBRANCH   1  36
TORSDOF 8
ENDMDL
MODEL 8
REMARK VINA RESULT:      -8.7      2.807      3.878
REMARK  8 active torsions:
REMARK  status: ('A' for Active; 'I' for Inactive)
REMARK    1  A    between atoms: C_2  and  N_3 
REMARK    2  A    between atoms: C_11  and  C_12 
REMARK    3  A    between atoms: C_14  and  O_15 
REMARK    4  A    between atoms: O_15  and  C_16 
REMARK    5  A    between atoms: C_18  and  O_19 
REMARK    6  A    between atoms: O_19  and  C_20 
REMARK    7  A    between atoms: C_20  and  C_21 
REMARK    8  A    between atoms: C_31  and  O_32 
ROOT
HETATM    1  N   UNL     1       3.909  36.551  61.712  1.00  0.00    -0.067 N 
HETATM    2  H   UNL     1       3.633  37.490  62.023  1.00  0.00     0.280 HD
HETATM    3  C   UNL     1       3.852  36.590  60.182  1.00  0.00     0.281 C 
HETATM    4  C   UNL     1       3.841  35.210  59.622  1.00  0.00     0.018 A 
HETATM    5  C   UNL     1       3.488  34.071  60.325  1.00  0.00    -0.024 A 
HETATM    6  C   UNL     1       3.602  32.905  59.503  1.00  0.00     0.057 A 
HETATM    7  C   UNL     1       4.037  33.217  58.237  1.00  0.00     0.087 A 
HETATM    8  N   UNL     1       4.267  32.278  57.305  1.00  0.00    -0.357 N 
HETATM    9  C   UNL     1       3.794  30.925  57.558  1.00  0.00     0.243 C 
HETATM   10  N   UNL     1       3.449  30.562  58.943  1.00  0.00    -0.235 NA
HETATM   11  C   UNL     1       3.372  31.514  59.790  1.00  0.00     0.173 C 
HETATM   12  S   UNL     1       4.278  34.882  58.010  1.00  0.00    -0.074 SA
HETATM   13  C   UNL     1       3.100  34.132  61.774  1.00  0.00     0.068 C 
HETATM   14  C   UNL     1       2.856  35.578  62.245  1.00  0.00     0.240 C 
HETATM   15  H   UNL     1       4.435  32.511  56.331  1.00  0.00     0.162 HD
ENDROOT
BRANCH   9  16
HETATM   16  C   UNL     1       4.822  29.931  57.036  1.00  0.00    -0.012 A 
HETATM   17  C   UNL     1       6.065  29.761  57.684  1.00  0.00     0.050 A 
HETATM   18  C   UNL     1       6.974  28.789  57.260  1.00  0.00     0.103 A 
HETATM   19  C   UNL     1       6.617  27.969  56.184  1.00  0.00     0.112 A 
HETATM   20  C   UNL     1       5.388  28.108  55.535  1.00  0.00     0.041 A 
HETATM   21  C   UNL     1       4.498  29.093  55.956  1.00  0.00     0.014 A 
BRANCH  18  22
HETATM   22  O   UNL     1       8.190  28.542  57.837  1.00  0.00    -0.349 OA
BRANCH  22  23
HETATM   23  C   UNL     1       9.127  29.619  57.860  1.00  0.00     0.171 C 
HETATM   24  C   UNL     1      10.003  29.508  56.626  1.00  0.00     0.034 C 
ENDBRANCH  22  23
ENDBRANCH  18  22
BRANCH  19  25
HETATM   25  O   UNL     1       7.463  26.900  55.847  1.00  0.00    -0.272 OA
BRANCH  25  26
HETATM   26  C   UNL     1       6.980  25.632  56.102  1.00  0.00     0.298 C 
HETATM   27  O   UNL     1       6.444  25.238  57.128  1.00  0.00    -0.259 OA
BRANCH  26  28
HETATM   28  C   UNL     1       7.276  24.752  54.937  1.00  0.00     0.039 A 
HETATM   29  C   UNL     1       7.266  23.365  55.137  1.00  0.00     0.017 A 
HETATM   30  C   UNL     1       7.574  22.499  54.084  1.00  0.00     0.001 A 
HETATM   31  C   UNL     1       7.888  23.014  52.828  1.00  0.00     0.000 A 
HETATM   32  C   UNL     1       7.890  24.392  52.617  1.00  0.00     0.001 A 
HETATM   33  C   UNL     1       7.583  25.262  53.667  1.00  0.00     0.017 A 
ENDBRANCH  26  28
ENDBRANCH  25  26
ENDBRANCH  19  25
ENDBRANCH   9  16
BRANCH  11  34
HETATM   34  O   UNL     1       3.054  31.207  61.060  1.00  0.00    -0.344 OA
HETATM   35  H   UNL     1       2.735  32.032  61.468  1.00  0.00     0.219 HD
ENDBRANCH  11  34
BRANCH   1  36
HETATM   36  C   UNL     1       5.320  36.325  62.212  1.00  0.00     0.231 C 
HETATM   37  C   UNL     1       5.367  36.313  63.728  1.00  0.00     0.034 C 
ENDBRANCH   1  36
TORSDOF 8
ENDMDL
MODEL 9
REMARK VINA RESULT:      -8.3      3.935      5.477
REMARK  8 active torsions:
REMARK  status: ('A' for Active; 'I' for Inactive)
REMARK    1  A    between atoms: C_2  and  N_3 
REMARK    2  A    between atoms: C_11  and  C_12 
REMARK    3  A    between atoms: C_14  and  O_15 
REMARK    4  A    between atoms: O_15  and  C_16 
REMARK    5  A    between atoms: C_18  and  O_19 
REMARK    6  A    between atoms: O_19  and  C_20 
REMARK    7  A    between atoms: C_20  and  C_21 
REMARK    8  A    between atoms: C_31  and  O_32 
ROOT
HETATM    1  N   UNL     1       3.535  35.681  54.877  1.00  0.00    -0.067 N 
HETATM    2  H   UNL     1       2.956  36.506  54.679  1.00  0.00     0.280 HD
HETATM    3  C   UNL     1       2.582  34.484  54.812  1.00  0.00     0.281 C 
HETATM    4  C   UNL     1       3.195  33.290  55.458  1.00  0.00     0.018 A 
HETATM    5  C   UNL     1       4.242  33.327  56.363  1.00  0.00    -0.024 A 
HETATM    6  C   UNL     1       4.607  32.007  56.779  1.00  0.00     0.057 A 
HETATM    7  C   UNL     1       3.831  31.050  56.171  1.00  0.00     0.087 A 
HETATM    8  N   UNL     1       4.024  29.736  56.369  1.00  0.00    -0.357 N 
HETATM    9  C   UNL     1       4.902  29.325  57.455  1.00  0.00     0.243 C 
HETATM   10  N   UNL     1       5.821  30.327  58.017  1.00  0.00    -0.235 NA
HETATM   11  C   UNL     1       5.634  31.543  57.674  1.00  0.00     0.173 C 
HETATM   12  S   UNL     1       2.656  31.708  55.138  1.00  0.00    -0.074 SA
HETATM   13  C   UNL     1       4.890  34.622  56.761  1.00  0.00     0.068 C 
HETATM   14  C   UNL     1       4.071  35.842  56.300  1.00  0.00     0.240 C 
HETATM   15  H   UNL     1       3.361  29.037  56.049  1.00  0.00     0.162 HD
ENDROOT
BRANCH   9  16
HETATM   16  C   UNL     1       5.714  28.116  57.009  1.00  0.00    -0.012 A 
HETATM   17  C   UNL     1       5.200  27.202  56.064  1.00  0.00     0.050 A 
HETATM   18  C   UNL     1       5.976  26.142  55.589  1.00  0.00     0.103 A 
HETATM   19  C   UNL     1       7.288  26.015  56.058  1.00  0.00     0.112 A 
HETATM   20  C   UNL     1       7.823  26.914  56.983  1.00  0.00     0.041 A 
HETATM   21  C   UNL     1       7.034  27.956  57.462  1.00  0.00     0.014 A 
BRANCH  18  22
HETATM   22  O   UNL     1       5.568  25.220  54.662  1.00  0.00    -0.349 OA
BRANCH  22  23
HETATM   23  C   UNL     1       5.086  25.723  53.417  1.00  0.00     0.171 C 
HETATM   24  C   UNL     1       6.275  25.917  52.494  1.00  0.00     0.034 C 
ENDBRANCH  22  23
ENDBRANCH  18  22
BRANCH  19  25
HETATM   25  O   UNL     1       8.116  25.040  55.478  1.00  0.00    -0.272 OA
BRANCH  25  26
HETATM   26  C   UNL     1       8.176  23.823  56.126  1.00  0.00     0.298 C 
HETATM   27  O   UNL     1       8.332  23.630  57.323  1.00  0.00    -0.259 OA
BRANCH  26  28
HETATM   28  C   UNL     1       8.095  22.728  55.119  1.00  0.00     0.039 A 
HETATM   29  C   UNL     1       8.151  21.405  55.575  1.00  0.00     0.017 A 
HETATM   30  C   UNL     1       8.116  20.344  54.667  1.00  0.00     0.001 A 
HETATM   31  C   UNL     1       8.019  20.600  53.300  1.00  0.00     0.000 A 
HETATM   32  C   UNL     1       7.951  21.914  52.838  1.00  0.00     0.001 A 
HETATM   33  C   UNL     1       7.987  22.978  53.743  1.00  0.00     0.017 A 
ENDBRANCH  26  28
ENDBRANCH  25  26
ENDBRANCH  19  25
ENDBRANCH   9  16
BRANCH  11  34
HETATM   34  O   UNL     1       6.458  32.478  58.179  1.00  0.00    -0.344 OA
HETATM   35  H   UNL     1       6.388  32.409  59.148  1.00  0.00     0.219 HD
ENDBRANCH  11  34
BRANCH   1  36
HETATM   36  C   UNL     1       4.585  35.617  53.787  1.00  0.00     0.231 C 
HETATM   37  C   UNL     1       4.021  34.999  52.521  1.00  0.00     0.034 C 
ENDBRANCH   1  36
TORSDOF 8
ENDMDL
MODEL 10
REMARK VINA RESULT:      -8.1      6.459      9.910
REMARK  8 active torsions:
REMARK  status: ('A' for Active; 'I' for Inactive)
REMARK    1  A    between atoms: C_2  and  N_3 
REMARK    2  A    between atoms: C_11  and  C_12 
REMARK    3  A    between atoms: C_14  and  O_15 
REMARK    4  A    between atoms: O_15  and  C_16 
REMARK    5  A    between atoms: C_18  and  O_19 
REMARK    6  A    between atoms: O_19  and  C_20 
REMARK    7  A    between atoms: C_20  and  C_21 
REMARK    8  A    between atoms: C_31  and  O_32 
ROOT
HETATM    1  N   UNL     1       0.521  32.194  48.454  1.00  0.00    -0.067 N 
HETATM    2  H   UNL     1       0.163  33.029  47.975  1.00  0.00     0.280 HD
HETATM    3  C   UNL     1       1.967  32.526  48.835  1.00  0.00     0.281 C 
HETATM    4  C   UNL     1       2.718  31.286  49.175  1.00  0.00     0.018 A 
HETATM    5  C   UNL     1       2.351  30.006  48.794  1.00  0.00    -0.024 A 
HETATM    6  C   UNL     1       3.276  29.037  49.299  1.00  0.00     0.057 A 
HETATM    7  C   UNL     1       4.279  29.624  50.032  1.00  0.00     0.087 A 
HETATM    8  N   UNL     1       5.233  28.908  50.646  1.00  0.00    -0.357 N 
HETATM    9  C   UNL     1       5.360  27.497  50.311  1.00  0.00     0.243 C 
HETATM   10  N   UNL     1       4.226  26.843  49.636  1.00  0.00    -0.235 NA
HETATM   11  C   UNL     1       3.302  27.602  49.189  1.00  0.00     0.173 C 
HETATM   12  S   UNL     1       4.148  31.315  50.097  1.00  0.00    -0.074 SA
HETATM   13  C   UNL     1       1.102  29.751  48.002  1.00  0.00     0.068 C 
HETATM   14  C   UNL     1       0.502  31.052  47.437  1.00  0.00     0.240 C 
HETATM   15  H   UNL     1       6.057  29.340  51.054  1.00  0.00     0.162 HD
ENDROOT
BRANCH   9  16
HETATM   16  C   UNL     1       5.694  26.712  51.572  1.00  0.00    -0.012 A 
HETATM   17  C   UNL     1       5.333  27.197  52.848  1.00  0.00     0.050 A 
HETATM   18  C   UNL     1       5.560  26.439  53.999  1.00  0.00     0.103 A 
HETATM   19  C   UNL     1       6.138  25.172  53.859  1.00  0.00     0.112 A 
HETATM   20  C   UNL     1       6.491  24.665  52.606  1.00  0.00     0.041 A 
HETATM   21  C   UNL     1       6.276  25.438  51.468  1.00  0.00     0.014 A 
BRANCH  18  22
HETATM   22  O   UNL     1       5.229  26.820  55.272  1.00  0.00    -0.349 OA
BRANCH  22  23
HETATM   23  C   UNL     1       5.629  28.126  55.681  1.00  0.00     0.171 C 
HETATM   24  C   UNL     1       7.146  28.164  55.725  1.00  0.00     0.034 C 
ENDBRANCH  22  23
ENDBRANCH  18  22
BRANCH  19  25
HETATM   25  O   UNL     1       6.236  24.351  54.993  1.00  0.00    -0.272 OA
BRANCH  25  26
HETATM   26  C   UNL     1       7.511  24.099  55.460  1.00  0.00     0.298 C 
HETATM   27  O   UNL     1       8.267  24.889  56.005  1.00  0.00    -0.259 OA
BRANCH  26  28
HETATM   28  C   UNL     1       7.883  22.694  55.132  1.00  0.00     0.039 A 
HETATM   29  C   UNL     1       7.663  21.709  56.104  1.00  0.00     0.017 A 
HETATM   30  C   UNL     1       8.029  20.383  55.858  1.00  0.00     0.001 A 
HETATM   31  C   UNL     1       8.612  20.035  54.640  1.00  0.00     0.000 A 
HETATM   32  C   UNL     1       8.825  21.008  53.664  1.00  0.00     0.001 A 
HETATM   33  C   UNL     1       8.460  22.335  53.906  1.00  0.00     0.017 A 
ENDBRANCH  26  28
ENDBRANCH  25  26
ENDBRANCH  19  25
ENDBRANCH   9  16
BRANCH  11  34
HETATM   34  O   UNL     1       2.258  27.029  48.565  1.00  0.00    -0.344 OA
HETATM   35  H   UNL     1       2.357  27.239  47.619  1.00  0.00     0.219 HD
ENDBRANCH  11  34
BRANCH   1  36
HETATM   36  C   UNL     1      -0.345  31.991  49.680  1.00  0.00     0.231 C 
HETATM   37  C   UNL     1      -1.817  31.992  49.314  1.00  0.00     0.034 C 
ENDBRANCH   1  36
TORSDOF 8
ENDMDL
