MODEL 1
REMARK VINA RESULT:      -9.2      0.000      0.000
REMARK  6 active torsions:
REMARK  status: ('A' for Active; 'I' for Inactive)
REMARK    1  A    between atoms: O_2  and  C_3 
REMARK    2  A    between atoms: C_6  and  C_7 
REMARK    3  A    between atoms: C_7  and  N_8 
REMARK       I    between atoms: N_8  and  C_9 
REMARK    4  A    between atoms: C_9  and  C_10 
REMARK    5  A    between atoms: C_10  and  O_11 
REMARK    6  A    between atoms: N_12  and  C_13 
ROOT
HETATM    1  C   UNL     1       5.173  27.090  53.335  1.00  0.00     0.256 C 
HETATM    2  N   UNL     1       5.201  27.623  54.702  1.00  0.00    -0.248 N 
HETATM    3  C   UNL     1       4.270  28.569  55.097  1.00  0.00     0.330 C 
HETATM    4  O   UNL     1       3.961  28.800  56.267  1.00  0.00    -0.246 OA
HETATM    5  N   UNL     1       3.662  29.293  54.116  1.00  0.00    -0.308 N 
HETATM    6  C   UNL     1       3.952  29.192  52.762  1.00  0.00     0.048 A 
HETATM    7  C   UNL     1       4.749  28.140  52.317  1.00  0.00     0.034 A 
HETATM    8  C   UNL     1       3.439  30.146  51.879  1.00  0.00     0.030 A 
HETATM    9  C   UNL     1       3.747  30.067  50.524  1.00  0.00     0.002 A 
HETATM   10  C   UNL     1       4.545  29.028  50.056  1.00  0.00     0.001 A 
HETATM   11  C   UNL     1       5.033  28.062  50.941  1.00  0.00     0.015 A 
HETATM   12  H   UNL     1       3.047  30.020  54.453  1.00  0.00     0.170 HD
ENDROOT
BRANCH   1  13
HETATM   13  C   UNL     1       6.566  26.455  52.891  1.00  0.00     0.279 C 
HETATM   14  N   UNL     1       6.462  25.120  52.525  1.00  0.00    -0.352 N 
HETATM   15  H   UNL     1       5.527  24.722  52.491  1.00  0.00     0.162 HD
HETATM   16  O   UNL     1       7.631  27.068  52.865  1.00  0.00    -0.268 OA
BRANCH  14  17
HETATM   17  C   UNL     1       7.582  24.330  52.085  1.00  0.00     0.161 C 
BRANCH  17  18
HETATM   18  C   UNL     1       7.991  23.329  53.131  1.00  0.00    -0.040 A 
HETATM   19  C   UNL     1       7.982  21.958  52.839  1.00  0.00     0.011 A 
HETATM   20  C   UNL     1       8.386  21.021  53.796  1.00  0.00     0.037 A 
HETATM   21  C   UNL     1       8.798  21.442  55.059  1.00  0.00     0.068 A 
HETATM   22  C   UNL     1       8.770  22.803  55.367  1.00  0.00     0.037 A 
HETATM   23  C   UNL     1       8.371  23.742  54.414  1.00  0.00     0.011 A 
BRANCH  21  24
HETATM   24  O   UNL     1       9.233  20.631  56.072  1.00  0.00    -0.356 OA
HETATM   25  C   UNL     1       8.584  20.784  57.329  1.00  0.00     0.210 C 
ENDBRANCH  21  24
ENDBRANCH  17  18
ENDBRANCH  14  17
ENDBRANCH   1  13
BRANCH   1  26
HETATM   26  O   UNL     1       4.153  26.081  53.293  1.00  0.00    -0.359 OA
HETATM   27  H   UNL     1       3.420  26.464  53.805  1.00  0.00     0.213 HD
ENDBRANCH   1  26
BRANCH   2  28
HETATM   28  C   UNL     1       6.057  27.064  55.713  1.00  0.00     0.120 A 
HETATM   29  C   UNL     1       5.797  25.839  56.336  1.00  0.00     0.146 A 
HETATM   30  F   UNL     1       4.671  25.164  56.054  1.00  0.00    -0.204 F 
HETATM   31  C   UNL     1       6.650  25.308  57.305  1.00  0.00     0.045 A 
HETATM   32  C   UNL     1       7.798  26.005  57.677  1.00  0.00     0.006 A 
HETATM   33  C   UNL     1       8.082  27.228  57.076  1.00  0.00     0.045 A 
HETATM   34  C   UNL     1       7.220  27.745  56.107  1.00  0.00     0.146 A 
HETATM   35  F   UNL     1       7.579  28.888  55.501  1.00  0.00    -0.204 F 
ENDBRANCH   2  28
TORSDOF 6
ENDMDL
MODEL 2
REMARK VINA RESULT:      -9.2      2.209      6.980
REMARK  6 active torsions:
REMARK  status: ('A' for Active; 'I' for Inactive)
REMARK    1  A    between atoms: O_2  and  C_3 
REMARK    2  A    between atoms: C_6  and  C_7 
REMARK    3  A    between atoms: C_7  and  N_8 
REMARK       I    between atoms: N_8  and  C_9 
REMARK    4  A    between atoms: C_9  and  C_10 
REMARK    5  A    between atoms: C_10  and  O_11 
REMARK    6  A    between atoms: N_12  and  C_13 
ROOT
HETATM    1  C   UNL     1       7.351  24.782  53.788  1.00  0.00     0.256 C 
HETATM    2  N   UNL     1       7.306  25.458  55.090  1.00  0.00    -0.248 N 
HETATM    3  C   UNL     1       8.193  25.094  56.090  1.00  0.00     0.330 C 
HETATM    4  O   UNL     1       8.499  25.806  57.046  1.00  0.00    -0.246 OA
HETATM    5  N   UNL     1       8.757  23.856  56.003  1.00  0.00    -0.308 N 
HETATM    6  C   UNL     1       8.462  22.918  55.023  1.00  0.00     0.048 A 
HETATM    7  C   UNL     1       7.715  23.309  53.915  1.00  0.00     0.034 A 
HETATM    8  C   UNL     1       8.921  21.607  55.172  1.00  0.00     0.030 A 
HETATM    9  C   UNL     1       8.607  20.653  54.207  1.00  0.00     0.002 A 
HETATM   10  C   UNL     1       7.857  21.018  53.093  1.00  0.00     0.001 A 
HETATM   11  C   UNL     1       7.424  22.339  52.939  1.00  0.00     0.015 A 
HETATM   12  H   UNL     1       9.338  23.606  56.791  1.00  0.00     0.170 HD
ENDROOT
BRANCH   1  13
HETATM   13  C   UNL     1       5.987  24.921  52.973  1.00  0.00     0.279 C 
HETATM   14  N   UNL     1       6.136  25.610  51.778  1.00  0.00    -0.352 N 
HETATM   15  H   UNL     1       7.082  25.867  51.508  1.00  0.00     0.162 HD
HETATM   16  O   UNL     1       4.906  24.469  53.347  1.00  0.00    -0.268 OA
BRANCH  14  17
HETATM   17  C   UNL     1       5.049  25.861  50.868  1.00  0.00     0.161 C 
BRANCH  17  18
HETATM   18  C   UNL     1       5.125  27.250  50.294  1.00  0.00    -0.040 A 
HETATM   19  C   UNL     1       4.944  27.458  48.919  1.00  0.00     0.011 A 
HETATM   20  C   UNL     1       4.986  28.748  48.380  1.00  0.00     0.037 A 
HETATM   21  C   UNL     1       5.216  29.846  49.207  1.00  0.00     0.068 A 
HETATM   22  C   UNL     1       5.437  29.639  50.570  1.00  0.00     0.037 A 
HETATM   23  C   UNL     1       5.392  28.353  51.113  1.00  0.00     0.011 A 
BRANCH  21  24
HETATM   24  O   UNL     1       5.261  31.154  48.808  1.00  0.00    -0.356 OA
HETATM   25  C   UNL     1       6.131  32.009  49.539  1.00  0.00     0.210 C 
ENDBRANCH  21  24
ENDBRANCH  17  18
ENDBRANCH  14  17
ENDBRANCH   1  13
BRANCH   1  26
HETATM   26  O   UNL     1       8.418  25.377  53.036  1.00  0.00    -0.359 OA
HETATM   27  H   UNL     1       8.434  24.870  52.206  1.00  0.00     0.213 HD
ENDBRANCH   1  26
BRANCH   2  28
HETATM   28  C   UNL     1       6.486  26.617  55.312  1.00  0.00     0.120 A 
HETATM   29  C   UNL     1       6.767  27.865  54.745  1.00  0.00     0.146 A 
HETATM   30  F   UNL     1       7.881  28.040  54.017  1.00  0.00    -0.204 F 
HETATM   31  C   UNL     1       5.949  28.975  54.963  1.00  0.00     0.045 A 
HETATM   32  C   UNL     1       4.816  28.856  55.766  1.00  0.00     0.006 A 
HETATM   33  C   UNL     1       4.512  27.627  56.346  1.00  0.00     0.045 A 
HETATM   34  C   UNL     1       5.340  26.526  56.117  1.00  0.00     0.146 A 
HETATM   35  F   UNL     1       4.961  25.345  56.633  1.00  0.00    -0.204 F 
ENDBRANCH   2  28
TORSDOF 6
ENDMDL
MODEL 3
REMARK VINA RESULT:      -8.9      1.275      2.196
REMARK  6 active torsions:
REMARK  status: ('A' for Active; 'I' for Inactive)
REMARK    1  A    between atoms: O_2  and  C_3 
REMARK    2  A    between atoms: C_6  and  C_7 
REMARK    3  A    between atoms: C_7  and  N_8 
REMARK       I    between atoms: N_8  and  C_9 
REMARK    4  A    between atoms: C_9  and  C_10 
REMARK    5  A    between atoms: C_10  and  O_11 
REMARK    6  A    between atoms: N_12  and  C_13 
ROOT
HETATM    1  C   UNL     1       4.916  28.402  54.051  1.00  0.00     0.256 C 
HETATM    2  N   UNL     1       5.241  28.740  55.442  1.00  0.00    -0.248 N 
HETATM    3  C   UNL     1       4.491  29.689  56.118  1.00  0.00     0.330 C 
HETATM    4  O   UNL     1       4.422  29.781  57.344  1.00  0.00    -0.246 OA
HETATM    5  N   UNL     1       3.790  30.582  55.364  1.00  0.00    -0.308 N 
HETATM    6  C   UNL     1       3.821  30.646  53.978  1.00  0.00     0.048 A 
HETATM    7  C   UNL     1       4.420  29.609  53.266  1.00  0.00     0.034 A 
HETATM    8  C   UNL     1       3.254  31.746  53.331  1.00  0.00     0.030 A 
HETATM    9  C   UNL     1       3.304  31.831  51.942  1.00  0.00     0.002 A 
HETATM   10  C   UNL     1       3.901  30.809  51.209  1.00  0.00     0.001 A 
HETATM   11  C   UNL     1       4.444  29.699  51.862  1.00  0.00     0.015 A 
HETATM   12  H   UNL     1       3.320  31.300  55.897  1.00  0.00     0.170 HD
ENDROOT
BRANCH   1  13
HETATM   13  C   UNL     1       6.138  27.733  53.276  1.00  0.00     0.279 C 
HETATM   14  N   UNL     1       5.949  26.381  53.029  1.00  0.00    -0.352 N 
HETATM   15  H   UNL     1       5.045  25.988  53.276  1.00  0.00     0.162 HD
HETATM   16  O   UNL     1       7.150  28.336  52.923  1.00  0.00    -0.268 OA
BRANCH  14  17
HETATM   17  C   UNL     1       6.912  25.560  52.342  1.00  0.00     0.161 C 
BRANCH  17  18
HETATM   18  C   UNL     1       7.231  24.316  53.126  1.00  0.00    -0.040 A 
HETATM   19  C   UNL     1       6.959  24.257  54.500  1.00  0.00     0.011 A 
HETATM   20  C   UNL     1       7.227  23.095  55.232  1.00  0.00     0.037 A 
HETATM   21  C   UNL     1       7.774  21.979  54.601  1.00  0.00     0.068 A 
HETATM   22  C   UNL     1       8.084  22.048  53.242  1.00  0.00     0.037 A 
HETATM   23  C   UNL     1       7.815  23.205  52.506  1.00  0.00     0.011 A 
BRANCH  21  24
HETATM   24  O   UNL     1       8.063  20.782  55.198  1.00  0.00    -0.356 OA
HETATM   25  C   UNL     1       8.286  20.812  56.603  1.00  0.00     0.210 C 
ENDBRANCH  21  24
ENDBRANCH  17  18
ENDBRANCH  14  17
ENDBRANCH   1  13
BRANCH   1  26
HETATM   26  O   UNL     1       3.812  27.485  54.082  1.00  0.00    -0.359 OA
HETATM   27  H   UNL     1       4.173  26.696  54.521  1.00  0.00     0.213 HD
ENDBRANCH   1  26
BRANCH   2  28
HETATM   28  C   UNL     1       6.206  27.988  56.196  1.00  0.00     0.120 A 
HETATM   29  C   UNL     1       7.535  28.397  56.349  1.00  0.00     0.146 A 
HETATM   30  F   UNL     1       7.980  29.495  55.719  1.00  0.00    -0.204 F 
HETATM   31  C   UNL     1       8.452  27.658  57.099  1.00  0.00     0.045 A 
HETATM   32  C   UNL     1       8.051  26.476  57.719  1.00  0.00     0.006 A 
HETATM   33  C   UNL     1       6.735  26.043  57.583  1.00  0.00     0.045 A 
HETATM   34  C   UNL     1       5.829  26.794  56.831  1.00  0.00     0.146 A 
HETATM   35  F   UNL     1       4.553  26.376  56.795  1.00  0.00    -0.204 F 
ENDBRANCH   2  28
TORSDOF 6
ENDMDL
MODEL 4
REMARK VINA RESULT:      -8.8      2.988      6.765
REMARK  6 active torsions:
REMARK  status: ('A' for Active; 'I' for Inactive)
REMARK    1  A    between atoms: O_2  and  C_3 
REMARK    2  A    between atoms: C_6  and  C_7 
REMARK    3  A    between atoms: C_7  and  N_8 
REMARK       I    between atoms: N_8  and  C_9 
REMARK    4  A    between atoms: C_9  and  C_10 
REMARK    5  A    between atoms: C_10  and  O_11 
REMARK    6  A    between atoms: N_12  and  C_13 
ROOT
HETATM    1  C   UNL     1       4.299  27.964  53.423  1.00  0.00     0.256 C 
HETATM    2  N   UNL     1       5.137  27.057  54.217  1.00  0.00    -0.248 N 
HETATM    3  C   UNL     1       4.961  26.974  55.589  1.00  0.00     0.330 C 
HETATM    4  O   UNL     1       5.317  26.022  56.283  1.00  0.00    -0.246 OA
HETATM    5  N   UNL     1       4.354  28.028  56.204  1.00  0.00    -0.308 N 
HETATM    6  C   UNL     1       3.958  29.197  55.568  1.00  0.00     0.048 A 
HETATM    7  C   UNL     1       3.961  29.243  54.176  1.00  0.00     0.034 A 
HETATM    8  C   UNL     1       3.568  30.296  56.337  1.00  0.00     0.030 A 
HETATM    9  C   UNL     1       3.194  31.480  55.707  1.00  0.00     0.002 A 
HETATM   10  C   UNL     1       3.193  31.553  54.317  1.00  0.00     0.001 A 
HETATM   11  C   UNL     1       3.560  30.440  53.555  1.00  0.00     0.015 A 
HETATM   12  H   UNL     1       4.315  27.957  57.212  1.00  0.00     0.170 HD
ENDROOT
BRANCH   1  13
HETATM   13  C   UNL     1       4.952  28.335  52.017  1.00  0.00     0.279 C 
HETATM   14  N   UNL     1       4.321  27.719  50.945  1.00  0.00    -0.352 N 
HETATM   15  H   UNL     1       3.480  27.186  51.150  1.00  0.00     0.162 HD
HETATM   16  O   UNL     1       5.913  29.089  51.875  1.00  0.00    -0.268 OA
BRANCH  14  17
HETATM   17  C   UNL     1       4.728  27.901  49.576  1.00  0.00     0.161 C 
BRANCH  17  18
HETATM   18  C   UNL     1       3.590  27.641  48.627  1.00  0.00    -0.040 A 
HETATM   19  C   UNL     1       3.609  26.518  47.789  1.00  0.00     0.011 A 
HETATM   20  C   UNL     1       2.543  26.254  46.923  1.00  0.00     0.037 A 
HETATM   21  C   UNL     1       1.447  27.113  46.878  1.00  0.00     0.068 A 
HETATM   22  C   UNL     1       1.442  28.255  47.681  1.00  0.00     0.037 A 
HETATM   23  C   UNL     1       2.502  28.521  48.550  1.00  0.00     0.011 A 
BRANCH  21  24
HETATM   24  O   UNL     1       0.337  26.957  46.093  1.00  0.00    -0.356 OA
HETATM   25  C   UNL     1      -0.618  28.010  46.129  1.00  0.00     0.210 C 
ENDBRANCH  21  24
ENDBRANCH  17  18
ENDBRANCH  14  17
ENDBRANCH   1  13
BRANCH   1  26
HETATM   26  O   UNL     1       3.044  27.303  53.206  1.00  0.00    -0.359 OA
HETATM   27  H   UNL     1       2.575  27.885  52.583  1.00  0.00     0.213 HD
ENDBRANCH   1  26
BRANCH   2  28
HETATM   28  C   UNL     1       6.023  26.110  53.598  1.00  0.00     0.120 A 
HETATM   29  C   UNL     1       7.392  26.346  53.435  1.00  0.00     0.146 A 
HETATM   30  F   UNL     1       7.921  27.526  53.795  1.00  0.00    -0.204 F 
HETATM   31  C   UNL     1       8.237  25.405  52.844  1.00  0.00     0.045 A 
HETATM   32  C   UNL     1       7.720  24.191  52.395  1.00  0.00     0.006 A 
HETATM   33  C   UNL     1       6.360  23.929  52.542  1.00  0.00     0.045 A 
HETATM   34  C   UNL     1       5.529  24.880  53.137  1.00  0.00     0.146 A 
HETATM   35  F   UNL     1       4.241  24.547  53.327  1.00  0.00    -0.204 F 
ENDBRANCH   2  28
TORSDOF 6
ENDMDL
MODEL 5
REMARK VINA RESULT:      -8.8      1.943      4.126
REMARK  6 active torsions:
REMARK  status: ('A' for Active; 'I' for Inactive)
REMARK    1  A    between atoms: O_2  and  C_3 
REMARK    2  A    between atoms: C_6  and  C_7 
REMARK    3  A    between atoms: C_7  and  N_8 
REMARK       I    between atoms: N_8  and  C_9 
REMARK    4  A    between atoms: C_9  and  C_10 
REMARK    5  A    between atoms: C_10  and  O_11 
REMARK    6  A    between atoms: N_12  and  C_13 
ROOT
HETATM    1  C   UNL     1       5.922  28.474  55.210  1.00  0.00     0.256 C 
HETATM    2  N   UNL     1       5.779  28.068  53.807  1.00  0.00    -0.248 N 
HETATM    3  C   UNL     1       5.302  28.970  52.870  1.00  0.00     0.330 C 
HETATM    4  O   UNL     1       5.488  28.880  51.656  1.00  0.00    -0.246 OA
HETATM    5  N   UNL     1       4.575  30.025  53.333  1.00  0.00    -0.308 N 
HETATM    6  C   UNL     1       4.227  30.225  54.662  1.00  0.00     0.048 A 
HETATM    7  C   UNL     1       4.829  29.442  55.644  1.00  0.00     0.034 A 
HETATM    8  C   UNL     1       3.284  31.205  54.983  1.00  0.00     0.030 A 
HETATM    9  C   UNL     1       2.911  31.394  56.310  1.00  0.00     0.002 A 
HETATM   10  C   UNL     1       3.494  30.620  57.309  1.00  0.00     0.001 A 
HETATM   11  C   UNL     1       4.457  29.660  56.983  1.00  0.00     0.015 A 
HETATM   12  H   UNL     1       4.186  30.614  52.610  1.00  0.00     0.170 HD
ENDROOT
BRANCH   1  13
HETATM   13  C   UNL     1       5.958  27.234  56.212  1.00  0.00     0.279 C 
HETATM   14  N   UNL     1       7.247  26.838  56.539  1.00  0.00    -0.352 N 
HETATM   15  H   UNL     1       8.009  27.414  56.193  1.00  0.00     0.162 HD
HETATM   16  O   UNL     1       4.959  26.675  56.660  1.00  0.00    -0.268 OA
BRANCH  14  17
HETATM   17  C   UNL     1       7.536  25.742  57.427  1.00  0.00     0.161 C 
BRANCH  17  18
HETATM   18  C   UNL     1       7.903  24.499  56.663  1.00  0.00    -0.040 A 
HETATM   19  C   UNL     1       6.903  23.631  56.203  1.00  0.00     0.011 A 
HETATM   20  C   UNL     1       7.232  22.487  55.469  1.00  0.00     0.037 A 
HETATM   21  C   UNL     1       8.565  22.193  55.189  1.00  0.00     0.068 A 
HETATM   22  C   UNL     1       9.566  23.033  55.680  1.00  0.00     0.037 A 
HETATM   23  C   UNL     1       9.242  24.178  56.411  1.00  0.00     0.011 A 
BRANCH  21  24
HETATM   24  O   UNL     1       9.016  21.121  54.467  1.00  0.00    -0.356 OA
HETATM   25  C   UNL     1       8.321  20.834  53.259  1.00  0.00     0.210 C 
ENDBRANCH  21  24
ENDBRANCH  17  18
ENDBRANCH  14  17
ENDBRANCH   1  13
BRANCH   1  26
HETATM   26  O   UNL     1       7.149  29.210  55.318  1.00  0.00    -0.359 OA
HETATM   27  H   UNL     1       6.973  30.036  54.835  1.00  0.00     0.213 HD
ENDBRANCH   1  26
BRANCH   2  28
HETATM   28  C   UNL     1       6.286  26.811  53.329  1.00  0.00     0.120 A 
HETATM   29  C   UNL     1       7.650  26.570  53.130  1.00  0.00     0.146 A 
HETATM   30  F   UNL     1       8.544  27.555  53.314  1.00  0.00    -0.204 F 
HETATM   31  C   UNL     1       8.122  25.336  52.678  1.00  0.00     0.045 A 
HETATM   32  C   UNL     1       7.225  24.304  52.411  1.00  0.00     0.006 A 
HETATM   33  C   UNL     1       5.861  24.515  52.598  1.00  0.00     0.045 A 
HETATM   34  C   UNL     1       5.405  25.754  53.052  1.00  0.00     0.146 A 
HETATM   35  F   UNL     1       4.090  25.883  53.293  1.00  0.00    -0.204 F 
ENDBRANCH   2  28
TORSDOF 6
ENDMDL
MODEL 6
REMARK VINA RESULT:      -8.8      3.040      6.631
REMARK  6 active torsions:
REMARK  status: ('A' for Active; 'I' for Inactive)
REMARK    1  A    between atoms: O_2  and  C_3 
REMARK    2  A    between atoms: C_6  and  C_7 
REMARK    3  A    between atoms: C_7  and  N_8 
REMARK       I    between atoms: N_8  and  C_9 
REMARK    4  A    between atoms: C_9  and  C_10 
REMARK    5  A    between atoms: C_10  and  O_11 
REMARK    6  A    between atoms: N_12  and  C_13 
ROOT
HETATM    1  C   UNL     1       4.261  28.010  53.408  1.00  0.00     0.256 C 
HETATM    2  N   UNL     1       5.102  27.132  54.230  1.00  0.00    -0.248 N 
HETATM    3  C   UNL     1       4.940  27.107  55.606  1.00  0.00     0.330 C 
HETATM    4  O   UNL     1       5.298  26.182  56.335  1.00  0.00    -0.246 OA
HETATM    5  N   UNL     1       4.346  28.190  56.183  1.00  0.00    -0.308 N 
HETATM    6  C   UNL     1       3.950  29.333  55.503  1.00  0.00     0.048 A 
HETATM    7  C   UNL     1       3.938  29.322  54.110  1.00  0.00     0.034 A 
HETATM    8  C   UNL     1       3.574  30.466  56.230  1.00  0.00     0.030 A 
HETATM    9  C   UNL     1       3.201  31.625  55.555  1.00  0.00     0.002 A 
HETATM   10  C   UNL     1       3.186  31.640  54.163  1.00  0.00     0.001 A 
HETATM   11  C   UNL     1       3.538  30.494  53.444  1.00  0.00     0.015 A 
HETATM   12  H   UNL     1       4.317  28.161  57.193  1.00  0.00     0.170 HD
ENDROOT
BRANCH   1  13
HETATM   13  C   UNL     1       4.901  28.318  51.981  1.00  0.00     0.279 C 
HETATM   14  N   UNL     1       4.287  27.624  50.948  1.00  0.00    -0.352 N 
HETATM   15  H   UNL     1       3.463  27.078  51.185  1.00  0.00     0.162 HD
HETATM   16  O   UNL     1       5.840  29.091  51.793  1.00  0.00    -0.268 OA
BRANCH  14  17
HETATM   17  C   UNL     1       4.687  27.738  49.570  1.00  0.00     0.161 C 
BRANCH  17  18
HETATM   18  C   UNL     1       3.532  27.478  48.641  1.00  0.00    -0.040 A 
HETATM   19  C   UNL     1       2.379  28.273  48.707  1.00  0.00     0.011 A 
HETATM   20  C   UNL     1       1.311  28.056  47.829  1.00  0.00     0.037 A 
HETATM   21  C   UNL     1       1.380  27.039  46.878  1.00  0.00     0.068 A 
HETATM   22  C   UNL     1       2.510  26.220  46.837  1.00  0.00     0.037 A 
HETATM   23  C   UNL     1       3.580  26.434  47.709  1.00  0.00     0.011 A 
BRANCH  21  24
HETATM   24  O   UNL     1       0.417  26.739  45.954  1.00  0.00    -0.356 OA
HETATM   25  C   UNL     1      -0.529  27.764  45.670  1.00  0.00     0.210 C 
ENDBRANCH  21  24
ENDBRANCH  17  18
ENDBRANCH  14  17
ENDBRANCH   1  13
BRANCH   1  26
HETATM   26  O   UNL     1       2.999  27.349  53.232  1.00  0.00    -0.359 OA
HETATM   27  H   UNL     1       3.000  27.084  52.295  1.00  0.00     0.213 HD
ENDBRANCH   1  26
BRANCH   2  28
HETATM   28  C   UNL     1       5.976  26.154  53.642  1.00  0.00     0.120 A 
HETATM   29  C   UNL     1       5.524  24.911  53.185  1.00  0.00     0.146 A 
HETATM   30  F   UNL     1       4.242  24.555  53.353  1.00  0.00    -0.204 F 
HETATM   31  C   UNL     1       6.389  23.982  52.603  1.00  0.00     0.045 A 
HETATM   32  C   UNL     1       7.743  24.283  52.466  1.00  0.00     0.006 A 
HETATM   33  C   UNL     1       8.221  25.512  52.914  1.00  0.00     0.045 A 
HETATM   34  C   UNL     1       7.343  26.431  53.492  1.00  0.00     0.146 A 
HETATM   35  F   UNL     1       7.838  27.632  53.834  1.00  0.00    -0.204 F 
ENDBRANCH   2  28
TORSDOF 6
ENDMDL
MODEL 7
REMARK VINA RESULT:      -8.4      2.664      6.039
REMARK  6 active torsions:
REMARK  status: ('A' for Active; 'I' for Inactive)
REMARK    1  A    between atoms: O_2  and  C_3 
REMARK    2  A    between atoms: C_6  and  C_7 
REMARK    3  A    between atoms: C_7  and  N_8 
REMARK       I    between atoms: N_8  and  C_9 
REMARK    4  A    between atoms: C_9  and  C_10 
REMARK    5  A    between atoms: C_10  and  O_11 
REMARK    6  A    between atoms: N_12  and  C_13 
ROOT
HETATM    1  C   UNL     1       5.466  27.998  52.469  1.00  0.00     0.256 C 
HETATM    2  N   UNL     1       6.142  26.760  52.873  1.00  0.00    -0.248 N 
HETATM    3  C   UNL     1       6.633  25.892  51.911  1.00  0.00     0.330 C 
HETATM    4  O   UNL     1       7.512  25.054  52.109  1.00  0.00    -0.246 OA
HETATM    5  N   UNL     1       6.095  25.978  50.661  1.00  0.00    -0.308 N 
HETATM    6  C   UNL     1       5.055  26.825  50.303  1.00  0.00     0.048 A 
HETATM    7  C   UNL     1       4.659  27.823  51.190  1.00  0.00     0.034 A 
HETATM    8  C   UNL     1       4.431  26.656  49.064  1.00  0.00     0.030 A 
HETATM    9  C   UNL     1       3.370  27.484  48.708  1.00  0.00     0.002 A 
HETATM   10  C   UNL     1       2.953  28.485  49.579  1.00  0.00     0.001 A 
HETATM   11  C   UNL     1       3.599  28.665  50.806  1.00  0.00     0.015 A 
HETATM   12  H   UNL     1       6.429  25.278  50.014  1.00  0.00     0.170 HD
ENDROOT
BRANCH   1  13
HETATM   13  C   UNL     1       4.524  28.589  53.612  1.00  0.00     0.279 C 
HETATM   14  N   UNL     1       4.942  29.829  54.073  1.00  0.00    -0.352 N 
HETATM   15  H   UNL     1       5.725  30.261  53.590  1.00  0.00     0.162 HD
HETATM   16  O   UNL     1       3.525  28.021  54.050  1.00  0.00    -0.268 OA
BRANCH  14  17
HETATM   17  C   UNL     1       4.254  30.564  55.101  1.00  0.00     0.161 C 
BRANCH  17  18
HETATM   18  C   UNL     1       5.143  30.806  56.291  1.00  0.00    -0.040 A 
HETATM   19  C   UNL     1       4.837  31.821  57.208  1.00  0.00     0.011 A 
HETATM   20  C   UNL     1       5.643  32.036  58.331  1.00  0.00     0.037 A 
HETATM   21  C   UNL     1       6.769  31.243  58.549  1.00  0.00     0.068 A 
HETATM   22  C   UNL     1       7.099  30.258  57.616  1.00  0.00     0.037 A 
HETATM   23  C   UNL     1       6.296  30.038  56.495  1.00  0.00     0.011 A 
BRANCH  21  24
HETATM   24  O   UNL     1       7.623  31.339  59.613  1.00  0.00    -0.356 OA
HETATM   25  C   UNL     1       8.739  30.457  59.610  1.00  0.00     0.210 C 
ENDBRANCH  21  24
ENDBRANCH  17  18
ENDBRANCH  14  17
ENDBRANCH   1  13
BRANCH   1  26
HETATM   26  O   UNL     1       6.486  28.955  52.150  1.00  0.00    -0.359 OA
HETATM   27  H   UNL     1       6.571  29.489  52.959  1.00  0.00     0.213 HD
ENDBRANCH   1  26
BRANCH   2  28
HETATM   28  C   UNL     1       6.475  26.494  54.246  1.00  0.00     0.120 A 
HETATM   29  C   UNL     1       7.516  27.148  54.914  1.00  0.00     0.146 A 
HETATM   30  F   UNL     1       8.303  28.013  54.255  1.00  0.00    -0.204 F 
HETATM   31  C   UNL     1       7.812  26.884  56.253  1.00  0.00     0.045 A 
HETATM   32  C   UNL     1       7.063  25.946  56.959  1.00  0.00     0.006 A 
HETATM   33  C   UNL     1       6.023  25.277  56.319  1.00  0.00     0.045 A 
HETATM   34  C   UNL     1       5.737  25.553  54.981  1.00  0.00     0.146 A 
HETATM   35  F   UNL     1       4.675  24.941  54.433  1.00  0.00    -0.204 F 
ENDBRANCH   2  28
TORSDOF 6
ENDMDL
MODEL 8
REMARK VINA RESULT:      -7.9      1.891      2.437
REMARK  6 active torsions:
REMARK  status: ('A' for Active; 'I' for Inactive)
REMARK    1  A    between atoms: O_2  and  C_3 
REMARK    2  A    between atoms: C_6  and  C_7 
REMARK    3  A    between atoms: C_7  and  N_8 
REMARK       I    between atoms: N_8  and  C_9 
REMARK    4  A    between atoms: C_9  and  C_10 
REMARK    5  A    between atoms: C_10  and  O_11 
REMARK    6  A    between atoms: N_12  and  C_13 
ROOT
HETATM    1  C   UNL     1       4.054  28.253  52.490  1.00  0.00     0.256 C 
HETATM    2  N   UNL     1       4.627  29.118  53.527  1.00  0.00    -0.248 N 
HETATM    3  C   UNL     1       4.293  30.462  53.571  1.00  0.00     0.330 C 
HETATM    4  O   UNL     1       4.398  31.176  54.569  1.00  0.00    -0.246 OA
HETATM    5  N   UNL     1       3.820  31.025  52.424  1.00  0.00    -0.308 N 
HETATM    6  C   UNL     1       3.708  30.367  51.206  1.00  0.00     0.048 A 
HETATM    7  C   UNL     1       3.869  28.984  51.167  1.00  0.00     0.034 A 
HETATM    8  C   UNL     1       3.439  31.107  50.052  1.00  0.00     0.030 A 
HETATM    9  C   UNL     1       3.351  30.458  48.823  1.00  0.00     0.002 A 
HETATM   10  C   UNL     1       3.512  29.077  48.757  1.00  0.00     0.001 A 
HETATM   11  C   UNL     1       3.756  28.341  49.921  1.00  0.00     0.015 A 
HETATM   12  H   UNL     1       3.661  32.021  52.482  1.00  0.00     0.170 HD
ENDROOT
BRANCH   1  13
HETATM   13  C   UNL     1       4.910  26.930  52.247  1.00  0.00     0.279 C 
HETATM   14  N   UNL     1       4.295  25.787  52.740  1.00  0.00    -0.352 N 
HETATM   15  H   UNL     1       3.355  25.893  53.111  1.00  0.00     0.162 HD
HETATM   16  O   UNL     1       6.001  26.904  51.681  1.00  0.00    -0.268 OA
BRANCH  14  17
HETATM   17  C   UNL     1       4.872  24.472  52.639  1.00  0.00     0.161 C 
BRANCH  17  18
HETATM   18  C   UNL     1       5.981  24.282  53.638  1.00  0.00    -0.040 A 
HETATM   19  C   UNL     1       5.750  24.506  55.002  1.00  0.00     0.011 A 
HETATM   20  C   UNL     1       6.767  24.306  55.942  1.00  0.00     0.037 A 
HETATM   21  C   UNL     1       8.030  23.885  55.528  1.00  0.00     0.068 A 
HETATM   22  C   UNL     1       8.275  23.700  54.167  1.00  0.00     0.037 A 
HETATM   23  C   UNL     1       7.262  23.896  53.226  1.00  0.00     0.011 A 
BRANCH  21  24
HETATM   24  O   UNL     1       9.099  23.636  56.345  1.00  0.00    -0.356 OA
HETATM   25  C   UNL     1       9.094  24.287  57.610  1.00  0.00     0.210 C 
ENDBRANCH  21  24
ENDBRANCH  17  18
ENDBRANCH  14  17
ENDBRANCH   1  13
BRANCH   1  26
HETATM   26  O   UNL     1       2.732  27.894  52.917  1.00  0.00    -0.359 OA
HETATM   27  H   UNL     1       2.519  27.104  52.390  1.00  0.00     0.213 HD
ENDBRANCH   1  26
BRANCH   2  28
HETATM   28  C   UNL     1       5.392  28.583  54.620  1.00  0.00     0.120 A 
HETATM   29  C   UNL     1       4.810  28.170  55.823  1.00  0.00     0.146 A 
HETATM   30  F   UNL     1       3.493  28.334  56.028  1.00  0.00    -0.204 F 
HETATM   31  C   UNL     1       5.571  27.639  56.866  1.00  0.00     0.045 A 
HETATM   32  C   UNL     1       6.951  27.510  56.723  1.00  0.00     0.006 A 
HETATM   33  C   UNL     1       7.559  27.915  55.538  1.00  0.00     0.045 A 
HETATM   34  C   UNL     1       6.784  28.443  54.504  1.00  0.00     0.146 A 
HETATM   35  F   UNL     1       7.406  28.744  53.352  1.00  0.00    -0.204 F 
ENDBRANCH   2  28
TORSDOF 6
ENDMDL
MODEL 9
REMARK VINA RESULT:      -7.9      6.466      9.806
REMARK  6 active torsions:
REMARK  status: ('A' for Active; 'I' for Inactive)
REMARK    1  A    between atoms: O_2  and  C_3 
REMARK    2  A    between atoms: C_6  and  C_7 
REMARK    3  A    between atoms: C_7  and  N_8 
REMARK       I    between atoms: N_8  and  C_9 
REMARK    4  A    between atoms: C_9  and  C_10 
REMARK    5  A    between atoms: C_10  and  O_11 
REMARK    6  A    between atoms: N_12  and  C_13 
ROOT
HETATM    1  C   UNL     1       4.679  31.026  58.051  1.00  0.00     0.256 C 
HETATM    2  N   UNL     1       3.908  32.042  57.326  1.00  0.00    -0.248 N 
HETATM    3  C   UNL     1       2.947  31.657  56.404  1.00  0.00     0.330 C 
HETATM    4  O   UNL     1       2.013  32.366  56.030  1.00  0.00    -0.246 OA
HETATM    5  N   UNL     1       3.056  30.404  55.878  1.00  0.00    -0.308 N 
HETATM    6  C   UNL     1       4.087  29.516  56.151  1.00  0.00     0.048 A 
HETATM    7  C   UNL     1       4.966  29.801  57.194  1.00  0.00     0.034 A 
HETATM    8  C   UNL     1       4.219  28.362  55.376  1.00  0.00     0.030 A 
HETATM    9  C   UNL     1       5.267  27.480  55.627  1.00  0.00     0.002 A 
HETATM   10  C   UNL     1       6.161  27.744  56.660  1.00  0.00     0.001 A 
HETATM   11  C   UNL     1       6.006  28.888  57.449  1.00  0.00     0.015 A 
HETATM   12  H   UNL     1       2.379  30.194  55.157  1.00  0.00     0.170 HD
ENDROOT
BRANCH   1  13
HETATM   13  C   UNL     1       6.049  31.593  58.638  1.00  0.00     0.279 C 
HETATM   14  N   UNL     1       6.086  31.593  60.025  1.00  0.00    -0.352 N 
HETATM   15  H   UNL     1       5.303  31.162  60.508  1.00  0.00     0.162 HD
HETATM   16  O   UNL     1       6.987  31.991  57.949  1.00  0.00    -0.268 OA
BRANCH  14  17
HETATM   17  C   UNL     1       7.218  32.056  60.786  1.00  0.00     0.161 C 
BRANCH  17  18
HETATM   18  C   UNL     1       6.806  32.503  62.162  1.00  0.00    -0.040 A 
HETATM   19  C   UNL     1       7.767  32.662  63.171  1.00  0.00     0.011 A 
HETATM   20  C   UNL     1       7.398  33.102  64.446  1.00  0.00     0.037 A 
HETATM   21  C   UNL     1       6.063  33.384  64.732  1.00  0.00     0.068 A 
HETATM   22  C   UNL     1       5.098  33.187  63.742  1.00  0.00     0.037 A 
HETATM   23  C   UNL     1       5.462  32.751  62.466  1.00  0.00     0.011 A 
BRANCH  21  24
HETATM   24  O   UNL     1       5.577  33.838  65.928  1.00  0.00    -0.356 OA
HETATM   25  C   UNL     1       4.186  34.134  65.975  1.00  0.00     0.210 C 
ENDBRANCH  21  24
ENDBRANCH  17  18
ENDBRANCH  14  17
ENDBRANCH   1  13
BRANCH   1  26
HETATM   26  O   UNL     1       3.857  30.556  59.129  1.00  0.00    -0.359 OA
HETATM   27  H   UNL     1       3.560  29.678  58.834  1.00  0.00     0.213 HD
ENDBRANCH   1  26
BRANCH   2  28
HETATM   28  C   UNL     1       3.986  33.437  57.666  1.00  0.00     0.120 A 
HETATM   29  C   UNL     1       3.458  33.959  58.852  1.00  0.00     0.146 A 
HETATM   30  F   UNL     1       2.779  33.166  59.695  1.00  0.00    -0.204 F 
HETATM   31  C   UNL     1       3.558  35.315  59.169  1.00  0.00     0.045 A 
HETATM   32  C   UNL     1       4.198  36.188  58.292  1.00  0.00     0.006 A 
HETATM   33  C   UNL     1       4.732  35.697  57.103  1.00  0.00     0.045 A 
HETATM   34  C   UNL     1       4.624  34.339  56.801  1.00  0.00     0.146 A 
HETATM   35  F   UNL     1       5.225  33.902  55.682  1.00  0.00    -0.204 F 
ENDBRANCH   2  28
TORSDOF 6
ENDMDL
MODEL 10
REMARK VINA RESULT:      -7.8      3.038      5.834
REMARK  6 active torsions:
REMARK  status: ('A' for Active; 'I' for Inactive)
REMARK    1  A    between atoms: O_2  and  C_3 
REMARK    2  A    between atoms: C_6  and  C_7 
REMARK    3  A    between atoms: C_7  and  N_8 
REMARK       I    between atoms: N_8  and  C_9 
REMARK    4  A    between atoms: C_9  and  C_10 
REMARK    5  A    between atoms: C_10  and  O_11 
REMARK    6  A    between atoms: N_12  and  C_13 
ROOT
HETATM    1  C   UNL     1       4.669  29.459  51.603  1.00  0.00     0.256 C 
HETATM    2  N   UNL     1       3.453  29.963  50.955  1.00  0.00    -0.248 N 
HETATM    3  C   UNL     1       2.725  30.984  51.546  1.00  0.00     0.330 C 
HETATM    4  O   UNL     1       1.941  31.720  50.946  1.00  0.00    -0.246 OA
HETATM    5  N   UNL     1       2.892  31.175  52.885  1.00  0.00    -0.308 N 
HETATM    6  C   UNL     1       3.688  30.386  53.705  1.00  0.00     0.048 A 
HETATM    7  C   UNL     1       4.560  29.469  53.122  1.00  0.00     0.034 A 
HETATM    8  C   UNL     1       3.595  30.529  55.091  1.00  0.00     0.030 A 
HETATM    9  C   UNL     1       4.370  29.723  55.921  1.00  0.00     0.002 A 
HETATM   10  C   UNL     1       5.245  28.797  55.362  1.00  0.00     0.001 A 
HETATM   11  C   UNL     1       5.352  28.678  53.973  1.00  0.00     0.015 A 
HETATM   12  H   UNL     1       2.288  31.879  53.285  1.00  0.00     0.170 HD
ENDROOT
BRANCH   1  13
HETATM   13  C   UNL     1       5.070  27.996  51.112  1.00  0.00     0.279 C 
HETATM   14  N   UNL     1       4.554  26.992  51.919  1.00  0.00    -0.352 N 
HETATM   15  H   UNL     1       3.921  27.277  52.662  1.00  0.00     0.162 HD
HETATM   16  O   UNL     1       5.760  27.762  50.121  1.00  0.00    -0.268 OA
BRANCH  14  17
HETATM   17  C   UNL     1       4.777  25.590  51.678  1.00  0.00     0.161 C 
BRANCH  17  18
HETATM   18  C   UNL     1       5.837  25.039  52.592  1.00  0.00    -0.040 A 
HETATM   19  C   UNL     1       5.608  24.958  53.973  1.00  0.00     0.011 A 
HETATM   20  C   UNL     1       6.577  24.422  54.828  1.00  0.00     0.037 A 
HETATM   21  C   UNL     1       7.790  23.965  54.314  1.00  0.00     0.068 A 
HETATM   22  C   UNL     1       8.038  24.082  52.945  1.00  0.00     0.037 A 
HETATM   23  C   UNL     1       7.072  24.613  52.088  1.00  0.00     0.011 A 
BRANCH  21  24
HETATM   24  O   UNL     1       8.806  23.405  55.038  1.00  0.00    -0.356 OA
HETATM   25  C   UNL     1       9.221  22.102  54.644  1.00  0.00     0.210 C 
ENDBRANCH  21  24
ENDBRANCH  17  18
ENDBRANCH  14  17
ENDBRANCH   1  13
BRANCH   1  26
HETATM   26  O   UNL     1       5.729  30.375  51.289  1.00  0.00    -0.359 OA
HETATM   27  H   UNL     1       5.310  31.031  50.706  1.00  0.00     0.213 HD
ENDBRANCH   1  26
BRANCH   2  28
HETATM   28  C   UNL     1       3.079  29.556  49.628  1.00  0.00     0.120 A 
HETATM   29  C   UNL     1       3.786  29.949  48.487  1.00  0.00     0.146 A 
HETATM   30  F   UNL     1       4.818  30.800  48.592  1.00  0.00    -0.204 F 
HETATM   31  C   UNL     1       3.413  29.529  47.209  1.00  0.00     0.045 A 
HETATM   32  C   UNL     1       2.308  28.697  47.045  1.00  0.00     0.006 A 
HETATM   33  C   UNL     1       1.583  28.291  48.163  1.00  0.00     0.045 A 
HETATM   34  C   UNL     1       1.969  28.718  49.435  1.00  0.00     0.146 A 
HETATM   35  F   UNL     1       1.287  28.236  50.486  1.00  0.00    -0.204 F 
ENDBRANCH   2  28
TORSDOF 6
ENDMDL
