MODEL 1
REMARK VINA RESULT:      -9.9      0.000      0.000
REMARK  9 active torsions:
REMARK  status: ('A' for Active; 'I' for Inactive)
REMARK    1  A    between atoms: C_4  and  C_5 
REMARK    2  A    between atoms: C_11  and  C_12 
REMARK    3  A    between atoms: C_15  and  C_16 
REMARK    4  A    between atoms: C_16  and  N_17 
REMARK    5  A    between atoms: N_17  and  C_18 
REMARK    6  A    between atoms: C_18  and  N_19 
REMARK    7  A    between atoms: N_19  and  C_20 
REMARK    8  A    between atoms: C_22  and  C_23 
REMARK    9  A    between atoms: C_23  and  O_24 
ROOT
HETATM    1  C   UNL     1       5.709  26.689  55.407  1.00  0.00     0.067 C 
HETATM    2  C   UNL     1       6.315  27.861  54.585  1.00  0.00     0.001 C 
HETATM    3  C   UNL     1       7.516  28.494  55.323  1.00  0.00     0.040 C 
HETATM    4  C   UNL     1       7.067  29.119  56.653  1.00  0.00     0.206 C 
HETATM    5  N   UNL     1       5.613  28.697  56.895  1.00  0.00    -0.065 N 
HETATM    6  H   UNL     1       5.337  29.014  57.834  1.00  0.00     0.280 HD
HETATM    7  C   UNL     1       5.406  27.192  56.836  1.00  0.00     0.246 C 
HETATM    8  C   UNL     1       5.224  28.951  54.469  1.00  0.00     0.033 C 
HETATM    9  C   UNL     1       4.727  29.368  55.860  1.00  0.00     0.236 C 
ENDROOT
BRANCH   4  10
HETATM   10  C   UNL     1       7.978  28.839  57.866  1.00  0.00     0.155 C 
BRANCH  10  11
HETATM   11  N   UNL     1       7.761  29.714  59.014  1.00  0.00    -0.365 N 
HETATM   12  H   UNL     1       7.522  29.266  59.892  1.00  0.00     0.161 HD
BRANCH  11  13
HETATM   13  C   UNL     1       8.330  30.947  59.186  1.00  0.00     0.172 C 
HETATM   14  S   UNL     1       9.817  31.381  58.568  1.00  0.00    -0.041 SA
BRANCH  13  15
HETATM   15  N   UNL     1       7.552  31.896  59.794  1.00  0.00    -0.333 N 
HETATM   16  H   UNL     1       7.140  32.569  59.153  1.00  0.00     0.168 HD
BRANCH  15  17
HETATM   17  C   UNL     1       7.337  32.150  61.169  1.00  0.00     0.035 A 
HETATM   18  C   UNL     1       6.066  32.267  61.731  1.00  0.00     0.047 A 
HETATM   19  C   UNL     1       5.899  32.583  63.086  1.00  0.00     0.041 A 
HETATM   20  C   UNL     1       7.017  32.714  63.908  1.00  0.00     0.018 A 
HETATM   21  C   UNL     1       8.293  32.528  63.368  1.00  0.00     0.003 A 
HETATM   22  C   UNL     1       8.451  32.244  62.006  1.00  0.00     0.029 A 
BRANCH  19  23
HETATM   23  C   UNL     1       4.509  32.800  63.560  1.00  0.00     0.293 C 
HETATM   24  O   UNL     1       3.542  32.698  62.819  1.00  0.00    -0.259 OA
BRANCH  23  25
HETATM   25  O   UNL     1       4.491  33.089  64.880  1.00  0.00    -0.323 OA
HETATM   26  C   UNL     1       3.902  34.353  65.192  1.00  0.00     0.213 C 
ENDBRANCH  23  25
ENDBRANCH  19  23
ENDBRANCH  15  17
ENDBRANCH  13  15
ENDBRANCH  11  13
ENDBRANCH  10  11
ENDBRANCH   4  10
BRANCH   1  27
HETATM   27  C   UNL     1       6.519  25.420  55.394  1.00  0.00     0.038 A 
HETATM   28  N   UNL     1       7.277  24.988  56.467  1.00  0.00    -0.277 N 
HETATM   29  C   UNL     1       7.434  25.605  57.766  1.00  0.00     0.179 C 
HETATM   30  N   UNL     1       7.927  23.841  56.238  1.00  0.00    -0.170 NA
HETATM   31  C   UNL     1       7.501  23.446  55.037  1.00  0.00     0.112 A 
HETATM   32  C   UNL     1       6.639  24.403  54.461  1.00  0.00     0.063 A 
BRANCH  31  33
HETATM   33  C   UNL     1       7.881  22.141  54.427  1.00  0.00     0.105 A 
HETATM   34  O   UNL     1       8.419  21.087  55.116  1.00  0.00    -0.320 OA
HETATM   35  C   UNL     1       8.670  20.104  54.214  1.00  0.00     0.142 A 
HETATM   36  C   UNL     1       8.296  20.498  52.952  1.00  0.00     0.027 A 
HETATM   37  C   UNL     1       7.781  21.809  53.088  1.00  0.00     0.041 A 
ENDBRANCH  31  33
ENDBRANCH   1  27
TORSDOF 9
ENDMDL
MODEL 2
REMARK VINA RESULT:      -9.8      1.210      1.652
REMARK  9 active torsions:
REMARK  status: ('A' for Active; 'I' for Inactive)
REMARK    1  A    between atoms: C_4  and  C_5 
REMARK    2  A    between atoms: C_11  and  C_12 
REMARK    3  A    between atoms: C_15  and  C_16 
REMARK    4  A    between atoms: C_16  and  N_17 
REMARK    5  A    between atoms: N_17  and  C_18 
REMARK    6  A    between atoms: C_18  and  N_19 
REMARK    7  A    between atoms: N_19  and  C_20 
REMARK    8  A    between atoms: C_22  and  C_23 
REMARK    9  A    between atoms: C_23  and  O_24 
ROOT
HETATM    1  C   UNL     1       5.088  27.045  55.130  1.00  0.00     0.067 C 
HETATM    2  C   UNL     1       5.803  28.261  54.478  1.00  0.00     0.001 C 
HETATM    3  C   UNL     1       7.100  28.615  55.239  1.00  0.00     0.040 C 
HETATM    4  C   UNL     1       6.782  29.053  56.678  1.00  0.00     0.206 C 
HETATM    5  N   UNL     1       5.297  28.767  56.930  1.00  0.00    -0.065 N 
HETATM    6  H   UNL     1       5.097  28.950  57.924  1.00  0.00     0.280 HD
HETATM    7  C   UNL     1       4.903  27.329  56.637  1.00  0.00     0.246 C 
HETATM    8  C   UNL     1       4.852  29.474  54.606  1.00  0.00     0.033 C 
HETATM    9  C   UNL     1       4.463  29.703  56.072  1.00  0.00     0.236 C 
ENDROOT
BRANCH   4  10
HETATM   10  C   UNL     1       7.695  28.467  57.775  1.00  0.00     0.155 C 
BRANCH  10  11
HETATM   11  N   UNL     1       7.909  29.336  58.928  1.00  0.00    -0.365 N 
HETATM   12  H   UNL     1       7.963  28.887  59.835  1.00  0.00     0.161 HD
BRANCH  11  13
HETATM   13  C   UNL     1       8.546  30.548  58.896  1.00  0.00     0.172 C 
HETATM   14  S   UNL     1      10.007  30.812  58.135  1.00  0.00    -0.041 SA
BRANCH  13  15
HETATM   15  N   UNL     1       7.858  31.610  59.418  1.00  0.00    -0.333 N 
HETATM   16  H   UNL     1       7.585  32.307  58.729  1.00  0.00     0.168 HD
BRANCH  15  17
HETATM   17  C   UNL     1       7.579  31.939  60.765  1.00  0.00     0.035 A 
HETATM   18  C   UNL     1       6.292  32.203  61.233  1.00  0.00     0.047 A 
HETATM   19  C   UNL     1       6.068  32.588  62.561  1.00  0.00     0.041 A 
HETATM   20  C   UNL     1       7.137  32.642  63.454  1.00  0.00     0.018 A 
HETATM   21  C   UNL     1       8.421  32.311  63.011  1.00  0.00     0.003 A 
HETATM   22  C   UNL     1       8.639  31.958  61.673  1.00  0.00     0.029 A 
BRANCH  19  23
HETATM   23  C   UNL     1       4.679  32.959  62.930  1.00  0.00     0.293 C 
HETATM   24  O   UNL     1       3.818  33.184  62.091  1.00  0.00    -0.259 OA
BRANCH  23  25
HETATM   25  O   UNL     1       4.527  32.982  64.272  1.00  0.00    -0.323 OA
HETATM   26  C   UNL     1       4.013  34.215  64.780  1.00  0.00     0.213 C 
ENDBRANCH  23  25
ENDBRANCH  19  23
ENDBRANCH  15  17
ENDBRANCH  13  15
ENDBRANCH  11  13
ENDBRANCH  10  11
ENDBRANCH   4  10
BRANCH   1  27
HETATM   27  C   UNL     1       5.733  25.710  54.861  1.00  0.00     0.038 A 
HETATM   28  N   UNL     1       5.817  25.145  53.602  1.00  0.00    -0.277 N 
HETATM   29  C   UNL     1       5.354  25.680  52.340  1.00  0.00     0.179 C 
HETATM   30  N   UNL     1       6.420  23.950  53.590  1.00  0.00    -0.170 NA
HETATM   31  C   UNL     1       6.847  23.775  54.842  1.00  0.00     0.112 A 
HETATM   32  C   UNL     1       6.427  24.833  55.677  1.00  0.00     0.063 A 
BRANCH  31  33
HETATM   33  C   UNL     1       7.683  22.616  55.262  1.00  0.00     0.105 A 
HETATM   34  O   UNL     1       8.093  21.610  54.429  1.00  0.00    -0.320 OA
HETATM   35  C   UNL     1       8.791  20.722  55.185  1.00  0.00     0.142 A 
HETATM   36  C   UNL     1       8.848  21.140  56.492  1.00  0.00     0.027 A 
HETATM   37  C   UNL     1       8.139  22.364  56.543  1.00  0.00     0.041 A 
ENDBRANCH  31  33
ENDBRANCH   1  27
TORSDOF 9
ENDMDL
MODEL 3
REMARK VINA RESULT:      -9.7      3.844      5.764
REMARK  9 active torsions:
REMARK  status: ('A' for Active; 'I' for Inactive)
REMARK    1  A    between atoms: C_4  and  C_5 
REMARK    2  A    between atoms: C_11  and  C_12 
REMARK    3  A    between atoms: C_15  and  C_16 
REMARK    4  A    between atoms: C_16  and  N_17 
REMARK    5  A    between atoms: N_17  and  C_18 
REMARK    6  A    between atoms: C_18  and  N_19 
REMARK    7  A    between atoms: N_19  and  C_20 
REMARK    8  A    between atoms: C_22  and  C_23 
REMARK    9  A    between atoms: C_23  and  O_24 
ROOT
HETATM    1  C   UNL     1       7.372  26.647  54.789  1.00  0.00     0.067 C 
HETATM    2  C   UNL     1       6.645  25.750  55.830  1.00  0.00     0.001 C 
HETATM    3  C   UNL     1       5.346  26.422  56.331  1.00  0.00     0.040 C 
HETATM    4  C   UNL     1       5.664  27.730  57.071  1.00  0.00     0.206 C 
HETATM    5  N   UNL     1       7.152  28.033  56.859  1.00  0.00    -0.065 N 
HETATM    6  H   UNL     1       7.352  28.963  57.254  1.00  0.00     0.280 HD
HETATM    7  C   UNL     1       7.557  28.057  55.394  1.00  0.00     0.246 C 
HETATM    8  C   UNL     1       7.586  25.609  57.049  1.00  0.00     0.033 C 
HETATM    9  C   UNL     1       7.976  26.990  57.593  1.00  0.00     0.236 C 
ENDROOT
BRANCH   4  10
HETATM   10  C   UNL     1       4.758  28.931  56.730  1.00  0.00     0.155 C 
BRANCH  10  11
HETATM   11  N   UNL     1       4.308  29.711  57.878  1.00  0.00    -0.365 N 
HETATM   12  H   UNL     1       4.280  29.234  58.772  1.00  0.00     0.161 HD
BRANCH  11  13
HETATM   13  C   UNL     1       4.424  31.069  58.005  1.00  0.00     0.172 C 
HETATM   14  S   UNL     1       3.883  32.160  56.865  1.00  0.00    -0.041 SA
BRANCH  13  15
HETATM   15  N   UNL     1       4.899  31.530  59.204  1.00  0.00    -0.333 N 
HETATM   16  H   UNL     1       4.172  31.802  59.862  1.00  0.00     0.168 HD
BRANCH  15  17
HETATM   17  C   UNL     1       6.226  31.795  59.614  1.00  0.00     0.035 A 
HETATM   18  C   UNL     1       7.338  31.520  58.818  1.00  0.00     0.047 A 
HETATM   19  C   UNL     1       8.639  31.739  59.290  1.00  0.00     0.041 A 
HETATM   20  C   UNL     1       8.832  32.309  60.547  1.00  0.00     0.018 A 
HETATM   21  C   UNL     1       7.721  32.654  61.323  1.00  0.00     0.003 A 
HETATM   22  C   UNL     1       6.425  32.402  60.856  1.00  0.00     0.029 A 
BRANCH  19  23
HETATM   23  C   UNL     1       9.755  31.304  58.413  1.00  0.00     0.293 C 
HETATM   24  O   UNL     1      10.774  31.966  58.276  1.00  0.00    -0.259 OA
BRANCH  23  25
HETATM   25  O   UNL     1       9.483  30.109  57.843  1.00  0.00    -0.323 OA
HETATM   26  C   UNL     1      10.453  29.689  56.881  1.00  0.00     0.213 C 
ENDBRANCH  23  25
ENDBRANCH  19  23
ENDBRANCH  15  17
ENDBRANCH  13  15
ENDBRANCH  11  13
ENDBRANCH  10  11
ENDBRANCH   4  10
BRANCH   1  27
HETATM   27  C   UNL     1       6.737  26.676  53.424  1.00  0.00     0.038 A 
HETATM   28  N   UNL     1       6.838  25.638  52.516  1.00  0.00    -0.277 N 
HETATM   29  C   UNL     1       7.513  24.368  52.668  1.00  0.00     0.179 C 
HETATM   30  N   UNL     1       6.209  25.875  51.358  1.00  0.00    -0.170 NA
HETATM   31  C   UNL     1       5.582  27.038  51.547  1.00  0.00     0.112 A 
HETATM   32  C   UNL     1       5.895  27.587  52.809  1.00  0.00     0.063 A 
BRANCH  31  33
HETATM   33  C   UNL     1       4.654  27.635  50.546  1.00  0.00     0.105 A 
HETATM   34  O   UNL     1       3.564  28.403  50.856  1.00  0.00    -0.320 OA
HETATM   35  C   UNL     1       2.949  28.718  49.686  1.00  0.00     0.142 A 
HETATM   36  C   UNL     1       3.627  28.175  48.622  1.00  0.00     0.027 A 
HETATM   37  C   UNL     1       4.731  27.482  49.174  1.00  0.00     0.041 A 
ENDBRANCH  31  33
ENDBRANCH   1  27
TORSDOF 9
ENDMDL
MODEL 4
REMARK VINA RESULT:      -9.3      1.691      2.484
REMARK  9 active torsions:
REMARK  status: ('A' for Active; 'I' for Inactive)
REMARK    1  A    between atoms: C_4  and  C_5 
REMARK    2  A    between atoms: C_11  and  C_12 
REMARK    3  A    between atoms: C_15  and  C_16 
REMARK    4  A    between atoms: C_16  and  N_17 
REMARK    5  A    between atoms: N_17  and  C_18 
REMARK    6  A    between atoms: C_18  and  N_19 
REMARK    7  A    between atoms: N_19  and  C_20 
REMARK    8  A    between atoms: C_22  and  C_23 
REMARK    9  A    between atoms: C_23  and  O_24 
ROOT
HETATM    1  C   UNL     1       5.516  26.695  54.674  1.00  0.00     0.067 C 
HETATM    2  C   UNL     1       6.227  27.862  53.934  1.00  0.00     0.001 C 
HETATM    3  C   UNL     1       7.581  28.198  54.599  1.00  0.00     0.040 C 
HETATM    4  C   UNL     1       7.369  28.696  56.038  1.00  0.00     0.206 C 
HETATM    5  N   UNL     1       5.895  28.470  56.393  1.00  0.00    -0.065 N 
HETATM    6  H   UNL     1       5.765  28.695  57.390  1.00  0.00     0.280 HD
HETATM    7  C   UNL     1       5.437  27.037  56.179  1.00  0.00     0.246 C 
HETATM    8  C   UNL     1       5.325  29.111  54.077  1.00  0.00     0.033 C 
HETATM    9  C   UNL     1       5.038  29.404  55.555  1.00  0.00     0.236 C 
ENDROOT
BRANCH   4  10
HETATM   10  C   UNL     1       8.331  28.118  57.095  1.00  0.00     0.155 C 
BRANCH  10  11
HETATM   11  N   UNL     1       9.358  29.042  57.565  1.00  0.00    -0.365 N 
HETATM   12  H   UNL     1      10.170  29.164  56.971  1.00  0.00     0.161 HD
BRANCH  11  13
HETATM   13  C   UNL     1       9.140  30.111  58.393  1.00  0.00     0.172 C 
HETATM   14  S   UNL     1      10.121  31.459  58.449  1.00  0.00    -0.041 SA
BRANCH  13  15
HETATM   15  N   UNL     1       7.973  30.098  59.109  1.00  0.00    -0.333 N 
HETATM   16  H   UNL     1       7.656  29.167  59.369  1.00  0.00     0.168 HD
BRANCH  15  17
HETATM   17  C   UNL     1       7.092  31.156  59.430  1.00  0.00     0.035 A 
HETATM   18  C   UNL     1       7.174  31.880  60.620  1.00  0.00     0.047 A 
HETATM   19  C   UNL     1       6.241  32.878  60.927  1.00  0.00     0.041 A 
HETATM   20  C   UNL     1       5.253  33.209  60.001  1.00  0.00     0.018 A 
HETATM   21  C   UNL     1       5.206  32.537  58.776  1.00  0.00     0.003 A 
HETATM   22  C   UNL     1       6.124  31.519  58.492  1.00  0.00     0.029 A 
BRANCH  19  23
HETATM   23  C   UNL     1       6.345  33.509  62.267  1.00  0.00     0.293 C 
HETATM   24  O   UNL     1       6.121  34.697  62.450  1.00  0.00    -0.259 OA
BRANCH  23  25
HETATM   25  O   UNL     1       6.685  32.596  63.204  1.00  0.00    -0.323 OA
HETATM   26  C   UNL     1       7.573  33.094  64.207  1.00  0.00     0.213 C 
ENDBRANCH  23  25
ENDBRANCH  19  23
ENDBRANCH  15  17
ENDBRANCH  13  15
ENDBRANCH  11  13
ENDBRANCH  10  11
ENDBRANCH   4  10
BRANCH   1  27
HETATM   27  C   UNL     1       6.100  25.331  54.415  1.00  0.00     0.038 A 
HETATM   28  N   UNL     1       6.258  24.799  53.148  1.00  0.00    -0.277 N 
HETATM   29  C   UNL     1       5.941  25.400  51.871  1.00  0.00     0.179 C 
HETATM   30  N   UNL     1       6.786  23.569  53.145  1.00  0.00    -0.170 NA
HETATM   31  C   UNL     1       7.090  23.329  54.423  1.00  0.00     0.112 A 
HETATM   32  C   UNL     1       6.665  24.386  55.255  1.00  0.00     0.063 A 
BRANCH  31  33
HETATM   33  C   UNL     1       7.814  22.107  54.871  1.00  0.00     0.105 A 
HETATM   34  O   UNL     1       8.499  21.998  56.052  1.00  0.00    -0.320 OA
HETATM   35  C   UNL     1       9.056  20.759  56.079  1.00  0.00     0.142 A 
HETATM   36  C   UNL     1       8.737  20.060  54.941  1.00  0.00     0.027 A 
HETATM   37  C   UNL     1       7.930  20.925  54.164  1.00  0.00     0.041 A 
ENDBRANCH  31  33
ENDBRANCH   1  27
TORSDOF 9
ENDMDL
MODEL 5
REMARK VINA RESULT:      -9.3      2.410     10.306
REMARK  9 active torsions:
REMARK  status: ('A' for Active; 'I' for Inactive)
REMARK    1  A    between atoms: C_4  and  C_5 
REMARK    2  A    between atoms: C_11  and  C_12 
REMARK    3  A    between atoms: C_15  and  C_16 
REMARK    4  A    between atoms: C_16  and  N_17 
REMARK    5  A    between atoms: N_17  and  C_18 
REMARK    6  A    between atoms: C_18  and  N_19 
REMARK    7  A    between atoms: N_19  and  C_20 
REMARK    8  A    between atoms: C_22  and  C_23 
REMARK    9  A    between atoms: C_23  and  O_24 
ROOT
HETATM    1  C   UNL     1       4.218  32.521  56.734  1.00  0.00     0.067 C 
HETATM    2  C   UNL     1       3.114  31.427  56.689  1.00  0.00     0.001 C 
HETATM    3  C   UNL     1       3.734  30.018  56.556  1.00  0.00     0.040 C 
HETATM    4  C   UNL     1       4.496  29.884  55.228  1.00  0.00     0.206 C 
HETATM    5  N   UNL     1       4.568  31.278  54.593  1.00  0.00    -0.065 N 
HETATM    6  H   UNL     1       5.171  31.223  53.760  1.00  0.00     0.280 HD
HETATM    7  C   UNL     1       5.153  32.331  55.519  1.00  0.00     0.246 C 
HETATM    8  C   UNL     1       2.274  31.678  55.415  1.00  0.00     0.033 C 
HETATM    9  C   UNL     1       3.170  31.699  54.170  1.00  0.00     0.236 C 
ENDROOT
BRANCH   4  10
HETATM   10  C   UNL     1       5.875  29.197  55.312  1.00  0.00     0.155 C 
BRANCH  10  11
HETATM   11  N   UNL     1       5.870  27.880  55.940  1.00  0.00    -0.365 N 
HETATM   12  H   UNL     1       5.043  27.310  55.801  1.00  0.00     0.161 HD
BRANCH  11  13
HETATM   13  C   UNL     1       6.984  27.138  56.229  1.00  0.00     0.172 C 
HETATM   14  S   UNL     1       8.354  27.758  56.950  1.00  0.00    -0.041 SA
BRANCH  13  15
HETATM   15  N   UNL     1       6.887  25.788  56.018  1.00  0.00    -0.333 N 
HETATM   16  H   UNL     1       6.587  25.261  56.835  1.00  0.00     0.168 HD
BRANCH  15  17
HETATM   17  C   UNL     1       7.252  25.016  54.891  1.00  0.00     0.035 A 
HETATM   18  C   UNL     1       7.413  23.631  54.937  1.00  0.00     0.047 A 
HETATM   19  C   UNL     1       7.838  22.913  53.812  1.00  0.00     0.041 A 
HETATM   20  C   UNL     1       8.038  23.577  52.603  1.00  0.00     0.018 A 
HETATM   21  C   UNL     1       7.811  24.954  52.530  1.00  0.00     0.003 A 
HETATM   22  C   UNL     1       7.416  25.669  53.668  1.00  0.00     0.029 A 
BRANCH  19  23
HETATM   23  C   UNL     1       8.091  21.462  53.995  1.00  0.00     0.293 C 
HETATM   24  O   UNL     1       7.665  20.620  53.217  1.00  0.00    -0.259 OA
BRANCH  23  25
HETATM   25  O   UNL     1       8.851  21.240  55.091  1.00  0.00    -0.323 OA
HETATM   26  C   UNL     1       8.403  20.150  55.899  1.00  0.00     0.213 C 
ENDBRANCH  23  25
ENDBRANCH  19  23
ENDBRANCH  15  17
ENDBRANCH  13  15
ENDBRANCH  11  13
ENDBRANCH  10  11
ENDBRANCH   4  10
BRANCH   1  27
HETATM   27  C   UNL     1       4.965  32.613  58.039  1.00  0.00     0.038 A 
HETATM   28  N   UNL     1       4.486  33.291  59.144  1.00  0.00    -0.277 N 
HETATM   29  C   UNL     1       3.233  33.999  59.295  1.00  0.00     0.179 C 
HETATM   30  N   UNL     1       5.314  33.257  60.195  1.00  0.00    -0.170 NA
HETATM   31  C   UNL     1       6.304  32.445  59.818  1.00  0.00     0.112 A 
HETATM   32  C   UNL     1       6.144  32.034  58.478  1.00  0.00     0.063 A 
BRANCH  31  33
HETATM   33  C   UNL     1       7.404  32.024  60.731  1.00  0.00     0.105 A 
HETATM   34  O   UNL     1       7.221  31.352  61.910  1.00  0.00    -0.320 OA
HETATM   35  C   UNL     1       8.447  31.190  62.473  1.00  0.00     0.142 A 
HETATM   36  C   UNL     1       9.422  31.737  61.675  1.00  0.00     0.027 A 
HETATM   37  C   UNL     1       8.752  32.269  60.548  1.00  0.00     0.041 A 
ENDBRANCH  31  33
ENDBRANCH   1  27
TORSDOF 9
ENDMDL
MODEL 6
REMARK VINA RESULT:      -9.3      1.601      2.313
REMARK  9 active torsions:
REMARK  status: ('A' for Active; 'I' for Inactive)
REMARK    1  A    between atoms: C_4  and  C_5 
REMARK    2  A    between atoms: C_11  and  C_12 
REMARK    3  A    between atoms: C_15  and  C_16 
REMARK    4  A    between atoms: C_16  and  N_17 
REMARK    5  A    between atoms: N_17  and  C_18 
REMARK    6  A    between atoms: C_18  and  N_19 
REMARK    7  A    between atoms: N_19  and  C_20 
REMARK    8  A    between atoms: C_22  and  C_23 
REMARK    9  A    between atoms: C_23  and  O_24 
ROOT
HETATM    1  C   UNL     1       4.790  27.846  55.655  1.00  0.00     0.067 C 
HETATM    2  C   UNL     1       5.232  29.229  55.101  1.00  0.00     0.001 C 
HETATM    3  C   UNL     1       6.660  29.585  55.572  1.00  0.00     0.040 C 
HETATM    4  C   UNL     1       6.707  29.725  57.102  1.00  0.00     0.206 C 
HETATM    5  N   UNL     1       5.361  29.238  57.652  1.00  0.00    -0.065 N 
HETATM    6  H   UNL     1       5.420  29.220  58.680  1.00  0.00     0.280 HD
HETATM    7  C   UNL     1       4.992  27.839  57.187  1.00  0.00     0.246 C 
HETATM    8  C   UNL     1       4.276  30.288  55.699  1.00  0.00     0.033 C 
HETATM    9  C   UNL     1       4.275  30.212  57.231  1.00  0.00     0.236 C 
ENDROOT
BRANCH   4  10
HETATM   10  C   UNL     1       7.911  29.060  57.799  1.00  0.00     0.155 C 
BRANCH  10  11
HETATM   11  N   UNL     1       8.019  29.325  59.230  1.00  0.00    -0.365 N 
HETATM   12  H   UNL     1       8.112  28.520  59.839  1.00  0.00     0.161 HD
BRANCH  11  13
HETATM   13  C   UNL     1       8.521  30.472  59.786  1.00  0.00     0.172 C 
HETATM   14  S   UNL     1       9.534  31.527  58.984  1.00  0.00    -0.041 SA
BRANCH  13  15
HETATM   15  N   UNL     1       8.045  30.807  61.025  1.00  0.00    -0.333 N 
HETATM   16  H   UNL     1       8.391  30.215  61.777  1.00  0.00     0.168 HD
BRANCH  15  17
HETATM   17  C   UNL     1       7.066  31.758  61.396  1.00  0.00     0.035 A 
HETATM   18  C   UNL     1       6.849  32.152  62.716  1.00  0.00     0.047 A 
HETATM   19  C   UNL     1       5.825  33.049  63.046  1.00  0.00     0.041 A 
HETATM   20  C   UNL     1       5.051  33.617  62.035  1.00  0.00     0.018 A 
HETATM   21  C   UNL     1       5.308  33.281  60.702  1.00  0.00     0.003 A 
HETATM   22  C   UNL     1       6.313  32.359  60.385  1.00  0.00     0.029 A 
BRANCH  19  23
HETATM   23  C   UNL     1       5.601  33.314  64.489  1.00  0.00     0.293 C 
HETATM   24  O   UNL     1       4.525  33.106  65.032  1.00  0.00    -0.259 OA
BRANCH  23  25
HETATM   25  O   UNL     1       6.728  33.774  65.075  1.00  0.00    -0.323 OA
HETATM   26  C   UNL     1       6.607  33.987  66.483  1.00  0.00     0.213 C 
ENDBRANCH  23  25
ENDBRANCH  19  23
ENDBRANCH  15  17
ENDBRANCH  13  15
ENDBRANCH  11  13
ENDBRANCH  10  11
ENDBRANCH   4  10
BRANCH   1  27
HETATM   27  C   UNL     1       5.421  26.659  54.976  1.00  0.00     0.038 A 
HETATM   28  N   UNL     1       5.288  26.396  53.625  1.00  0.00    -0.277 N 
HETATM   29  C   UNL     1       4.578  27.160  52.623  1.00  0.00     0.179 C 
HETATM   30  N   UNL     1       5.921  25.284  53.231  1.00  0.00    -0.170 NA
HETATM   31  C   UNL     1       6.581  24.869  54.314  1.00  0.00     0.112 A 
HETATM   32  C   UNL     1       6.287  25.680  55.431  1.00  0.00     0.063 A 
BRANCH  31  33
HETATM   33  C   UNL     1       7.522  23.715  54.302  1.00  0.00     0.105 A 
HETATM   34  O   UNL     1       8.066  23.167  53.170  1.00  0.00    -0.320 OA
HETATM   35  C   UNL     1       8.829  22.114  53.562  1.00  0.00     0.142 A 
HETATM   36  C   UNL     1       8.797  21.974  54.929  1.00  0.00     0.027 A 
HETATM   37  C   UNL     1       7.960  23.010  55.408  1.00  0.00     0.041 A 
ENDBRANCH  31  33
ENDBRANCH   1  27
TORSDOF 9
ENDMDL
MODEL 7
REMARK VINA RESULT:      -9.2      6.515     10.355
REMARK  9 active torsions:
REMARK  status: ('A' for Active; 'I' for Inactive)
REMARK    1  A    between atoms: C_4  and  C_5 
REMARK    2  A    between atoms: C_11  and  C_12 
REMARK    3  A    between atoms: C_15  and  C_16 
REMARK    4  A    between atoms: C_16  and  N_17 
REMARK    5  A    between atoms: N_17  and  C_18 
REMARK    6  A    between atoms: C_18  and  N_19 
REMARK    7  A    between atoms: N_19  and  C_20 
REMARK    8  A    between atoms: C_22  and  C_23 
REMARK    9  A    between atoms: C_23  and  O_24 
ROOT
HETATM    1  C   UNL     1       6.565  27.035  54.839  1.00  0.00     0.067 C 
HETATM    2  C   UNL     1       5.012  27.004  54.776  1.00  0.00     0.001 C 
HETATM    3  C   UNL     1       4.523  26.526  53.390  1.00  0.00     0.040 C 
HETATM    4  C   UNL     1       4.957  27.511  52.293  1.00  0.00     0.206 C 
HETATM    5  N   UNL     1       5.925  28.515  52.929  1.00  0.00    -0.065 N 
HETATM    6  H   UNL     1       6.310  29.111  52.182  1.00  0.00     0.280 HD
HETATM    7  C   UNL     1       7.094  27.855  53.642  1.00  0.00     0.246 C 
HETATM    8  C   UNL     1       4.518  28.459  54.958  1.00  0.00     0.033 C 
HETATM    9  C   UNL     1       5.158  29.382  53.913  1.00  0.00     0.236 C 
ENDROOT
BRANCH   4  10
HETATM   10  C   UNL     1       5.521  26.874  51.006  1.00  0.00     0.155 C 
BRANCH  10  11
HETATM   11  N   UNL     1       4.526  26.247  50.141  1.00  0.00    -0.365 N 
HETATM   12  H   UNL     1       3.912  25.565  50.570  1.00  0.00     0.161 HD
BRANCH  11  13
HETATM   13  C   UNL     1       3.987  26.814  49.017  1.00  0.00     0.172 C 
HETATM   14  S   UNL     1       4.888  27.331  47.712  1.00  0.00    -0.041 SA
BRANCH  13  15
HETATM   15  N   UNL     1       2.620  26.826  48.938  1.00  0.00    -0.333 N 
HETATM   16  H   UNL     1       2.165  26.106  49.495  1.00  0.00     0.168 HD
BRANCH  15  17
HETATM   17  C   UNL     1       1.764  27.596  48.117  1.00  0.00     0.035 A 
HETATM   18  C   UNL     1       1.564  28.965  48.298  1.00  0.00     0.047 A 
HETATM   19  C   UNL     1       0.658  29.676  47.502  1.00  0.00     0.041 A 
HETATM   20  C   UNL     1      -0.007  29.028  46.462  1.00  0.00     0.018 A 
HETATM   21  C   UNL     1       0.240  27.672  46.229  1.00  0.00     0.003 A 
HETATM   22  C   UNL     1       1.124  26.961  47.050  1.00  0.00     0.029 A 
BRANCH  19  23
HETATM   23  C   UNL     1       0.431  31.101  47.850  1.00  0.00     0.293 C 
HETATM   24  O   UNL     1       0.086  31.454  48.969  1.00  0.00    -0.259 OA
BRANCH  23  25
HETATM   25  O   UNL     1       0.679  31.902  46.790  1.00  0.00    -0.323 OA
HETATM   26  C   UNL     1       2.068  32.150  46.561  1.00  0.00     0.213 C 
ENDBRANCH  23  25
ENDBRANCH  19  23
ENDBRANCH  15  17
ENDBRANCH  13  15
ENDBRANCH  11  13
ENDBRANCH  10  11
ENDBRANCH   4  10
BRANCH   1  27
HETATM   27  C   UNL     1       7.222  25.685  54.959  1.00  0.00     0.038 A 
HETATM   28  N   UNL     1       7.889  25.260  56.093  1.00  0.00    -0.277 N 
HETATM   29  C   UNL     1       8.076  25.961  57.345  1.00  0.00     0.179 C 
HETATM   30  N   UNL     1       8.407  24.031  55.982  1.00  0.00    -0.170 NA
HETATM   31  C   UNL     1       7.976  23.589  54.798  1.00  0.00     0.112 A 
HETATM   32  C   UNL     1       7.251  24.588  54.114  1.00  0.00     0.063 A 
BRANCH  31  33
HETATM   33  C   UNL     1       8.220  22.203  54.309  1.00  0.00     0.105 A 
HETATM   34  O   UNL     1       8.732  21.188  55.072  1.00  0.00    -0.320 OA
HETATM   35  C   UNL     1       8.849  20.101  54.266  1.00  0.00     0.142 A 
HETATM   36  C   UNL     1       8.414  20.391  52.996  1.00  0.00     0.027 A 
HETATM   37  C   UNL     1       8.002  21.745  53.023  1.00  0.00     0.041 A 
ENDBRANCH  31  33
ENDBRANCH   1  27
TORSDOF 9
ENDMDL
MODEL 8
REMARK VINA RESULT:      -9.1      3.711      6.964
REMARK  9 active torsions:
REMARK  status: ('A' for Active; 'I' for Inactive)
REMARK    1  A    between atoms: C_4  and  C_5 
REMARK    2  A    between atoms: C_11  and  C_12 
REMARK    3  A    between atoms: C_15  and  C_16 
REMARK    4  A    between atoms: C_16  and  N_17 
REMARK    5  A    between atoms: N_17  and  C_18 
REMARK    6  A    between atoms: C_18  and  N_19 
REMARK    7  A    between atoms: N_19  and  C_20 
REMARK    8  A    between atoms: C_22  and  C_23 
REMARK    9  A    between atoms: C_23  and  O_24 
ROOT
HETATM    1  C   UNL     1       6.504  25.918  52.215  1.00  0.00     0.067 C 
HETATM    2  C   UNL     1       5.760  24.746  52.916  1.00  0.00     0.001 C 
HETATM    3  C   UNL     1       5.498  25.067  54.405  1.00  0.00     0.040 C 
HETATM    4  C   UNL     1       6.823  25.222  55.167  1.00  0.00     0.206 C 
HETATM    5  N   UNL     1       7.954  25.229  54.132  1.00  0.00    -0.065 N 
HETATM    6  H   UNL     1       8.836  25.445  54.618  1.00  0.00     0.280 HD
HETATM    7  C   UNL     1       7.763  26.268  53.039  1.00  0.00     0.246 C 
HETATM    8  C   UNL     1       6.698  23.517  52.871  1.00  0.00     0.033 C 
HETATM    9  C   UNL     1       8.055  23.849  53.504  1.00  0.00     0.236 C 
ENDROOT
BRANCH   4  10
HETATM   10  C   UNL     1       6.901  26.416  56.141  1.00  0.00     0.155 C 
BRANCH  10  11
HETATM   11  N   UNL     1       5.744  27.306  56.118  1.00  0.00    -0.365 N 
HETATM   12  H   UNL     1       4.878  26.939  56.497  1.00  0.00     0.161 HD
BRANCH  11  13
HETATM   13  C   UNL     1       5.799  28.674  56.145  1.00  0.00     0.172 C 
HETATM   14  S   UNL     1       4.634  29.638  56.850  1.00  0.00    -0.041 SA
BRANCH  13  15
HETATM   15  N   UNL     1       6.950  29.246  55.672  1.00  0.00    -0.333 N 
HETATM   16  H   UNL     1       6.986  29.329  54.659  1.00  0.00     0.168 HD
BRANCH  15  17
HETATM   17  C   UNL     1       8.128  29.620  56.360  1.00  0.00     0.035 A 
HETATM   18  C   UNL     1       8.116  30.219  57.619  1.00  0.00     0.047 A 
HETATM   19  C   UNL     1       9.303  30.632  58.236  1.00  0.00     0.041 A 
HETATM   20  C   UNL     1      10.527  30.380  57.619  1.00  0.00     0.018 A 
HETATM   21  C   UNL     1      10.553  29.716  56.389  1.00  0.00     0.003 A 
HETATM   22  C   UNL     1       9.359  29.335  55.765  1.00  0.00     0.029 A 
BRANCH  19  23
HETATM   23  C   UNL     1       9.175  31.364  59.522  1.00  0.00     0.293 C 
HETATM   24  O   UNL     1       9.402  32.562  59.617  1.00  0.00    -0.259 OA
BRANCH  23  25
HETATM   25  O   UNL     1       8.765  30.537  60.508  1.00  0.00    -0.323 OA
HETATM   26  C   UNL     1       8.176  31.208  61.624  1.00  0.00     0.213 C 
ENDBRANCH  23  25
ENDBRANCH  19  23
ENDBRANCH  15  17
ENDBRANCH  13  15
ENDBRANCH  11  13
ENDBRANCH  10  11
ENDBRANCH   4  10
BRANCH   1  27
HETATM   27  C   UNL     1       5.649  27.120  51.913  1.00  0.00     0.038 A 
HETATM   28  N   UNL     1       4.874  27.237  50.774  1.00  0.00    -0.277 N 
HETATM   29  C   UNL     1       4.703  26.285  49.698  1.00  0.00     0.179 C 
HETATM   30  N   UNL     1       4.202  28.392  50.699  1.00  0.00    -0.170 NA
HETATM   31  C   UNL     1       4.445  29.000  51.862  1.00  0.00     0.112 A 
HETATM   32  C   UNL     1       5.355  28.259  52.644  1.00  0.00     0.063 A 
BRANCH  31  33
HETATM   33  C   UNL     1       3.795  30.279  52.262  1.00  0.00     0.105 A 
HETATM   34  O   UNL     1       3.907  30.855  53.500  1.00  0.00    -0.320 OA
HETATM   35  C   UNL     1       3.141  31.977  53.491  1.00  0.00     0.142 A 
HETATM   36  C   UNL     1       2.542  32.144  52.266  1.00  0.00     0.027 A 
HETATM   37  C   UNL     1       2.968  31.054  51.470  1.00  0.00     0.041 A 
ENDBRANCH  31  33
ENDBRANCH   1  27
TORSDOF 9
ENDMDL
MODEL 9
REMARK VINA RESULT:      -9.0      6.589     10.055
REMARK  9 active torsions:
REMARK  status: ('A' for Active; 'I' for Inactive)
REMARK    1  A    between atoms: C_4  and  C_5 
REMARK    2  A    between atoms: C_11  and  C_12 
REMARK    3  A    between atoms: C_15  and  C_16 
REMARK    4  A    between atoms: C_16  and  N_17 
REMARK    5  A    between atoms: N_17  and  C_18 
REMARK    6  A    between atoms: C_18  and  N_19 
REMARK    7  A    between atoms: N_19  and  C_20 
REMARK    8  A    between atoms: C_22  and  C_23 
REMARK    9  A    between atoms: C_23  and  O_24 
ROOT
HETATM    1  C   UNL     1       6.762  26.927  55.028  1.00  0.00     0.067 C 
HETATM    2  C   UNL     1       5.208  26.963  55.002  1.00  0.00     0.001 C 
HETATM    3  C   UNL     1       4.664  26.473  53.640  1.00  0.00     0.040 C 
HETATM    4  C   UNL     1       5.113  27.411  52.508  1.00  0.00     0.206 C 
HETATM    5  N   UNL     1       6.139  28.387  53.096  1.00  0.00    -0.065 N 
HETATM    6  H   UNL     1       6.530  28.947  52.326  1.00  0.00     0.280 HD
HETATM    7  C   UNL     1       7.295  27.694  53.798  1.00  0.00     0.246 C 
HETATM    8  C   UNL     1       4.781  28.441  55.159  1.00  0.00     0.033 C 
HETATM    9  C   UNL     1       5.434  29.310  54.076  1.00  0.00     0.236 C 
ENDROOT
BRANCH   4  10
HETATM   10  C   UNL     1       5.617  26.719  51.225  1.00  0.00     0.155 C 
BRANCH  10  11
HETATM   11  N   UNL     1       4.570  26.296  50.301  1.00  0.00    -0.365 N 
HETATM   12  H   UNL     1       3.650  26.135  50.695  1.00  0.00     0.161 HD
BRANCH  11  13
HETATM   13  C   UNL     1       4.531  26.587  48.964  1.00  0.00     0.172 C 
HETATM   14  S   UNL     1       3.403  25.959  47.907  1.00  0.00    -0.041 SA
BRANCH  13  15
HETATM   15  N   UNL     1       5.400  27.551  48.526  1.00  0.00    -0.333 N 
HETATM   16  H   UNL     1       6.361  27.232  48.432  1.00  0.00     0.168 HD
BRANCH  15  17
HETATM   17  C   UNL     1       5.189  28.932  48.304  1.00  0.00     0.035 A 
HETATM   18  C   UNL     1       4.571  29.433  47.158  1.00  0.00     0.047 A 
HETATM   19  C   UNL     1       4.441  30.812  46.950  1.00  0.00     0.041 A 
HETATM   20  C   UNL     1       4.869  31.703  47.933  1.00  0.00     0.018 A 
HETATM   21  C   UNL     1       5.425  31.207  49.115  1.00  0.00     0.003 A 
HETATM   22  C   UNL     1       5.580  29.828  49.301  1.00  0.00     0.029 A 
BRANCH  19  23
HETATM   23  C   UNL     1       3.875  31.246  45.648  1.00  0.00     0.293 C 
HETATM   24  O   UNL     1       4.578  31.644  44.730  1.00  0.00    -0.259 OA
BRANCH  23  25
HETATM   25  O   UNL     1       2.531  31.111  45.638  1.00  0.00    -0.323 OA
HETATM   26  C   UNL     1       1.821  32.345  45.775  1.00  0.00     0.213 C 
ENDBRANCH  23  25
ENDBRANCH  19  23
ENDBRANCH  15  17
ENDBRANCH  13  15
ENDBRANCH  11  13
ENDBRANCH  10  11
ENDBRANCH   4  10
BRANCH   1  27
HETATM   27  C   UNL     1       7.362  25.552  55.165  1.00  0.00     0.038 A 
HETATM   28  N   UNL     1       7.881  25.064  56.350  1.00  0.00    -0.277 N 
HETATM   29  C   UNL     1       7.943  25.710  57.643  1.00  0.00     0.179 C 
HETATM   30  N   UNL     1       8.375  23.824  56.248  1.00  0.00    -0.170 NA
HETATM   31  C   UNL     1       8.071  23.441  55.006  1.00  0.00     0.112 A 
HETATM   32  C   UNL     1       7.458  24.488  54.285  1.00  0.00     0.063 A 
BRANCH  31  33
HETATM   33  C   UNL     1       8.331  22.068  54.491  1.00  0.00     0.105 A 
HETATM   34  O   UNL     1       8.762  21.018  55.258  1.00  0.00    -0.320 OA
HETATM   35  C   UNL     1       8.926  19.956  54.427  1.00  0.00     0.142 A 
HETATM   36  C   UNL     1       8.602  20.296  53.136  1.00  0.00     0.027 A 
HETATM   37  C   UNL     1       8.211  21.656  53.177  1.00  0.00     0.041 A 
ENDBRANCH  31  33
ENDBRANCH   1  27
TORSDOF 9
ENDMDL
MODEL 10
REMARK VINA RESULT:      -9.0      5.449     10.625
REMARK  9 active torsions:
REMARK  status: ('A' for Active; 'I' for Inactive)
REMARK    1  A    between atoms: C_4  and  C_5 
REMARK    2  A    between atoms: C_11  and  C_12 
REMARK    3  A    between atoms: C_15  and  C_16 
REMARK    4  A    between atoms: C_16  and  N_17 
REMARK    5  A    between atoms: N_17  and  C_18 
REMARK    6  A    between atoms: C_18  and  N_19 
REMARK    7  A    between atoms: N_19  and  C_20 
REMARK    8  A    between atoms: C_22  and  C_23 
REMARK    9  A    between atoms: C_23  and  O_24 
ROOT
HETATM    1  C   UNL     1       6.767  25.573  54.394  1.00  0.00     0.067 C 
HETATM    2  C   UNL     1       7.104  26.190  53.007  1.00  0.00     0.001 C 
HETATM    3  C   UNL     1       6.281  27.473  52.755  1.00  0.00     0.040 C 
HETATM    4  C   UNL     1       4.779  27.151  52.703  1.00  0.00     0.206 C 
HETATM    5  N   UNL     1       4.602  25.695  53.148  1.00  0.00    -0.065 N 
HETATM    6  H   UNL     1       3.594  25.501  53.226  1.00  0.00     0.280 HD
HETATM    7  C   UNL     1       5.235  25.397  54.497  1.00  0.00     0.246 C 
HETATM    8  C   UNL     1       6.685  25.158  51.934  1.00  0.00     0.033 C 
HETATM    9  C   UNL     1       5.206  24.781  52.095  1.00  0.00     0.236 C 
ENDROOT
BRANCH   4  10
HETATM   10  C   UNL     1       3.858  28.123  53.469  1.00  0.00     0.155 C 
BRANCH  10  11
HETATM   11  N   UNL     1       2.797  28.726  52.670  1.00  0.00    -0.365 N 
HETATM   12  H   UNL     1       1.851  28.410  52.853  1.00  0.00     0.161 HD
BRANCH  11  13
HETATM   13  C   UNL     1       2.840  29.976  52.112  1.00  0.00     0.172 C 
HETATM   14  S   UNL     1       3.899  31.172  52.591  1.00  0.00    -0.041 SA
BRANCH  13  15
HETATM   15  N   UNL     1       2.045  30.181  51.016  1.00  0.00    -0.333 N 
HETATM   16  H   UNL     1       1.119  30.541  51.236  1.00  0.00     0.168 HD
BRANCH  15  17
HETATM   17  C   UNL     1       2.268  29.857  49.657  1.00  0.00     0.035 A 
HETATM   18  C   UNL     1       1.651  28.781  49.020  1.00  0.00     0.047 A 
HETATM   19  C   UNL     1       1.950  28.458  47.690  1.00  0.00     0.041 A 
HETATM   20  C   UNL     1       2.825  29.264  46.963  1.00  0.00     0.018 A 
HETATM   21  C   UNL     1       3.394  30.386  47.573  1.00  0.00     0.003 A 
HETATM   22  C   UNL     1       3.113  30.682  48.913  1.00  0.00     0.029 A 
BRANCH  19  23
HETATM   23  C   UNL     1       1.330  27.227  47.140  1.00  0.00     0.293 C 
HETATM   24  O   UNL     1       0.542  27.253  46.206  1.00  0.00    -0.259 OA
BRANCH  23  25
HETATM   25  O   UNL     1       1.777  26.130  47.792  1.00  0.00    -0.323 OA
HETATM   26  C   UNL     1       3.056  25.671  47.350  1.00  0.00     0.213 C 
ENDBRANCH  23  25
ENDBRANCH  19  23
ENDBRANCH  15  17
ENDBRANCH  13  15
ENDBRANCH  11  13
ENDBRANCH  10  11
ENDBRANCH   4  10
BRANCH   1  27
HETATM   27  C   UNL     1       7.352  26.306  55.572  1.00  0.00     0.038 A 
HETATM   28  N   UNL     1       7.846  25.668  56.695  1.00  0.00    -0.277 N 
HETATM   29  C   UNL     1       7.927  24.249  56.966  1.00  0.00     0.179 C 
HETATM   30  N   UNL     1       8.309  26.509  57.629  1.00  0.00    -0.170 NA
HETATM   31  C   UNL     1       8.229  27.716  57.065  1.00  0.00     0.112 A 
HETATM   32  C   UNL     1       7.621  27.646  55.794  1.00  0.00     0.063 A 
BRANCH  31  33
HETATM   33  C   UNL     1       8.751  28.952  57.712  1.00  0.00     0.105 A 
HETATM   34  O   UNL     1       8.282  29.473  58.888  1.00  0.00    -0.320 OA
HETATM   35  C   UNL     1       8.974  30.619  59.123  1.00  0.00     0.142 A 
HETATM   36  C   UNL     1       9.889  30.845  58.124  1.00  0.00     0.027 A 
HETATM   37  C   UNL     1       9.752  29.768  57.216  1.00  0.00     0.041 A 
ENDBRANCH  31  33
ENDBRANCH   1  27
TORSDOF 9
ENDMDL
