MODEL 1
REMARK VINA RESULT:      -9.9      0.000      0.000
REMARK  6 active torsions:
REMARK  status: ('A' for Active; 'I' for Inactive)
REMARK    1  A    between atoms: C_3  and  C_4 
REMARK    2  A    between atoms: C_4  and  N_5 
REMARK    3  A    between atoms: N_5  and  C_8 
REMARK    4  A    between atoms: C_8  and  C_9 
REMARK    5  A    between atoms: N_12  and  C_13 
REMARK    6  A    between atoms: C_28  and  O_29 
ROOT
HETATM    1  N   UNL     1       7.507  28.257  58.113  1.00  0.00    -0.062 N 
HETATM    2  H   UNL     1       8.059  27.523  58.573  1.00  0.00     0.278 HD
HETATM    3  H   UNL     1       6.725  28.438  58.751  1.00  0.00     0.278 HD
ENDROOT
BRANCH   1   4
HETATM    4  C   UNL     1       8.352  29.478  58.068  1.00  0.00     0.290 C 
BRANCH   4   5
HETATM    5  C   UNL     1       8.003  30.368  59.200  1.00  0.00     0.042 A 
HETATM    6  C   UNL     1       7.084  31.406  59.298  1.00  0.00    -0.025 A 
HETATM    7  C   UNL     1       6.163  31.926  58.247  1.00  0.00     0.051 C 
HETATM    8  C   UNL     1       7.194  31.941  60.622  1.00  0.00     0.001 A 
HETATM    9  C   UNL     1       8.179  31.220  61.287  1.00  0.00     0.043 A 
HETATM   10  C   UNL     1       6.554  32.992  61.310  1.00  0.00     0.051 A 
HETATM   11  N   UNL     1       8.659  30.280  60.410  1.00  0.00    -0.357 N 
HETATM   12  C   UNL     1       8.555  31.494  62.607  1.00  0.00     0.033 A 
HETATM   13  H   UNL     1       9.412  29.643  60.641  1.00  0.00     0.166 HD
HETATM   14  C   UNL     1       7.908  32.548  63.265  1.00  0.00     0.039 A 
HETATM   15  C   UNL     1       6.923  33.299  62.627  1.00  0.00     0.069 A 
BRANCH  15  16
HETATM   16  O   UNL     1       6.238  34.352  63.172  1.00  0.00    -0.356 OA
HETATM   17  C   UNL     1       5.922  34.265  64.556  1.00  0.00     0.210 C 
ENDBRANCH  15  16
ENDBRANCH   4   5
ENDBRANCH   1   4
BRANCH   1  18
HETATM   18  C   UNL     1       6.988  27.706  56.820  1.00  0.00     0.218 C 
HETATM   19  C   UNL     1       7.233  28.693  55.684  1.00  0.00     0.045 C 
BRANCH  18  20
HETATM   20  C   UNL     1       7.491  26.322  56.573  1.00  0.00     0.015 C 
HETATM   21  C   UNL     1       7.015  25.378  55.664  1.00  0.00     0.042 C 
HETATM   22  C   UNL     1       5.864  25.489  54.725  1.00  0.00     0.071 C 
HETATM   23  N   UNL     1       7.808  24.233  55.817  1.00  0.00    -0.238 N 
HETATM   24  N   UNL     1       8.630  24.382  56.890  1.00  0.00    -0.179 NA
HETATM   25  C   UNL     1       8.523  25.650  57.254  1.00  0.00     0.150 C 
BRANCH  23  26
HETATM   26  C   UNL     1       7.850  23.011  55.080  1.00  0.00     0.058 A 
HETATM   27  C   UNL     1       7.960  22.975  53.685  1.00  0.00     0.031 A 
HETATM   28  C   UNL     1       7.995  21.749  53.012  1.00  0.00     0.002 A 
HETATM   29  C   UNL     1       7.928  20.552  53.721  1.00  0.00     0.000 A 
HETATM   30  C   UNL     1       7.842  20.575  55.109  1.00  0.00     0.002 A 
HETATM   31  C   UNL     1       7.814  21.795  55.787  1.00  0.00     0.031 A 
ENDBRANCH  23  26
ENDBRANCH  18  20
ENDBRANCH   1  18
TORSDOF 6
ENDMDL
MODEL 2
REMARK VINA RESULT:      -9.5      3.446      9.985
REMARK  6 active torsions:
REMARK  status: ('A' for Active; 'I' for Inactive)
REMARK    1  A    between atoms: C_3  and  C_4 
REMARK    2  A    between atoms: C_4  and  N_5 
REMARK    3  A    between atoms: N_5  and  C_8 
REMARK    4  A    between atoms: C_8  and  C_9 
REMARK    5  A    between atoms: N_12  and  C_13 
REMARK    6  A    between atoms: C_28  and  O_29 
ROOT
HETATM    1  N   UNL     1       6.432  28.343  54.864  1.00  0.00    -0.062 N 
HETATM    2  H   UNL     1       7.110  27.785  55.397  1.00  0.00     0.278 HD
HETATM    3  H   UNL     1       6.996  28.869  54.188  1.00  0.00     0.278 HD
ENDROOT
BRANCH   1   4
HETATM    4  C   UNL     1       5.580  27.390  54.106  1.00  0.00     0.290 C 
BRANCH   4   5
HETATM    5  C   UNL     1       6.147  26.026  54.209  1.00  0.00     0.042 A 
HETATM    6  C   UNL     1       6.269  25.165  55.293  1.00  0.00    -0.025 A 
HETATM    7  C   UNL     1       5.844  25.391  56.705  1.00  0.00     0.051 C 
HETATM    8  C   UNL     1       6.928  23.985  54.821  1.00  0.00     0.001 A 
HETATM    9  C   UNL     1       7.194  24.164  53.469  1.00  0.00     0.043 A 
HETATM   10  C   UNL     1       7.340  22.782  55.431  1.00  0.00     0.051 A 
HETATM   11  N   UNL     1       6.721  25.404  53.120  1.00  0.00    -0.357 N 
HETATM   12  C   UNL     1       7.850  23.199  52.693  1.00  0.00     0.033 A 
HETATM   13  H   UNL     1       6.821  25.791  52.190  1.00  0.00     0.166 HD
HETATM   14  C   UNL     1       8.256  22.018  53.326  1.00  0.00     0.039 A 
HETATM   15  C   UNL     1       8.015  21.808  54.683  1.00  0.00     0.069 A 
BRANCH  15  16
HETATM   16  O   UNL     1       8.376  20.699  55.399  1.00  0.00    -0.356 OA
HETATM   17  C   UNL     1       8.390  20.825  56.816  1.00  0.00     0.210 C 
ENDBRANCH  15  16
ENDBRANCH   4   5
ENDBRANCH   1   4
BRANCH   1  18
HETATM   18  C   UNL     1       5.763  29.292  55.811  1.00  0.00     0.218 C 
HETATM   19  C   UNL     1       4.321  28.866  56.064  1.00  0.00     0.045 C 
BRANCH  18  20
HETATM   20  C   UNL     1       6.583  29.506  57.042  1.00  0.00     0.015 C 
HETATM   21  C   UNL     1       6.605  30.618  57.883  1.00  0.00     0.042 C 
HETATM   22  C   UNL     1       5.845  31.893  57.761  1.00  0.00     0.071 C 
HETATM   23  N   UNL     1       7.541  30.344  58.890  1.00  0.00    -0.238 N 
HETATM   24  N   UNL     1       8.205  29.193  58.601  1.00  0.00    -0.179 NA
HETATM   25  C   UNL     1       7.557  28.648  57.583  1.00  0.00     0.150 C 
BRANCH  23  26
HETATM   26  C   UNL     1       7.892  31.066  60.070  1.00  0.00     0.058 A 
HETATM   27  C   UNL     1       6.947  31.746  60.847  1.00  0.00     0.031 A 
HETATM   28  C   UNL     1       7.345  32.440  61.995  1.00  0.00     0.002 A 
HETATM   29  C   UNL     1       8.683  32.455  62.382  1.00  0.00     0.000 A 
HETATM   30  C   UNL     1       9.628  31.763  61.632  1.00  0.00     0.002 A 
HETATM   31  C   UNL     1       9.235  31.063  60.489  1.00  0.00     0.031 A 
ENDBRANCH  23  26
ENDBRANCH  18  20
ENDBRANCH   1  18
TORSDOF 6
ENDMDL
MODEL 3
REMARK VINA RESULT:      -9.4      2.844      4.444
REMARK  6 active torsions:
REMARK  status: ('A' for Active; 'I' for Inactive)
REMARK    1  A    between atoms: C_3  and  C_4 
REMARK    2  A    between atoms: C_4  and  N_5 
REMARK    3  A    between atoms: N_5  and  C_8 
REMARK    4  A    between atoms: C_8  and  C_9 
REMARK    5  A    between atoms: N_12  and  C_13 
REMARK    6  A    between atoms: C_28  and  O_29 
ROOT
HETATM    1  N   UNL     1       6.186  27.846  52.935  1.00  0.00    -0.062 N 
HETATM    2  H   UNL     1       6.270  28.547  52.189  1.00  0.00     0.278 HD
HETATM    3  H   UNL     1       7.145  27.689  53.260  1.00  0.00     0.278 HD
ENDROOT
BRANCH   1   4
HETATM    4  C   UNL     1       5.424  28.475  54.044  1.00  0.00     0.290 C 
BRANCH   4   5
HETATM    5  C   UNL     1       6.352  28.847  55.137  1.00  0.00     0.042 A 
HETATM    6  C   UNL     1       6.111  29.225  56.453  1.00  0.00    -0.025 A 
HETATM    7  C   UNL     1       4.799  29.363  57.149  1.00  0.00     0.051 C 
HETATM    8  C   UNL     1       7.382  29.504  57.049  1.00  0.00     0.001 A 
HETATM    9  C   UNL     1       8.357  29.296  56.080  1.00  0.00     0.043 A 
HETATM   10  C   UNL     1       7.791  29.936  58.328  1.00  0.00     0.051 A 
HETATM   11  N   UNL     1       7.714  28.906  54.932  1.00  0.00    -0.357 N 
HETATM   12  C   UNL     1       9.721  29.495  56.325  1.00  0.00     0.033 A 
HETATM   13  H   UNL     1       8.200  28.722  54.063  1.00  0.00     0.166 HD
HETATM   14  C   UNL     1      10.099  29.931  57.601  1.00  0.00     0.039 A 
HETATM   15  C   UNL     1       9.149  30.160  58.595  1.00  0.00     0.069 A 
BRANCH  15  16
HETATM   16  O   UNL     1       9.408  30.595  59.866  1.00  0.00    -0.356 OA
HETATM   17  C   UNL     1       9.394  32.002  60.080  1.00  0.00     0.210 C 
ENDBRANCH  15  16
ENDBRANCH   4   5
ENDBRANCH   1   4
BRANCH   1  18
HETATM   18  C   UNL     1       5.646  26.586  52.330  1.00  0.00     0.218 C 
HETATM   19  C   UNL     1       5.401  26.774  50.836  1.00  0.00     0.045 C 
BRANCH  18  20
HETATM   20  C   UNL     1       6.484  25.403  52.688  1.00  0.00     0.015 C 
HETATM   21  C   UNL     1       6.509  24.691  53.887  1.00  0.00     0.042 C 
HETATM   22  C   UNL     1       5.732  24.941  55.133  1.00  0.00     0.071 C 
HETATM   23  N   UNL     1       7.465  23.679  53.736  1.00  0.00    -0.238 N 
HETATM   24  N   UNL     1       8.137  23.849  52.566  1.00  0.00    -0.179 NA
HETATM   25  C   UNL     1       7.478  24.787  51.905  1.00  0.00     0.150 C 
BRANCH  23  26
HETATM   26  C   UNL     1       7.829  22.593  54.589  1.00  0.00     0.058 A 
HETATM   27  C   UNL     1       8.088  22.761  55.955  1.00  0.00     0.031 A 
HETATM   28  C   UNL     1       8.442  21.663  56.746  1.00  0.00     0.002 A 
HETATM   29  C   UNL     1       8.535  20.391  56.187  1.00  0.00     0.000 A 
HETATM   30  C   UNL     1       8.257  20.207  54.836  1.00  0.00     0.002 A 
HETATM   31  C   UNL     1       7.896  21.299  54.043  1.00  0.00     0.031 A 
ENDBRANCH  23  26
ENDBRANCH  18  20
ENDBRANCH   1  18
TORSDOF 6
ENDMDL
MODEL 4
REMARK VINA RESULT:      -9.3      1.587      2.550
REMARK  6 active torsions:
REMARK  status: ('A' for Active; 'I' for Inactive)
REMARK    1  A    between atoms: C_3  and  C_4 
REMARK    2  A    between atoms: C_4  and  N_5 
REMARK    3  A    between atoms: N_5  and  C_8 
REMARK    4  A    between atoms: C_8  and  C_9 
REMARK    5  A    between atoms: N_12  and  C_13 
REMARK    6  A    between atoms: C_28  and  O_29 
ROOT
HETATM    1  N   UNL     1       7.126  30.012  58.376  1.00  0.00    -0.062 N 
HETATM    2  H   UNL     1       7.546  29.768  59.281  1.00  0.00     0.278 HD
HETATM    3  H   UNL     1       6.255  29.472  58.335  1.00  0.00     0.278 HD
ENDROOT
BRANCH   1   4
HETATM    4  C   UNL     1       6.769  31.453  58.433  1.00  0.00     0.290 C 
BRANCH   4   5
HETATM    5  C   UNL     1       6.712  31.897  59.845  1.00  0.00     0.042 A 
HETATM    6  C   UNL     1       7.722  32.221  60.744  1.00  0.00    -0.025 A 
HETATM    7  C   UNL     1       9.196  32.209  60.520  1.00  0.00     0.051 C 
HETATM    8  C   UNL     1       7.089  32.551  61.985  1.00  0.00     0.001 A 
HETATM    9  C   UNL     1       5.718  32.411  61.809  1.00  0.00     0.043 A 
HETATM   10  C   UNL     1       7.565  32.939  63.254  1.00  0.00     0.051 A 
HETATM   11  N   UNL     1       5.512  32.010  60.513  1.00  0.00    -0.357 N 
HETATM   12  C   UNL     1       4.796  32.644  62.837  1.00  0.00     0.033 A 
HETATM   13  H   UNL     1       4.593  31.806  60.138  1.00  0.00     0.166 HD
HETATM   14  C   UNL     1       5.296  33.020  64.090  1.00  0.00     0.039 A 
HETATM   15  C   UNL     1       6.666  33.160  64.306  1.00  0.00     0.069 A 
BRANCH  15  16
HETATM   16  O   UNL     1       7.259  33.513  65.488  1.00  0.00    -0.356 OA
HETATM   17  C   UNL     1       6.409  34.036  66.503  1.00  0.00     0.210 C 
ENDBRANCH  15  16
ENDBRANCH   4   5
ENDBRANCH   1   4
BRANCH   1  18
HETATM   18  C   UNL     1       8.055  29.554  57.294  1.00  0.00     0.218 C 
HETATM   19  C   UNL     1       9.501  29.873  57.662  1.00  0.00     0.045 C 
BRANCH  18  20
HETATM   20  C   UNL     1       7.799  28.130  56.918  1.00  0.00     0.015 C 
HETATM   21  C   UNL     1       7.791  27.560  55.646  1.00  0.00     0.042 C 
HETATM   22  C   UNL     1       8.004  28.222  54.328  1.00  0.00     0.071 C 
HETATM   23  N   UNL     1       7.491  26.202  55.814  1.00  0.00    -0.238 N 
HETATM   24  N   UNL     1       7.151  25.961  57.109  1.00  0.00    -0.179 NA
HETATM   25  C   UNL     1       7.449  27.068  57.771  1.00  0.00     0.150 C 
BRANCH  23  26
HETATM   26  C   UNL     1       7.460  25.122  54.881  1.00  0.00     0.058 A 
HETATM   27  C   UNL     1       6.642  25.130  53.745  1.00  0.00     0.031 A 
HETATM   28  C   UNL     1       6.649  24.044  52.863  1.00  0.00     0.002 A 
HETATM   29  C   UNL     1       7.475  22.948  53.099  1.00  0.00     0.000 A 
HETATM   30  C   UNL     1       8.310  22.939  54.211  1.00  0.00     0.002 A 
HETATM   31  C   UNL     1       8.312  24.023  55.092  1.00  0.00     0.031 A 
ENDBRANCH  23  26
ENDBRANCH  18  20
ENDBRANCH   1  18
TORSDOF 6
ENDMDL
MODEL 5
REMARK VINA RESULT:      -9.3      3.486      9.951
REMARK  6 active torsions:
REMARK  status: ('A' for Active; 'I' for Inactive)
REMARK    1  A    between atoms: C_3  and  C_4 
REMARK    2  A    between atoms: C_4  and  N_5 
REMARK    3  A    between atoms: N_5  and  C_8 
REMARK    4  A    between atoms: C_8  and  C_9 
REMARK    5  A    between atoms: N_12  and  C_13 
REMARK    6  A    between atoms: C_28  and  O_29 
ROOT
HETATM    1  N   UNL     1       6.539  28.672  54.758  1.00  0.00    -0.062 N 
HETATM    2  H   UNL     1       7.365  28.232  55.182  1.00  0.00     0.278 HD
HETATM    3  H   UNL     1       6.916  29.354  54.092  1.00  0.00     0.278 HD
ENDROOT
BRANCH   1   4
HETATM    4  C   UNL     1       5.830  27.621  53.985  1.00  0.00     0.290 C 
BRANCH   4   5
HETATM    5  C   UNL     1       6.504  26.316  54.183  1.00  0.00     0.042 A 
HETATM    6  C   UNL     1       6.957  25.372  53.269  1.00  0.00    -0.025 A 
HETATM    7  C   UNL     1       6.887  25.420  51.780  1.00  0.00     0.051 C 
HETATM    8  C   UNL     1       7.499  24.283  54.024  1.00  0.00     0.001 A 
HETATM    9  C   UNL     1       7.352  24.590  55.372  1.00  0.00     0.043 A 
HETATM   10  C   UNL     1       8.086  23.048  53.679  1.00  0.00     0.051 A 
HETATM   11  N   UNL     1       6.744  25.818  55.446  1.00  0.00    -0.357 N 
HETATM   12  C   UNL     1       7.766  23.727  56.393  1.00  0.00     0.033 A 
HETATM   13  H   UNL     1       6.494  26.258  56.324  1.00  0.00     0.166 HD
HETATM   14  C   UNL     1       8.339  22.504  56.023  1.00  0.00     0.039 A 
HETATM   15  C   UNL     1       8.493  22.157  54.682  1.00  0.00     0.069 A 
BRANCH  15  16
HETATM   16  O   UNL     1       9.028  20.988  54.213  1.00  0.00    -0.356 OA
HETATM   17  C   UNL     1       8.488  20.475  53.000  1.00  0.00     0.210 C 
ENDBRANCH  15  16
ENDBRANCH   4   5
ENDBRANCH   1   4
BRANCH   1  18
HETATM   18  C   UNL     1       5.787  29.385  55.840  1.00  0.00     0.218 C 
HETATM   19  C   UNL     1       4.430  28.728  56.069  1.00  0.00     0.045 C 
BRANCH  18  20
HETATM   20  C   UNL     1       6.622  29.554  57.068  1.00  0.00     0.015 C 
HETATM   21  C   UNL     1       6.662  30.638  57.944  1.00  0.00     0.042 C 
HETATM   22  C   UNL     1       5.912  31.923  57.870  1.00  0.00     0.071 C 
HETATM   23  N   UNL     1       7.606  30.325  58.931  1.00  0.00    -0.238 N 
HETATM   24  N   UNL     1       8.257  29.178  58.599  1.00  0.00    -0.179 NA
HETATM   25  C   UNL     1       7.594  28.671  57.572  1.00  0.00     0.150 C 
BRANCH  23  26
HETATM   26  C   UNL     1       7.976  31.006  60.129  1.00  0.00     0.058 A 
HETATM   27  C   UNL     1       9.307  31.124  60.549  1.00  0.00     0.031 A 
HETATM   28  C   UNL     1       9.615  31.802  61.734  1.00  0.00     0.002 A 
HETATM   29  C   UNL     1       8.605  32.372  62.504  1.00  0.00     0.000 A 
HETATM   30  C   UNL     1       7.281  32.282  62.085  1.00  0.00     0.002 A 
HETATM   31  C   UNL     1       6.968  31.613  60.900  1.00  0.00     0.031 A 
ENDBRANCH  23  26
ENDBRANCH  18  20
ENDBRANCH   1  18
TORSDOF 6
ENDMDL
MODEL 6
REMARK VINA RESULT:      -9.3      1.092      1.656
REMARK  6 active torsions:
REMARK  status: ('A' for Active; 'I' for Inactive)
REMARK    1  A    between atoms: C_3  and  C_4 
REMARK    2  A    between atoms: C_4  and  N_5 
REMARK    3  A    between atoms: N_5  and  C_8 
REMARK    4  A    between atoms: C_8  and  C_9 
REMARK    5  A    between atoms: N_12  and  C_13 
REMARK    6  A    between atoms: C_28  and  O_29 
ROOT
HETATM    1  N   UNL     1       6.103  28.489  56.540  1.00  0.00    -0.062 N 
HETATM    2  H   UNL     1       6.365  27.877  57.323  1.00  0.00     0.278 HD
HETATM    3  H   UNL     1       5.214  28.914  56.822  1.00  0.00     0.278 HD
ENDROOT
BRANCH   1   4
HETATM    4  C   UNL     1       7.122  29.567  56.466  1.00  0.00     0.290 C 
BRANCH   4   5
HETATM    5  C   UNL     1       7.262  30.212  57.792  1.00  0.00     0.042 A 
HETATM    6  C   UNL     1       6.519  31.214  58.405  1.00  0.00    -0.025 A 
HETATM    7  C   UNL     1       5.330  31.940  57.872  1.00  0.00     0.051 C 
HETATM    8  C   UNL     1       7.127  31.471  59.676  1.00  0.00     0.001 A 
HETATM    9  C   UNL     1       8.225  30.626  59.796  1.00  0.00     0.043 A 
HETATM   10  C   UNL     1       6.852  32.364  60.731  1.00  0.00     0.051 A 
HETATM   11  N   UNL     1       8.292  29.879  58.646  1.00  0.00    -0.357 N 
HETATM   12  C   UNL     1       9.059  30.626  60.920  1.00  0.00     0.033 A 
HETATM   13  H   UNL     1       9.027  29.205  58.469  1.00  0.00     0.166 HD
HETATM   14  C   UNL     1       8.768  31.529  61.950  1.00  0.00     0.039 A 
HETATM   15  C   UNL     1       7.682  32.398  61.860  1.00  0.00     0.069 A 
BRANCH  15  16
HETATM   16  O   UNL     1       7.315  33.323  62.800  1.00  0.00    -0.356 OA
HETATM   17  C   UNL     1       6.348  34.290  62.408  1.00  0.00     0.210 C 
ENDBRANCH  15  16
ENDBRANCH   4   5
ENDBRANCH   1   4
BRANCH   1  18
HETATM   18  C   UNL     1       5.891  27.630  55.331  1.00  0.00     0.218 C 
HETATM   19  C   UNL     1       6.187  28.418  54.058  1.00  0.00     0.045 C 
BRANCH  18  20
HETATM   20  C   UNL     1       6.614  26.328  55.449  1.00  0.00     0.015 C 
HETATM   21  C   UNL     1       6.390  25.146  54.743  1.00  0.00     0.042 C 
HETATM   22  C   UNL     1       5.355  24.862  53.710  1.00  0.00     0.071 C 
HETATM   23  N   UNL     1       7.316  24.209  55.219  1.00  0.00    -0.238 N 
HETATM   24  N   UNL     1       7.975  24.717  56.295  1.00  0.00    -0.179 NA
HETATM   25  C   UNL     1       7.644  25.997  56.349  1.00  0.00     0.150 C 
BRANCH  23  26
HETATM   26  C   UNL     1       7.620  22.883  54.788  1.00  0.00     0.058 A 
HETATM   27  C   UNL     1       7.630  21.790  55.662  1.00  0.00     0.031 A 
HETATM   28  C   UNL     1       7.936  20.509  55.187  1.00  0.00     0.002 A 
HETATM   29  C   UNL     1       8.226  20.307  53.840  1.00  0.00     0.000 A 
HETATM   30  C   UNL     1       8.195  21.381  52.957  1.00  0.00     0.002 A 
HETATM   31  C   UNL     1       7.883  22.660  53.424  1.00  0.00     0.031 A 
ENDBRANCH  23  26
ENDBRANCH  18  20
ENDBRANCH   1  18
TORSDOF 6
ENDMDL
MODEL 7
REMARK VINA RESULT:      -9.3      6.199      9.995
REMARK  6 active torsions:
REMARK  status: ('A' for Active; 'I' for Inactive)
REMARK    1  A    between atoms: C_3  and  C_4 
REMARK    2  A    between atoms: C_4  and  N_5 
REMARK    3  A    between atoms: N_5  and  C_8 
REMARK    4  A    between atoms: C_8  and  C_9 
REMARK    5  A    between atoms: N_12  and  C_13 
REMARK    6  A    between atoms: C_28  and  O_29 
ROOT
HETATM    1  N   UNL     1       5.555  27.658  52.775  1.00  0.00    -0.062 N 
HETATM    2  H   UNL     1       4.805  28.239  53.168  1.00  0.00     0.278 HD
HETATM    3  H   UNL     1       5.123  26.742  52.611  1.00  0.00     0.278 HD
ENDROOT
BRANCH   1   4
HETATM    4  C   UNL     1       5.913  28.237  51.455  1.00  0.00     0.290 C 
BRANCH   4   5
HETATM    5  C   UNL     1       4.825  27.977  50.485  1.00  0.00     0.042 A 
HETATM    6  C   UNL     1       3.535  28.488  50.398  1.00  0.00    -0.025 A 
HETATM    7  C   UNL     1       2.871  29.478  51.294  1.00  0.00     0.051 C 
HETATM    8  C   UNL     1       2.907  27.856  49.277  1.00  0.00     0.001 A 
HETATM    9  C   UNL     1       3.827  26.975  48.720  1.00  0.00     0.043 A 
HETATM   10  C   UNL     1       1.625  27.941  48.695  1.00  0.00     0.051 A 
HETATM   11  N   UNL     1       4.975  27.059  49.467  1.00  0.00    -0.357 N 
HETATM   12  C   UNL     1       3.533  26.178  47.608  1.00  0.00     0.033 A 
HETATM   13  H   UNL     1       5.793  26.490  49.287  1.00  0.00     0.166 HD
HETATM   14  C   UNL     1       2.250  26.276  47.055  1.00  0.00     0.039 A 
HETATM   15  C   UNL     1       1.298  27.140  47.593  1.00  0.00     0.069 A 
BRANCH  15  16
HETATM   16  O   UNL     1       0.018  27.306  47.138  1.00  0.00    -0.356 OA
HETATM   17  C   UNL     1      -0.151  27.451  45.732  1.00  0.00     0.210 C 
ENDBRANCH  15  16
ENDBRANCH   4   5
ENDBRANCH   1   4
BRANCH   1  18
HETATM   18  C   UNL     1       6.632  27.530  53.809  1.00  0.00     0.218 C 
HETATM   19  C   UNL     1       6.434  28.559  54.916  1.00  0.00     0.045 C 
BRANCH  18  20
HETATM   20  C   UNL     1       6.777  26.118  54.277  1.00  0.00     0.015 C 
HETATM   21  C   UNL     1       7.334  25.034  53.599  1.00  0.00     0.042 C 
HETATM   22  C   UNL     1       7.903  24.990  52.223  1.00  0.00     0.071 C 
HETATM   23  N   UNL     1       7.227  23.927  54.451  1.00  0.00    -0.238 N 
HETATM   24  N   UNL     1       6.480  24.253  55.540  1.00  0.00    -0.179 NA
HETATM   25  C   UNL     1       6.322  25.566  55.489  1.00  0.00     0.150 C 
BRANCH  23  26
HETATM   26  C   UNL     1       7.725  22.595  54.330  1.00  0.00     0.058 A 
HETATM   27  C   UNL     1       7.884  21.959  53.093  1.00  0.00     0.031 A 
HETATM   28  C   UNL     1       8.375  20.651  53.030  1.00  0.00     0.002 A 
HETATM   29  C   UNL     1       8.718  19.969  54.195  1.00  0.00     0.000 A 
HETATM   30  C   UNL     1       8.587  20.598  55.429  1.00  0.00     0.002 A 
HETATM   31  C   UNL     1       8.104  21.907  55.496  1.00  0.00     0.031 A 
ENDBRANCH  23  26
ENDBRANCH  18  20
ENDBRANCH   1  18
TORSDOF 6
ENDMDL
MODEL 8
REMARK VINA RESULT:      -9.2      1.479      2.075
REMARK  6 active torsions:
REMARK  status: ('A' for Active; 'I' for Inactive)
REMARK    1  A    between atoms: C_3  and  C_4 
REMARK    2  A    between atoms: C_4  and  N_5 
REMARK    3  A    between atoms: N_5  and  C_8 
REMARK    4  A    between atoms: C_8  and  C_9 
REMARK    5  A    between atoms: N_12  and  C_13 
REMARK    6  A    between atoms: C_28  and  O_29 
ROOT
HETATM    1  N   UNL     1       5.943  29.270  57.842  1.00  0.00    -0.062 N 
HETATM    2  H   UNL     1       6.581  28.524  58.145  1.00  0.00     0.278 HD
HETATM    3  H   UNL     1       5.277  29.378  58.614  1.00  0.00     0.278 HD
ENDROOT
BRANCH   1   4
HETATM    4  C   UNL     1       6.742  30.519  57.749  1.00  0.00     0.290 C 
BRANCH   4   5
HETATM    5  C   UNL     1       6.808  31.168  59.079  1.00  0.00     0.042 A 
HETATM    6  C   UNL     1       6.130  32.266  59.597  1.00  0.00    -0.025 A 
HETATM    7  C   UNL     1       5.110  33.122  58.925  1.00  0.00     0.051 C 
HETATM    8  C   UNL     1       6.616  32.470  60.928  1.00  0.00     0.001 A 
HETATM    9  C   UNL     1       7.578  31.499  61.179  1.00  0.00     0.043 A 
HETATM   10  C   UNL     1       6.335  33.412  61.939  1.00  0.00     0.051 A 
HETATM   11  N   UNL     1       7.683  30.727  60.049  1.00  0.00    -0.357 N 
HETATM   12  C   UNL     1       8.272  31.419  62.392  1.00  0.00     0.033 A 
HETATM   13  H   UNL     1       8.344  29.964  59.962  1.00  0.00     0.166 HD
HETATM   14  C   UNL     1       7.979  32.371  63.377  1.00  0.00     0.039 A 
HETATM   15  C   UNL     1       7.028  33.365  63.157  1.00  0.00     0.069 A 
BRANCH  15  16
HETATM   16  O   UNL     1       6.674  34.346  64.043  1.00  0.00    -0.356 OA
HETATM   17  C   UNL     1       5.659  34.024  64.987  1.00  0.00     0.210 C 
ENDBRANCH  15  16
ENDBRANCH   4   5
ENDBRANCH   1   4
BRANCH   1  18
HETATM   18  C   UNL     1       5.222  28.797  56.617  1.00  0.00     0.218 C 
HETATM   19  C   UNL     1       4.626  29.978  55.859  1.00  0.00     0.045 C 
BRANCH  18  20
HETATM   20  C   UNL     1       6.077  27.887  55.796  1.00  0.00     0.015 C 
HETATM   21  C   UNL     1       6.230  26.505  55.912  1.00  0.00     0.042 C 
HETATM   22  C   UNL     1       5.608  25.580  56.900  1.00  0.00     0.071 C 
HETATM   23  N   UNL     1       7.144  26.116  54.924  1.00  0.00    -0.238 N 
HETATM   24  N   UNL     1       7.678  27.217  54.330  1.00  0.00    -0.179 NA
HETATM   25  C   UNL     1       6.962  28.242  54.762  1.00  0.00     0.150 C 
BRANCH  23  26
HETATM   26  C   UNL     1       7.587  24.824  54.508  1.00  0.00     0.058 A 
HETATM   27  C   UNL     1       8.331  23.978  55.340  1.00  0.00     0.031 A 
HETATM   28  C   UNL     1       8.741  22.721  54.882  1.00  0.00     0.002 A 
HETATM   29  C   UNL     1       8.409  22.295  53.599  1.00  0.00     0.000 A 
HETATM   30  C   UNL     1       7.651  23.117  52.771  1.00  0.00     0.002 A 
HETATM   31  C   UNL     1       7.232  24.369  53.226  1.00  0.00     0.031 A 
ENDBRANCH  23  26
ENDBRANCH  18  20
ENDBRANCH   1  18
TORSDOF 6
ENDMDL
MODEL 9
REMARK VINA RESULT:      -9.1      1.719      2.395
REMARK  6 active torsions:
REMARK  status: ('A' for Active; 'I' for Inactive)
REMARK    1  A    between atoms: C_3  and  C_4 
REMARK    2  A    between atoms: C_4  and  N_5 
REMARK    3  A    between atoms: N_5  and  C_8 
REMARK    4  A    between atoms: C_8  and  C_9 
REMARK    5  A    between atoms: N_12  and  C_13 
REMARK    6  A    between atoms: C_28  and  O_29 
ROOT
HETATM    1  N   UNL     1       6.262  30.156  58.449  1.00  0.00    -0.062 N 
HETATM    2  H   UNL     1       7.045  29.540  58.698  1.00  0.00     0.278 HD
HETATM    3  H   UNL     1       5.585  30.044  59.210  1.00  0.00     0.278 HD
ENDROOT
BRANCH   1   4
HETATM    4  C   UNL     1       6.771  31.551  58.491  1.00  0.00     0.290 C 
BRANCH   4   5
HETATM    5  C   UNL     1       6.693  32.068  59.877  1.00  0.00     0.042 A 
HETATM    6  C   UNL     1       5.757  32.889  60.496  1.00  0.00    -0.025 A 
HETATM    7  C   UNL     1       4.527  33.494  59.908  1.00  0.00     0.051 C 
HETATM    8  C   UNL     1       6.203  33.094  61.841  1.00  0.00     0.001 A 
HETATM    9  C   UNL     1       7.397  32.401  61.999  1.00  0.00     0.043 A 
HETATM   10  C   UNL     1       5.703  33.826  62.937  1.00  0.00     0.051 A 
HETATM   11  N   UNL     1       7.678  31.794  60.801  1.00  0.00    -0.357 N 
HETATM   12  C   UNL     1       8.117  32.400  63.200  1.00  0.00     0.033 A 
HETATM   13  H   UNL     1       8.518  31.250  60.642  1.00  0.00     0.166 HD
HETATM   14  C   UNL     1       7.603  33.143  64.270  1.00  0.00     0.039 A 
HETATM   15  C   UNL     1       6.413  33.858  64.145  1.00  0.00     0.069 A 
BRANCH  15  16
HETATM   16  O   UNL     1       5.830  34.620  65.121  1.00  0.00    -0.356 OA
HETATM   17  C   UNL     1       4.959  33.950  66.026  1.00  0.00     0.210 C 
ENDBRANCH  15  16
ENDBRANCH   4   5
ENDBRANCH   1   4
BRANCH   1  18
HETATM   18  C   UNL     1       5.667  29.657  57.167  1.00  0.00     0.218 C 
HETATM   19  C   UNL     1       5.500  30.803  56.175  1.00  0.00     0.045 C 
BRANCH  18  20
HETATM   20  C   UNL     1       6.411  28.472  56.643  1.00  0.00     0.015 C 
HETATM   21  C   UNL     1       6.079  27.649  55.567  1.00  0.00     0.042 C 
HETATM   22  C   UNL     1       4.884  27.714  54.680  1.00  0.00     0.071 C 
HETATM   23  N   UNL     1       7.081  26.673  55.481  1.00  0.00    -0.238 N 
HETATM   24  N   UNL     1       7.910  26.767  56.555  1.00  0.00    -0.179 NA
HETATM   25  C   UNL     1       7.583  27.894  57.165  1.00  0.00     0.150 C 
BRANCH  23  26
HETATM   26  C   UNL     1       7.317  25.650  54.514  1.00  0.00     0.058 A 
HETATM   27  C   UNL     1       7.706  25.930  53.199  1.00  0.00     0.031 A 
HETATM   28  C   UNL     1       7.924  24.889  52.290  1.00  0.00     0.002 A 
HETATM   29  C   UNL     1       7.763  23.563  52.685  1.00  0.00     0.000 A 
HETATM   30  C   UNL     1       7.400  23.270  53.995  1.00  0.00     0.002 A 
HETATM   31  C   UNL     1       7.189  24.306  54.908  1.00  0.00     0.031 A 
ENDBRANCH  23  26
ENDBRANCH  18  20
ENDBRANCH   1  18
TORSDOF 6
ENDMDL
MODEL 10
REMARK VINA RESULT:      -8.9      3.588      9.728
REMARK  6 active torsions:
REMARK  status: ('A' for Active; 'I' for Inactive)
REMARK    1  A    between atoms: C_3  and  C_4 
REMARK    2  A    between atoms: C_4  and  N_5 
REMARK    3  A    between atoms: N_5  and  C_8 
REMARK    4  A    between atoms: C_8  and  C_9 
REMARK    5  A    between atoms: N_12  and  C_13 
REMARK    6  A    between atoms: C_28  and  O_29 
ROOT
HETATM    1  N   UNL     1       4.507  27.575  55.728  1.00  0.00    -0.062 N 
HETATM    2  H   UNL     1       4.124  27.096  54.904  1.00  0.00     0.278 HD
HETATM    3  H   UNL     1       3.734  28.145  56.087  1.00  0.00     0.278 HD
ENDROOT
BRANCH   1   4
HETATM    4  C   UNL     1       4.813  26.531  56.739  1.00  0.00     0.290 C 
BRANCH   4   5
HETATM    5  C   UNL     1       5.763  25.548  56.169  1.00  0.00     0.042 A 
HETATM    6  C   UNL     1       5.856  24.997  54.896  1.00  0.00    -0.025 A 
HETATM    7  C   UNL     1       4.989  25.260  53.710  1.00  0.00     0.051 C 
HETATM    8  C   UNL     1       6.948  24.071  54.916  1.00  0.00     0.001 A 
HETATM    9  C   UNL     1       7.481  24.079  56.200  1.00  0.00     0.043 A 
HETATM   10  C   UNL     1       7.520  23.210  53.958  1.00  0.00     0.051 A 
HETATM   11  N   UNL     1       6.749  24.971  56.941  1.00  0.00    -0.357 N 
HETATM   12  C   UNL     1       8.562  23.270  56.574  1.00  0.00     0.033 A 
HETATM   13  H   UNL     1       6.916  25.139  57.926  1.00  0.00     0.166 HD
HETATM   14  C   UNL     1       9.106  22.418  55.605  1.00  0.00     0.039 A 
HETATM   15  C   UNL     1       8.590  22.376  54.311  1.00  0.00     0.069 A 
BRANCH  15  16
HETATM   16  O   UNL     1       9.039  21.577  53.295  1.00  0.00    -0.356 OA
HETATM   17  C   UNL     1       8.261  20.423  52.993  1.00  0.00     0.210 C 
ENDBRANCH  15  16
ENDBRANCH   4   5
ENDBRANCH   1   4
BRANCH   1  18
HETATM   18  C   UNL     1       5.621  28.467  55.271  1.00  0.00     0.218 C 
HETATM   19  C   UNL     1       5.320  29.028  53.884  1.00  0.00     0.045 C 
BRANCH  18  20
HETATM   20  C   UNL     1       5.963  29.490  56.304  1.00  0.00     0.015 C 
HETATM   21  C   UNL     1       6.953  29.431  57.285  1.00  0.00     0.042 C 
HETATM   22  C   UNL     1       7.906  28.324  57.580  1.00  0.00     0.071 C 
HETATM   23  N   UNL     1       6.871  30.625  58.014  1.00  0.00    -0.238 N 
HETATM   24  N   UNL     1       5.772  31.326  57.628  1.00  0.00    -0.179 NA
HETATM   25  C   UNL     1       5.314  30.714  56.547  1.00  0.00     0.150 C 
BRANCH  23  26
HETATM   26  C   UNL     1       7.699  31.154  59.050  1.00  0.00     0.058 A 
HETATM   27  C   UNL     1       7.206  31.467  60.322  1.00  0.00     0.031 A 
HETATM   28  C   UNL     1       8.060  31.985  61.302  1.00  0.00     0.002 A 
HETATM   29  C   UNL     1       9.410  32.187  61.026  1.00  0.00     0.000 A 
HETATM   30  C   UNL     1       9.917  31.857  59.773  1.00  0.00     0.002 A 
HETATM   31  C   UNL     1       9.070  31.334  58.793  1.00  0.00     0.031 A 
ENDBRANCH  23  26
ENDBRANCH  18  20
ENDBRANCH   1  18
TORSDOF 6
ENDMDL
