MODEL 1
REMARK VINA RESULT:     -11.2      0.000      0.000
REMARK  7 active torsions:
REMARK  status: ('A' for Active; 'I' for Inactive)
REMARK    1  A    between atoms: C_5  and  C_6 
REMARK       I    between atoms: C_6  and  N_7 
REMARK    2  A    between atoms: N_10  and  C_11 
REMARK    3  A    between atoms: C_14  and  N_15 
REMARK    4  A    between atoms: N_15  and  C_16 
REMARK    5  A    between atoms: C_16  and  N_17 
REMARK       I    between atoms: N_17  and  C_18 
REMARK    6  A    between atoms: C_18  and  C_19 
REMARK    7  A    between atoms: C_20  and  O_21 
ROOT
HETATM    1  C   UNL     1       6.338  29.354  56.721  1.00  0.00     0.030 A 
HETATM    2  C   UNL     1       7.105  28.932  55.627  1.00  0.00     0.031 A 
HETATM    3  C   UNL     1       6.568  28.135  54.606  1.00  0.00     0.032 A 
HETATM    4  C   UNL     1       5.244  27.714  54.659  1.00  0.00     0.034 A 
HETATM    5  C   UNL     1       4.433  28.210  55.680  1.00  0.00     0.032 A 
HETATM    6  C   UNL     1       4.980  29.003  56.700  1.00  0.00     0.031 A 
ENDROOT
BRANCH   4   7
HETATM    7  N   UNL     1       4.664  26.817  53.731  1.00  0.00    -0.333 N 
HETATM    8  H   UNL     1       3.739  26.494  53.990  1.00  0.00     0.168 HD
BRANCH   7   9
HETATM    9  C   UNL     1       5.309  25.945  52.841  1.00  0.00     0.179 C 
HETATM   10  S   UNL     1       5.302  26.021  51.168  1.00  0.00    -0.040 SA
BRANCH   9  11
HETATM   11  N   UNL     1       6.018  24.984  53.579  1.00  0.00    -0.299 N 
HETATM   12  C   UNL     1       7.284  24.466  53.315  1.00  0.00     0.260 C 
HETATM   13  O   UNL     1       8.222  25.082  52.824  1.00  0.00    -0.267 OA
HETATM   14  H   UNL     1       5.439  24.438  54.201  1.00  0.00     0.171 HD
BRANCH  12  15
HETATM   15  C   UNL     1       7.494  23.086  53.803  1.00  0.00     0.065 A 
HETATM   16  C   UNL     1       7.453  22.788  55.168  1.00  0.00     0.084 A 
HETATM   17  C   UNL     1       7.680  21.480  55.603  1.00  0.00     0.038 A 
HETATM   18  C   UNL     1       7.987  20.481  54.678  1.00  0.00     0.003 A 
HETATM   19  C   UNL     1       8.048  20.781  53.316  1.00  0.00     0.001 A 
HETATM   20  C   UNL     1       7.801  22.082  52.873  1.00  0.00     0.020 A 
BRANCH  16  21
HETATM   21  O   UNL     1       7.081  23.733  56.085  1.00  0.00    -0.355 OA
HETATM   22  C   UNL     1       8.178  24.053  56.945  1.00  0.00     0.210 C 
ENDBRANCH  16  21
ENDBRANCH  12  15
ENDBRANCH   9  11
ENDBRANCH   7   9
ENDBRANCH   4   7
BRANCH   1  23
HETATM   23  N   UNL     1       6.883  30.001  57.828  1.00  0.00    -0.378 N 
HETATM   24  C   UNL     1       8.037  29.370  58.503  1.00  0.00     0.143 C 
HETATM   25  C   UNL     1       8.832  30.423  59.298  1.00  0.00     0.146 C 
HETATM   26  N   UNL     1       7.992  31.231  60.190  1.00  0.00    -0.345 N 
HETATM   27  C   UNL     1       8.654  31.924  61.208  1.00  0.00     0.253 C 
HETATM   28  C   UNL     1       6.786  31.779  59.548  1.00  0.00     0.146 C 
HETATM   29  O   UNL     1       9.868  31.865  61.388  1.00  0.00    -0.267 OA
HETATM   30  C   UNL     1       5.994  30.724  58.756  1.00  0.00     0.143 C 
BRANCH  27  31
HETATM   31  C   UNL     1       7.855  32.749  62.142  1.00  0.00     0.032 A 
HETATM   32  C   UNL     1       6.859  33.602  61.657  1.00  0.00     0.017 A 
HETATM   33  C   UNL     1       6.090  34.349  62.552  1.00  0.00     0.007 A 
HETATM   34  C   UNL     1       6.310  34.248  63.932  1.00  0.00    -0.062 A 
HETATM   35  C   UNL     1       5.454  35.018  64.895  1.00  0.00     0.048 C 
HETATM   36  C   UNL     1       7.288  33.363  64.408  1.00  0.00     0.007 A 
HETATM   37  C   UNL     1       8.058  32.613  63.517  1.00  0.00     0.017 A 
ENDBRANCH  27  31
ENDBRANCH   1  23
TORSDOF 7
ENDMDL
MODEL 2
REMARK VINA RESULT:     -11.0      2.746     11.670
REMARK  7 active torsions:
REMARK  status: ('A' for Active; 'I' for Inactive)
REMARK    1  A    between atoms: C_5  and  C_6 
REMARK       I    between atoms: C_6  and  N_7 
REMARK    2  A    between atoms: N_10  and  C_11 
REMARK    3  A    between atoms: C_14  and  N_15 
REMARK    4  A    between atoms: N_15  and  C_16 
REMARK    5  A    between atoms: C_16  and  N_17 
REMARK       I    between atoms: N_17  and  C_18 
REMARK    6  A    between atoms: C_18  and  C_19 
REMARK    7  A    between atoms: C_20  and  O_21 
ROOT
HETATM    1  C   UNL     1       6.592  29.607  56.462  1.00  0.00     0.030 A 
HETATM    2  C   UNL     1       5.682  30.648  56.234  1.00  0.00     0.031 A 
HETATM    3  C   UNL     1       5.511  31.699  57.146  1.00  0.00     0.032 A 
HETATM    4  C   UNL     1       6.236  31.731  58.332  1.00  0.00     0.034 A 
HETATM    5  C   UNL     1       7.224  30.767  58.530  1.00  0.00     0.032 A 
HETATM    6  C   UNL     1       7.384  29.715  57.615  1.00  0.00     0.031 A 
ENDROOT
BRANCH   4   7
HETATM    7  N   UNL     1       6.038  32.693  59.352  1.00  0.00    -0.333 N 
HETATM    8  H   UNL     1       6.888  33.154  59.657  1.00  0.00     0.168 HD
BRANCH   7   9
HETATM    9  C   UNL     1       5.022  32.743  60.318  1.00  0.00     0.179 C 
HETATM   10  S   UNL     1       3.424  32.281  60.130  1.00  0.00    -0.040 SA
BRANCH   9  11
HETATM   11  N   UNL     1       5.563  33.218  61.524  1.00  0.00    -0.299 N 
HETATM   12  C   UNL     1       6.204  32.487  62.521  1.00  0.00     0.260 C 
HETATM   13  O   UNL     1       6.922  31.512  62.344  1.00  0.00    -0.267 OA
HETATM   14  H   UNL     1       5.214  34.126  61.797  1.00  0.00     0.171 HD
BRANCH  12  15
HETATM   15  C   UNL     1       6.070  33.057  63.879  1.00  0.00     0.065 A 
HETATM   16  C   UNL     1       4.820  33.423  64.388  1.00  0.00     0.084 A 
HETATM   17  C   UNL     1       4.724  33.983  65.664  1.00  0.00     0.038 A 
HETATM   18  C   UNL     1       5.880  34.211  66.413  1.00  0.00     0.003 A 
HETATM   19  C   UNL     1       7.130  33.864  65.898  1.00  0.00     0.001 A 
HETATM   20  C   UNL     1       7.230  33.285  64.632  1.00  0.00     0.020 A 
BRANCH  16  21
HETATM   21  O   UNL     1       3.669  33.140  63.704  1.00  0.00    -0.355 OA
HETATM   22  C   UNL     1       2.891  34.326  63.524  1.00  0.00     0.210 C 
ENDBRANCH  16  21
ENDBRANCH  12  15
ENDBRANCH   9  11
ENDBRANCH   7   9
ENDBRANCH   4   7
BRANCH   1  23
HETATM   23  N   UNL     1       6.662  28.469  55.661  1.00  0.00    -0.378 N 
HETATM   24  C   UNL     1       5.687  28.335  54.558  1.00  0.00     0.143 C 
HETATM   25  C   UNL     1       6.226  27.371  53.484  1.00  0.00     0.146 C 
HETATM   26  N   UNL     1       6.680  26.087  54.033  1.00  0.00    -0.345 N 
HETATM   27  C   UNL     1       6.815  25.036  53.122  1.00  0.00     0.253 C 
HETATM   28  C   UNL     1       7.571  26.213  55.197  1.00  0.00     0.146 C 
HETATM   29  O   UNL     1       6.555  25.138  51.925  1.00  0.00    -0.267 OA
HETATM   30  C   UNL     1       7.030  27.176  56.268  1.00  0.00     0.143 C 
BRANCH  27  31
HETATM   31  C   UNL     1       7.264  23.716  53.622  1.00  0.00     0.032 A 
HETATM   32  C   UNL     1       7.912  22.819  52.768  1.00  0.00     0.017 A 
HETATM   33  C   UNL     1       8.360  21.592  53.261  1.00  0.00     0.007 A 
HETATM   34  C   UNL     1       8.167  21.256  54.608  1.00  0.00    -0.062 A 
HETATM   35  C   UNL     1       8.688  19.956  55.148  1.00  0.00     0.048 C 
HETATM   36  C   UNL     1       7.548  22.178  55.463  1.00  0.00     0.007 A 
HETATM   37  C   UNL     1       7.099  23.407  54.974  1.00  0.00     0.017 A 
ENDBRANCH  27  31
ENDBRANCH   1  23
TORSDOF 7
ENDMDL
MODEL 3
REMARK VINA RESULT:     -10.5      2.855     11.288
REMARK  7 active torsions:
REMARK  status: ('A' for Active; 'I' for Inactive)
REMARK    1  A    between atoms: C_5  and  C_6 
REMARK       I    between atoms: C_6  and  N_7 
REMARK    2  A    between atoms: N_10  and  C_11 
REMARK    3  A    between atoms: C_14  and  N_15 
REMARK    4  A    between atoms: N_15  and  C_16 
REMARK    5  A    between atoms: C_16  and  N_17 
REMARK       I    between atoms: N_17  and  C_18 
REMARK    6  A    between atoms: C_18  and  C_19 
REMARK    7  A    between atoms: C_20  and  O_21 
ROOT
HETATM    1  C   UNL     1       5.208  29.408  56.451  1.00  0.00     0.030 A 
HETATM    2  C   UNL     1       3.856  29.774  56.450  1.00  0.00     0.031 A 
HETATM    3  C   UNL     1       3.335  30.698  57.367  1.00  0.00     0.032 A 
HETATM    4  C   UNL     1       4.153  31.273  58.334  1.00  0.00     0.034 A 
HETATM    5  C   UNL     1       5.521  31.008  58.285  1.00  0.00     0.032 A 
HETATM    6  C   UNL     1       6.033  30.077  57.368  1.00  0.00     0.031 A 
ENDROOT
BRANCH   4   7
HETATM    7  N   UNL     1       3.681  32.123  59.362  1.00  0.00    -0.333 N 
HETATM    8  H   UNL     1       2.681  32.066  59.519  1.00  0.00     0.168 HD
BRANCH   7   9
HETATM    9  C   UNL     1       4.228  33.332  59.814  1.00  0.00     0.179 C 
HETATM   10  S   UNL     1       3.950  34.862  59.193  1.00  0.00    -0.040 SA
BRANCH   9  11
HETATM   11  N   UNL     1       5.046  33.075  60.926  1.00  0.00    -0.299 N 
HETATM   12  C   UNL     1       4.677  32.525  62.151  1.00  0.00     0.260 C 
HETATM   13  O   UNL     1       3.823  31.665  62.321  1.00  0.00    -0.267 OA
HETATM   14  H   UNL     1       5.920  33.583  60.916  1.00  0.00     0.171 HD
BRANCH  12  15
HETATM   15  C   UNL     1       5.505  32.966  63.294  1.00  0.00     0.065 A 
HETATM   16  C   UNL     1       6.896  32.826  63.276  1.00  0.00     0.084 A 
HETATM   17  C   UNL     1       7.651  33.226  64.380  1.00  0.00     0.038 A 
HETATM   18  C   UNL     1       7.014  33.730  65.515  1.00  0.00     0.003 A 
HETATM   19  C   UNL     1       5.624  33.853  65.542  1.00  0.00     0.001 A 
HETATM   20  C   UNL     1       4.865  33.473  64.434  1.00  0.00     0.020 A 
BRANCH  16  21
HETATM   21  O   UNL     1       7.547  32.405  62.148  1.00  0.00    -0.355 OA
HETATM   22  C   UNL     1       8.004  31.059  62.308  1.00  0.00     0.210 C 
ENDBRANCH  16  21
ENDBRANCH  12  15
ENDBRANCH   9  11
ENDBRANCH   7   9
ENDBRANCH   4   7
BRANCH   1  23
HETATM   23  N   UNL     1       5.717  28.374  55.668  1.00  0.00    -0.378 N 
HETATM   24  C   UNL     1       5.366  28.353  54.232  1.00  0.00     0.143 C 
HETATM   25  C   UNL     1       6.403  27.534  53.441  1.00  0.00     0.146 C 
HETATM   26  N   UNL     1       6.646  26.203  54.010  1.00  0.00    -0.345 N 
HETATM   27  C   UNL     1       7.257  25.270  53.167  1.00  0.00     0.253 C 
HETATM   28  C   UNL     1       6.896  26.207  55.460  1.00  0.00     0.146 C 
HETATM   29  O   UNL     1       7.566  25.509  52.002  1.00  0.00    -0.267 OA
HETATM   30  C   UNL     1       5.858  27.025  56.248  1.00  0.00     0.143 C 
BRANCH  27  31
HETATM   31  C   UNL     1       7.520  23.909  53.688  1.00  0.00     0.032 A 
HETATM   32  C   UNL     1       8.098  22.936  52.866  1.00  0.00     0.017 A 
HETATM   33  C   UNL     1       8.372  21.667  53.380  1.00  0.00     0.007 A 
HETATM   34  C   UNL     1       8.075  21.364  54.716  1.00  0.00    -0.062 A 
HETATM   35  C   UNL     1       8.410  20.014  55.280  1.00  0.00     0.048 C 
HETATM   36  C   UNL     1       7.528  22.358  55.540  1.00  0.00     0.007 A 
HETATM   37  C   UNL     1       7.254  23.629  55.030  1.00  0.00     0.017 A 
ENDBRANCH  27  31
ENDBRANCH   1  23
TORSDOF 7
ENDMDL
MODEL 4
REMARK VINA RESULT:     -10.4      3.080     11.974
REMARK  7 active torsions:
REMARK  status: ('A' for Active; 'I' for Inactive)
REMARK    1  A    between atoms: C_5  and  C_6 
REMARK       I    between atoms: C_6  and  N_7 
REMARK    2  A    between atoms: N_10  and  C_11 
REMARK    3  A    between atoms: C_14  and  N_15 
REMARK    4  A    between atoms: N_15  and  C_16 
REMARK    5  A    between atoms: C_16  and  N_17 
REMARK       I    between atoms: N_17  and  C_18 
REMARK    6  A    between atoms: C_18  and  C_19 
REMARK    7  A    between atoms: C_20  and  O_21 
ROOT
HETATM    1  C   UNL     1       6.977  29.435  57.387  1.00  0.00     0.030 A 
HETATM    2  C   UNL     1       6.046  30.473  57.520  1.00  0.00     0.031 A 
HETATM    3  C   UNL     1       6.200  31.494  58.469  1.00  0.00     0.032 A 
HETATM    4  C   UNL     1       7.289  31.498  59.333  1.00  0.00     0.034 A 
HETATM    5  C   UNL     1       8.284  30.538  59.146  1.00  0.00     0.032 A 
HETATM    6  C   UNL     1       8.118  29.517  58.199  1.00  0.00     0.031 A 
ENDROOT
BRANCH   4   7
HETATM    7  N   UNL     1       7.455  32.426  60.388  1.00  0.00    -0.333 N 
HETATM    8  H   UNL     1       8.012  33.236  60.143  1.00  0.00     0.168 HD
BRANCH   7   9
HETATM    9  C   UNL     1       7.431  32.188  61.770  1.00  0.00     0.179 C 
HETATM   10  S   UNL     1       8.407  31.135  62.632  1.00  0.00    -0.040 SA
BRANCH   9  11
HETATM   11  N   UNL     1       6.462  33.015  62.359  1.00  0.00    -0.299 N 
HETATM   12  C   UNL     1       5.153  33.235  61.936  1.00  0.00     0.260 C 
HETATM   13  O   UNL     1       4.423  32.407  61.407  1.00  0.00    -0.267 OA
HETATM   14  H   UNL     1       6.844  33.706  62.990  1.00  0.00     0.171 HD
BRANCH  12  15
HETATM   15  C   UNL     1       4.610  34.564  62.292  1.00  0.00     0.065 A 
HETATM   16  C   UNL     1       4.689  35.050  63.601  1.00  0.00     0.084 A 
HETATM   17  C   UNL     1       4.144  36.297  63.915  1.00  0.00     0.038 A 
HETATM   18  C   UNL     1       3.490  37.040  62.931  1.00  0.00     0.003 A 
HETATM   19  C   UNL     1       3.394  36.548  61.628  1.00  0.00     0.001 A 
HETATM   20  C   UNL     1       3.954  35.310  61.303  1.00  0.00     0.020 A 
BRANCH  16  21
HETATM   21  O   UNL     1       5.390  34.375  64.562  1.00  0.00    -0.355 OA
HETATM   22  C   UNL     1       4.508  33.908  65.588  1.00  0.00     0.210 C 
ENDBRANCH  16  21
ENDBRANCH  12  15
ENDBRANCH   9  11
ENDBRANCH   7   9
ENDBRANCH   4   7
BRANCH   1  23
HETATM   23  N   UNL     1       6.767  28.323  56.575  1.00  0.00    -0.378 N 
HETATM   24  C   UNL     1       5.387  28.046  56.121  1.00  0.00     0.143 C 
HETATM   25  C   UNL     1       5.409  27.178  54.849  1.00  0.00     0.146 C 
HETATM   26  N   UNL     1       6.241  25.976  54.982  1.00  0.00    -0.345 N 
HETATM   27  C   UNL     1       6.017  24.959  54.049  1.00  0.00     0.253 C 
HETATM   28  C   UNL     1       7.583  26.232  55.530  1.00  0.00     0.146 C 
HETATM   29  O   UNL     1       5.164  25.024  53.168  1.00  0.00    -0.267 OA
HETATM   30  C   UNL     1       7.558  27.099  56.801  1.00  0.00     0.143 C 
BRANCH  27  31
HETATM   31  C   UNL     1       6.825  23.721  54.141  1.00  0.00     0.032 A 
HETATM   32  C   UNL     1       7.020  23.093  55.374  1.00  0.00     0.017 A 
HETATM   33  C   UNL     1       7.756  21.908  55.440  1.00  0.00     0.007 A 
HETATM   34  C   UNL     1       8.296  21.343  54.277  1.00  0.00    -0.062 A 
HETATM   35  C   UNL     1       9.048  20.045  54.343  1.00  0.00     0.048 C 
HETATM   36  C   UNL     1       8.063  21.962  53.041  1.00  0.00     0.007 A 
HETATM   37  C   UNL     1       7.326  23.146  52.971  1.00  0.00     0.017 A 
ENDBRANCH  27  31
ENDBRANCH   1  23
TORSDOF 7
ENDMDL
MODEL 5
REMARK VINA RESULT:     -10.4      3.099     12.117
REMARK  7 active torsions:
REMARK  status: ('A' for Active; 'I' for Inactive)
REMARK    1  A    between atoms: C_5  and  C_6 
REMARK       I    between atoms: C_6  and  N_7 
REMARK    2  A    between atoms: N_10  and  C_11 
REMARK    3  A    between atoms: C_14  and  N_15 
REMARK    4  A    between atoms: N_15  and  C_16 
REMARK    5  A    between atoms: C_16  and  N_17 
REMARK       I    between atoms: N_17  and  C_18 
REMARK    6  A    between atoms: C_18  and  C_19 
REMARK    7  A    between atoms: C_20  and  O_21 
ROOT
HETATM    1  C   UNL     1       6.014  30.509  57.684  1.00  0.00     0.030 A 
HETATM    2  C   UNL     1       4.919  31.160  58.266  1.00  0.00     0.031 A 
HETATM    3  C   UNL     1       5.062  32.013  59.371  1.00  0.00     0.032 A 
HETATM    4  C   UNL     1       6.311  32.226  59.942  1.00  0.00     0.034 A 
HETATM    5  C   UNL     1       7.429  31.677  59.313  1.00  0.00     0.032 A 
HETATM    6  C   UNL     1       7.276  30.820  58.213  1.00  0.00     0.031 A 
ENDROOT
BRANCH   4   7
HETATM    7  N   UNL     1       6.520  32.979  61.122  1.00  0.00    -0.333 N 
HETATM    8  H   UNL     1       6.385  33.977  61.006  1.00  0.00     0.168 HD
BRANCH   7   9
HETATM    9  C   UNL     1       7.338  32.671  62.220  1.00  0.00     0.179 C 
HETATM   10  S   UNL     1       8.816  31.886  62.190  1.00  0.00    -0.040 SA
BRANCH   9  11
HETATM   11  N   UNL     1       6.737  33.164  63.389  1.00  0.00    -0.299 N 
HETATM   12  C   UNL     1       5.453  32.910  63.865  1.00  0.00     0.260 C 
HETATM   13  O   UNL     1       4.843  31.855  63.750  1.00  0.00    -0.267 OA
HETATM   14  H   UNL     1       7.195  33.981  63.769  1.00  0.00     0.171 HD
BRANCH  12  15
HETATM   15  C   UNL     1       4.874  34.003  64.675  1.00  0.00     0.065 A 
HETATM   16  C   UNL     1       4.690  35.281  64.139  1.00  0.00     0.084 A 
HETATM   17  C   UNL     1       4.165  36.302  64.935  1.00  0.00     0.038 A 
HETATM   18  C   UNL     1       3.860  36.054  66.274  1.00  0.00     0.003 A 
HETATM   19  C   UNL     1       4.061  34.784  66.816  1.00  0.00     0.001 A 
HETATM   20  C   UNL     1       4.566  33.754  66.020  1.00  0.00     0.020 A 
BRANCH  16  21
HETATM   21  O   UNL     1       4.912  35.526  62.811  1.00  0.00    -0.355 OA
HETATM   22  C   UNL     1       3.670  35.705  62.123  1.00  0.00     0.210 C 
ENDBRANCH  16  21
ENDBRANCH  12  15
ENDBRANCH   9  11
ENDBRANCH   7   9
ENDBRANCH   4   7
BRANCH   1  23
HETATM   23  N   UNL     1       5.883  29.532  56.700  1.00  0.00    -0.378 N 
HETATM   24  C   UNL     1       4.532  29.267  56.160  1.00  0.00     0.143 C 
HETATM   25  C   UNL     1       4.633  28.614  54.768  1.00  0.00     0.146 C 
HETATM   26  N   UNL     1       5.522  27.446  54.739  1.00  0.00    -0.345 N 
HETATM   27  C   UNL     1       5.376  26.581  53.651  1.00  0.00     0.253 C 
HETATM   28  C   UNL     1       6.833  27.674  55.367  1.00  0.00     0.146 C 
HETATM   29  O   UNL     1       4.544  26.746  52.761  1.00  0.00    -0.267 OA
HETATM   30  C   UNL     1       6.730  28.325  56.757  1.00  0.00     0.143 C 
BRANCH  27  31
HETATM   31  C   UNL     1       6.243  25.383  53.573  1.00  0.00     0.032 A 
HETATM   32  C   UNL     1       7.099  25.199  52.484  1.00  0.00     0.017 A 
HETATM   33  C   UNL     1       7.936  24.082  52.440  1.00  0.00     0.007 A 
HETATM   34  C   UNL     1       7.925  23.147  53.484  1.00  0.00    -0.062 A 
HETATM   35  C   UNL     1       8.856  21.970  53.458  1.00  0.00     0.048 C 
HETATM   36  C   UNL     1       7.088  23.361  54.588  1.00  0.00     0.007 A 
HETATM   37  C   UNL     1       6.251  24.478  54.636  1.00  0.00     0.017 A 
ENDBRANCH  27  31
ENDBRANCH   1  23
TORSDOF 7
ENDMDL
MODEL 6
REMARK VINA RESULT:     -10.1      3.298     10.984
REMARK  7 active torsions:
REMARK  status: ('A' for Active; 'I' for Inactive)
REMARK    1  A    between atoms: C_5  and  C_6 
REMARK       I    between atoms: C_6  and  N_7 
REMARK    2  A    between atoms: N_10  and  C_11 
REMARK    3  A    between atoms: C_14  and  N_15 
REMARK    4  A    between atoms: N_15  and  C_16 
REMARK    5  A    between atoms: C_16  and  N_17 
REMARK       I    between atoms: N_17  and  C_18 
REMARK    6  A    between atoms: C_18  and  C_19 
REMARK    7  A    between atoms: C_20  and  O_21 
ROOT
HETATM    1  C   UNL     1       5.599  29.425  57.300  1.00  0.00     0.030 A 
HETATM    2  C   UNL     1       4.205  29.541  57.225  1.00  0.00     0.031 A 
HETATM    3  C   UNL     1       3.543  30.744  57.510  1.00  0.00     0.032 A 
HETATM    4  C   UNL     1       4.259  31.870  57.900  1.00  0.00     0.034 A 
HETATM    5  C   UNL     1       5.652  31.810  57.875  1.00  0.00     0.032 A 
HETATM    6  C   UNL     1       6.306  30.600  57.595  1.00  0.00     0.031 A 
ENDROOT
BRANCH   4   7
HETATM    7  N   UNL     1       3.657  33.083  58.313  1.00  0.00    -0.333 N 
HETATM    8  H   UNL     1       3.695  33.821  57.619  1.00  0.00     0.168 HD
BRANCH   7   9
HETATM    9  C   UNL     1       3.496  33.577  59.616  1.00  0.00     0.179 C 
HETATM   10  S   UNL     1       2.269  34.568  60.177  1.00  0.00    -0.040 SA
BRANCH   9  11
HETATM   11  N   UNL     1       4.529  33.076  60.424  1.00  0.00    -0.299 N 
HETATM   12  C   UNL     1       4.427  32.526  61.700  1.00  0.00     0.260 C 
HETATM   13  O   UNL     1       3.494  31.852  62.117  1.00  0.00    -0.267 OA
HETATM   14  H   UNL     1       5.450  33.390  60.151  1.00  0.00     0.171 HD
BRANCH  12  15
HETATM   15  C   UNL     1       5.632  32.701  62.539  1.00  0.00     0.065 A 
HETATM   16  C   UNL     1       5.669  33.654  63.561  1.00  0.00     0.084 A 
HETATM   17  C   UNL     1       6.829  33.817  64.322  1.00  0.00     0.038 A 
HETATM   18  C   UNL     1       7.962  33.054  64.036  1.00  0.00     0.003 A 
HETATM   19  C   UNL     1       7.933  32.115  63.004  1.00  0.00     0.001 A 
HETATM   20  C   UNL     1       6.770  31.934  62.253  1.00  0.00     0.020 A 
BRANCH  16  21
HETATM   21  O   UNL     1       4.548  34.359  63.908  1.00  0.00    -0.355 OA
HETATM   22  C   UNL     1       4.128  34.010  65.230  1.00  0.00     0.210 C 
ENDBRANCH  16  21
ENDBRANCH  12  15
ENDBRANCH   9  11
ENDBRANCH   7   9
ENDBRANCH   4   7
BRANCH   1  23
HETATM   23  N   UNL     1       6.268  28.208  57.187  1.00  0.00    -0.378 N 
HETATM   24  C   UNL     1       7.648  28.123  57.713  1.00  0.00     0.143 C 
HETATM   25  C   UNL     1       8.014  26.658  58.015  1.00  0.00     0.146 C 
HETATM   26  N   UNL     1       7.752  25.752  56.890  1.00  0.00    -0.345 N 
HETATM   27  C   UNL     1       8.397  24.512  56.928  1.00  0.00     0.253 C 
HETATM   28  C   UNL     1       6.414  25.903  56.295  1.00  0.00     0.146 C 
HETATM   29  O   UNL     1       9.164  24.175  57.827  1.00  0.00    -0.267 OA
HETATM   30  C   UNL     1       6.052  27.368  55.995  1.00  0.00     0.143 C 
BRANCH  27  31
HETATM   31  C   UNL     1       8.173  23.561  55.815  1.00  0.00     0.032 A 
HETATM   32  C   UNL     1       8.207  24.002  54.489  1.00  0.00     0.017 A 
HETATM   33  C   UNL     1       8.028  23.088  53.449  1.00  0.00     0.007 A 
HETATM   34  C   UNL     1       7.818  21.730  53.727  1.00  0.00    -0.062 A 
HETATM   35  C   UNL     1       7.671  20.742  52.607  1.00  0.00     0.048 C 
HETATM   36  C   UNL     1       7.823  21.294  55.059  1.00  0.00     0.007 A 
HETATM   37  C   UNL     1       8.003  22.204  56.102  1.00  0.00     0.017 A 
ENDBRANCH  27  31
ENDBRANCH   1  23
TORSDOF 7
ENDMDL
MODEL 7
REMARK VINA RESULT:      -9.9      2.346      3.027
REMARK  7 active torsions:
REMARK  status: ('A' for Active; 'I' for Inactive)
REMARK    1  A    between atoms: C_5  and  C_6 
REMARK       I    between atoms: C_6  and  N_7 
REMARK    2  A    between atoms: N_10  and  C_11 
REMARK    3  A    between atoms: C_14  and  N_15 
REMARK    4  A    between atoms: N_15  and  C_16 
REMARK    5  A    between atoms: C_16  and  N_17 
REMARK       I    between atoms: N_17  and  C_18 
REMARK    6  A    between atoms: C_18  and  C_19 
REMARK    7  A    between atoms: C_20  and  O_21 
ROOT
HETATM    1  C   UNL     1       5.311  30.439  57.559  1.00  0.00     0.030 A 
HETATM    2  C   UNL     1       4.537  30.303  56.399  1.00  0.00     0.031 A 
HETATM    3  C   UNL     1       5.001  29.606  55.273  1.00  0.00     0.032 A 
HETATM    4  C   UNL     1       6.270  29.039  55.267  1.00  0.00     0.034 A 
HETATM    5  C   UNL     1       7.014  29.068  56.446  1.00  0.00     0.032 A 
HETATM    6  C   UNL     1       6.544  29.772  57.566  1.00  0.00     0.031 A 
ENDROOT
BRANCH   4   7
HETATM    7  N   UNL     1       6.852  28.422  54.133  1.00  0.00    -0.333 N 
HETATM    8  H   UNL     1       7.395  29.051  53.553  1.00  0.00     0.168 HD
BRANCH   7   9
HETATM    9  C   UNL     1       6.407  27.291  53.432  1.00  0.00     0.179 C 
HETATM   10  S   UNL     1       5.283  27.248  52.193  1.00  0.00    -0.040 SA
BRANCH   9  11
HETATM   11  N   UNL     1       7.092  26.161  53.908  1.00  0.00    -0.299 N 
HETATM   12  C   UNL     1       7.804  25.218  53.171  1.00  0.00     0.260 C 
HETATM   13  O   UNL     1       8.458  25.444  52.161  1.00  0.00    -0.267 OA
HETATM   14  H   UNL     1       6.812  25.877  54.837  1.00  0.00     0.171 HD
BRANCH  12  15
HETATM   15  C   UNL     1       7.837  23.869  53.775  1.00  0.00     0.065 A 
HETATM   16  C   UNL     1       8.036  23.696  55.148  1.00  0.00     0.084 A 
HETATM   17  C   UNL     1       8.090  22.409  55.688  1.00  0.00     0.038 A 
HETATM   18  C   UNL     1       7.983  21.297  54.851  1.00  0.00     0.003 A 
HETATM   19  C   UNL     1       7.803  21.468  53.478  1.00  0.00     0.001 A 
HETATM   20  C   UNL     1       7.728  22.752  52.935  1.00  0.00     0.020 A 
BRANCH  16  21
HETATM   21  O   UNL     1       8.069  24.769  55.996  1.00  0.00    -0.355 OA
HETATM   22  C   UNL     1       8.924  24.499  57.111  1.00  0.00     0.210 C 
ENDBRANCH  16  21
ENDBRANCH  12  15
ENDBRANCH   9  11
ENDBRANCH   7   9
ENDBRANCH   4   7
BRANCH   1  23
HETATM   23  N   UNL     1       4.948  31.262  58.623  1.00  0.00    -0.378 N 
HETATM   24  C   UNL     1       3.519  31.322  58.999  1.00  0.00     0.143 C 
HETATM   25  C   UNL     1       3.371  31.794  60.457  1.00  0.00     0.146 C 
HETATM   26  N   UNL     1       4.111  33.029  60.745  1.00  0.00    -0.345 N 
HETATM   27  C   UNL     1       3.733  33.726  61.896  1.00  0.00     0.253 C 
HETATM   28  C   UNL     1       5.507  33.014  60.281  1.00  0.00     0.146 C 
HETATM   29  O   UNL     1       2.821  33.366  62.637  1.00  0.00    -0.267 OA
HETATM   30  C   UNL     1       5.652  32.543  58.823  1.00  0.00     0.143 C 
BRANCH  27  31
HETATM   31  C   UNL     1       4.442  34.982  62.231  1.00  0.00     0.032 A 
HETATM   32  C   UNL     1       4.329  36.101  61.401  1.00  0.00     0.017 A 
HETATM   33  C   UNL     1       4.976  37.289  61.747  1.00  0.00     0.007 A 
HETATM   34  C   UNL     1       5.734  37.367  62.923  1.00  0.00    -0.062 A 
HETATM   35  C   UNL     1       6.393  38.657  63.317  1.00  0.00     0.048 C 
HETATM   36  C   UNL     1       5.810  36.250  63.766  1.00  0.00     0.007 A 
HETATM   37  C   UNL     1       5.164  35.060  63.424  1.00  0.00     0.017 A 
ENDBRANCH  27  31
ENDBRANCH   1  23
TORSDOF 7
ENDMDL
MODEL 8
REMARK VINA RESULT:      -9.8      1.424      2.241
REMARK  7 active torsions:
REMARK  status: ('A' for Active; 'I' for Inactive)
REMARK    1  A    between atoms: C_5  and  C_6 
REMARK       I    between atoms: C_6  and  N_7 
REMARK    2  A    between atoms: N_10  and  C_11 
REMARK    3  A    between atoms: C_14  and  N_15 
REMARK    4  A    between atoms: N_15  and  C_16 
REMARK    5  A    between atoms: C_16  and  N_17 
REMARK       I    between atoms: N_17  and  C_18 
REMARK    6  A    between atoms: C_18  and  C_19 
REMARK    7  A    between atoms: C_20  and  O_21 
ROOT
HETATM    1  C   UNL     1       5.350  30.224  56.789  1.00  0.00     0.030 A 
HETATM    2  C   UNL     1       5.194  30.888  55.566  1.00  0.00     0.031 A 
HETATM    3  C   UNL     1       4.641  30.257  54.442  1.00  0.00     0.032 A 
HETATM    4  C   UNL     1       4.243  28.926  54.503  1.00  0.00     0.034 A 
HETATM    5  C   UNL     1       4.286  28.279  55.738  1.00  0.00     0.032 A 
HETATM    6  C   UNL     1       4.847  28.916  56.855  1.00  0.00     0.031 A 
ENDROOT
BRANCH   4   7
HETATM    7  N   UNL     1       3.784  28.189  53.386  1.00  0.00    -0.333 N 
HETATM    8  H   UNL     1       2.900  27.716  53.537  1.00  0.00     0.168 HD
BRANCH   7   9
HETATM    9  C   UNL     1       4.538  27.605  52.358  1.00  0.00     0.179 C 
HETATM   10  S   UNL     1       4.476  27.971  50.725  1.00  0.00    -0.040 SA
BRANCH   9  11
HETATM   11  N   UNL     1       5.413  26.658  52.915  1.00  0.00    -0.299 N 
HETATM   12  C   UNL     1       5.114  25.373  53.358  1.00  0.00     0.260 C 
HETATM   13  O   UNL     1       4.285  24.620  52.864  1.00  0.00    -0.267 OA
HETATM   14  H   UNL     1       6.276  27.055  53.261  1.00  0.00     0.171 HD
BRANCH  12  15
HETATM   15  C   UNL     1       5.988  24.882  54.446  1.00  0.00     0.065 A 
HETATM   16  C   UNL     1       6.952  23.897  54.209  1.00  0.00     0.084 A 
HETATM   17  C   UNL     1       7.746  23.432  55.259  1.00  0.00     0.038 A 
HETATM   18  C   UNL     1       7.551  23.924  56.551  1.00  0.00     0.003 A 
HETATM   19  C   UNL     1       6.576  24.893  56.793  1.00  0.00     0.001 A 
HETATM   20  C   UNL     1       5.793  25.376  55.743  1.00  0.00     0.020 A 
BRANCH  16  21
HETATM   21  O   UNL     1       7.212  23.456  52.940  1.00  0.00    -0.355 OA
HETATM   22  C   UNL     1       7.965  22.240  52.978  1.00  0.00     0.210 C 
ENDBRANCH  16  21
ENDBRANCH  12  15
ENDBRANCH   9  11
ENDBRANCH   7   9
ENDBRANCH   4   7
BRANCH   1  23
HETATM   23  N   UNL     1       6.045  30.768  57.867  1.00  0.00    -0.378 N 
HETATM   24  C   UNL     1       7.332  30.148  58.247  1.00  0.00     0.143 C 
HETATM   25  C   UNL     1       8.196  31.152  59.034  1.00  0.00     0.146 C 
HETATM   26  N   UNL     1       7.484  31.773  60.157  1.00  0.00    -0.345 N 
HETATM   27  C   UNL     1       8.277  32.382  61.135  1.00  0.00     0.253 C 
HETATM   28  C   UNL     1       6.156  32.303  59.807  1.00  0.00     0.146 C 
HETATM   29  O   UNL     1       9.505  32.395  61.099  1.00  0.00    -0.267 OA
HETATM   30  C   UNL     1       5.295  31.297  59.022  1.00  0.00     0.143 C 
BRANCH  27  31
HETATM   31  C   UNL     1       7.611  33.020  62.293  1.00  0.00     0.032 A 
HETATM   32  C   UNL     1       6.612  33.978  62.096  1.00  0.00     0.017 A 
HETATM   33  C   UNL     1       5.970  34.547  63.198  1.00  0.00     0.007 A 
HETATM   34  C   UNL     1       6.317  34.159  64.499  1.00  0.00    -0.062 A 
HETATM   35  C   UNL     1       5.595  34.738  65.681  1.00  0.00     0.048 C 
HETATM   36  C   UNL     1       7.294  33.172  64.683  1.00  0.00     0.007 A 
HETATM   37  C   UNL     1       7.939  32.600  63.584  1.00  0.00     0.017 A 
ENDBRANCH  27  31
ENDBRANCH   1  23
TORSDOF 7
ENDMDL
MODEL 9
REMARK VINA RESULT:      -9.7      3.335     11.351
REMARK  7 active torsions:
REMARK  status: ('A' for Active; 'I' for Inactive)
REMARK    1  A    between atoms: C_5  and  C_6 
REMARK       I    between atoms: C_6  and  N_7 
REMARK    2  A    between atoms: N_10  and  C_11 
REMARK    3  A    between atoms: C_14  and  N_15 
REMARK    4  A    between atoms: N_15  and  C_16 
REMARK    5  A    between atoms: C_16  and  N_17 
REMARK       I    between atoms: N_17  and  C_18 
REMARK    6  A    between atoms: C_18  and  C_19 
REMARK    7  A    between atoms: C_20  and  O_21 
ROOT
HETATM    1  C   UNL     1       4.907  30.567  56.637  1.00  0.00     0.030 A 
HETATM    2  C   UNL     1       5.881  31.005  57.544  1.00  0.00     0.031 A 
HETATM    3  C   UNL     1       5.768  32.226  58.225  1.00  0.00     0.032 A 
HETATM    4  C   UNL     1       4.679  33.061  58.003  1.00  0.00     0.034 A 
HETATM    5  C   UNL     1       3.645  32.597  57.191  1.00  0.00     0.032 A 
HETATM    6  C   UNL     1       3.769  31.377  56.508  1.00  0.00     0.031 A 
ENDROOT
BRANCH   4   7
HETATM    7  N   UNL     1       4.550  34.354  58.564  1.00  0.00    -0.333 N 
HETATM    8  H   UNL     1       5.356  34.951  58.416  1.00  0.00     0.168 HD
BRANCH   7   9
HETATM    9  C   UNL     1       3.778  34.755  59.664  1.00  0.00     0.179 C 
HETATM   10  S   UNL     1       2.363  35.650  59.634  1.00  0.00    -0.040 SA
BRANCH   9  11
HETATM   11  N   UNL     1       4.359  34.249  60.838  1.00  0.00    -0.299 N 
HETATM   12  C   UNL     1       5.151  34.927  61.761  1.00  0.00     0.260 C 
HETATM   13  O   UNL     1       5.031  36.102  62.082  1.00  0.00    -0.267 OA
HETATM   14  H   UNL     1       4.418  33.241  60.862  1.00  0.00     0.171 HD
BRANCH  12  15
HETATM   15  C   UNL     1       6.126  34.073  62.474  1.00  0.00     0.065 A 
HETATM   16  C   UNL     1       6.216  34.090  63.870  1.00  0.00     0.084 A 
HETATM   17  C   UNL     1       7.164  33.293  64.516  1.00  0.00     0.038 A 
HETATM   18  C   UNL     1       8.045  32.512  63.767  1.00  0.00     0.003 A 
HETATM   19  C   UNL     1       7.969  32.509  62.374  1.00  0.00     0.001 A 
HETATM   20  C   UNL     1       7.010  33.287  61.722  1.00  0.00     0.020 A 
BRANCH  16  21
HETATM   21  O   UNL     1       5.315  34.789  64.626  1.00  0.00    -0.355 OA
HETATM   22  C   UNL     1       4.595  33.905  65.489  1.00  0.00     0.210 C 
ENDBRANCH  16  21
ENDBRANCH  12  15
ENDBRANCH   9  11
ENDBRANCH   7   9
ENDBRANCH   4   7
BRANCH   1  23
HETATM   23  N   UNL     1       5.072  29.447  55.825  1.00  0.00    -0.378 N 
HETATM   24  C   UNL     1       3.906  28.976  55.047  1.00  0.00     0.143 C 
HETATM   25  C   UNL     1       4.374  28.138  53.842  1.00  0.00     0.146 C 
HETATM   26  N   UNL     1       5.312  27.070  54.208  1.00  0.00    -0.345 N 
HETATM   27  C   UNL     1       5.480  26.044  53.274  1.00  0.00     0.253 C 
HETATM   28  C   UNL     1       6.420  27.513  55.069  1.00  0.00     0.146 C 
HETATM   29  O   UNL     1       4.876  25.995  52.205  1.00  0.00    -0.267 OA
HETATM   30  C   UNL     1       5.951  28.349  56.272  1.00  0.00     0.143 C 
BRANCH  27  31
HETATM   31  C   UNL     1       6.411  24.937  53.594  1.00  0.00     0.032 A 
HETATM   32  C   UNL     1       7.337  24.495  52.645  1.00  0.00     0.017 A 
HETATM   33  C   UNL     1       8.231  23.473  52.972  1.00  0.00     0.007 A 
HETATM   34  C   UNL     1       8.207  22.891  54.247  1.00  0.00    -0.062 A 
HETATM   35  C   UNL     1       9.197  21.824  54.612  1.00  0.00     0.048 C 
HETATM   36  C   UNL     1       7.297  23.367  55.201  1.00  0.00     0.007 A 
HETATM   37  C   UNL     1       6.402  24.390  54.879  1.00  0.00     0.017 A 
ENDBRANCH  27  31
ENDBRANCH   1  23
TORSDOF 7
ENDMDL
MODEL 10
REMARK VINA RESULT:      -9.7      3.062      4.861
REMARK  7 active torsions:
REMARK  status: ('A' for Active; 'I' for Inactive)
REMARK    1  A    between atoms: C_5  and  C_6 
REMARK       I    between atoms: C_6  and  N_7 
REMARK    2  A    between atoms: N_10  and  C_11 
REMARK    3  A    between atoms: C_14  and  N_15 
REMARK    4  A    between atoms: N_15  and  C_16 
REMARK    5  A    between atoms: C_16  and  N_17 
REMARK       I    between atoms: N_17  and  C_18 
REMARK    6  A    between atoms: C_18  and  C_19 
REMARK    7  A    between atoms: C_20  and  O_21 
ROOT
HETATM    1  C   UNL     1       7.139  29.391  56.027  1.00  0.00     0.030 A 
HETATM    2  C   UNL     1       8.011  28.722  55.159  1.00  0.00     0.031 A 
HETATM    3  C   UNL     1       7.546  27.962  54.077  1.00  0.00     0.032 A 
HETATM    4  C   UNL     1       6.183  27.829  53.840  1.00  0.00     0.034 A 
HETATM    5  C   UNL     1       5.300  28.573  54.623  1.00  0.00     0.032 A 
HETATM    6  C   UNL     1       5.774  29.326  55.708  1.00  0.00     0.031 A 
ENDROOT
BRANCH   4   7
HETATM    7  N   UNL     1       5.634  26.990  52.841  1.00  0.00    -0.333 N 
HETATM    8  H   UNL     1       4.691  26.673  53.039  1.00  0.00     0.168 HD
BRANCH   7   9
HETATM    9  C   UNL     1       6.307  26.149  51.943  1.00  0.00     0.179 C 
HETATM   10  S   UNL     1       7.583  25.120  52.284  1.00  0.00    -0.040 SA
BRANCH   9  11
HETATM   11  N   UNL     1       5.714  26.267  50.676  1.00  0.00    -0.299 N 
HETATM   12  C   UNL     1       5.157  27.403  50.094  1.00  0.00     0.260 C 
HETATM   13  O   UNL     1       5.554  28.552  50.243  1.00  0.00    -0.267 OA
HETATM   14  H   UNL     1       5.438  25.383  50.271  1.00  0.00     0.171 HD
BRANCH  12  15
HETATM   15  C   UNL     1       4.072  27.126  49.127  1.00  0.00     0.065 A 
HETATM   16  C   UNL     1       2.910  27.903  49.104  1.00  0.00     0.084 A 
HETATM   17  C   UNL     1       1.890  27.604  48.198  1.00  0.00     0.038 A 
HETATM   18  C   UNL     1       2.016  26.507  47.344  1.00  0.00     0.003 A 
HETATM   19  C   UNL     1       3.167  25.719  47.380  1.00  0.00     0.001 A 
HETATM   20  C   UNL     1       4.199  26.025  48.269  1.00  0.00     0.020 A 
BRANCH  16  21
HETATM   21  O   UNL     1       2.797  29.026  49.878  1.00  0.00    -0.355 OA
HETATM   22  C   UNL     1       1.461  29.158  50.373  1.00  0.00     0.210 C 
ENDBRANCH  16  21
ENDBRANCH  12  15
ENDBRANCH   9  11
ENDBRANCH   7   9
ENDBRANCH   4   7
BRANCH   1  23
HETATM   23  N   UNL     1       7.560  30.011  57.202  1.00  0.00    -0.378 N 
HETATM   24  C   UNL     1       8.785  29.501  57.855  1.00  0.00     0.143 C 
HETATM   25  C   UNL     1       9.397  30.587  58.761  1.00  0.00     0.146 C 
HETATM   26  N   UNL     1       8.429  31.176  59.694  1.00  0.00    -0.345 N 
HETATM   27  C   UNL     1       8.961  31.866  60.787  1.00  0.00     0.253 C 
HETATM   28  C   UNL     1       7.165  31.592  59.065  1.00  0.00     0.146 C 
HETATM   29  O   UNL     1      10.167  31.974  60.998  1.00  0.00    -0.267 OA
HETATM   30  C   UNL     1       6.556  30.506  58.162  1.00  0.00     0.143 C 
BRANCH  27  31
HETATM   31  C   UNL     1       8.030  32.476  61.764  1.00  0.00     0.032 A 
HETATM   32  C   UNL     1       8.188  32.241  63.133  1.00  0.00     0.017 A 
HETATM   33  C   UNL     1       7.323  32.849  64.045  1.00  0.00     0.007 A 
HETATM   34  C   UNL     1       6.301  33.696  63.596  1.00  0.00    -0.062 A 
HETATM   35  C   UNL     1       5.400  34.384  64.580  1.00  0.00     0.048 C 
HETATM   36  C   UNL     1       6.175  33.952  62.224  1.00  0.00     0.007 A 
HETATM   37  C   UNL     1       7.039  33.347  61.308  1.00  0.00     0.017 A 
ENDBRANCH  27  31
ENDBRANCH   1  23
TORSDOF 7
ENDMDL
