MODEL 1
REMARK VINA RESULT:      -8.9      0.000      0.000
REMARK  2 active torsions:
REMARK  status: ('A' for Active; 'I' for Inactive)
REMARK    1  A    between atoms: C_5  and  C_7 
REMARK    2  A    between atoms: C_5  and  O_6 
ROOT
HETATM    1  C   UNL     1       7.984  30.900  59.694  1.00  0.00     0.050 C 
HETATM    2  C   UNL     1       8.462  30.219  58.450  1.00  0.00    -0.035 A 
HETATM    3  C   UNL     1       7.647  29.468  57.618  1.00  0.00     0.051 A 
HETATM    4  C   UNL     1       8.126  28.846  56.456  1.00  0.00     0.018 A 
HETATM    5  C   UNL     1       6.982  28.161  55.737  1.00  0.00     0.199 A 
HETATM    6  C   UNL     1       5.795  28.414  56.729  1.00  0.00     0.266 A 
HETATM    7  O   UNL     1       4.629  28.063  56.633  1.00  0.00    -0.269 OA
HETATM    8  N   UNL     1       6.289  29.209  57.764  1.00  0.00    -0.323 N 
HETATM    9  C   UNL     1       9.457  28.970  56.087  1.00  0.00     0.013 A 
HETATM   10  C   UNL     1      10.303  29.713  56.910  1.00  0.00     0.001 A 
HETATM   11  C   UNL     1       9.811  30.330  58.075  1.00  0.00     0.009 A 
HETATM   12  H   UNL     1       5.701  29.523  58.520  1.00  0.00     0.169 HD
ENDROOT
BRANCH   5  13
HETATM   13  C   UNL     1       7.342  26.701  55.577  1.00  0.00     0.025 A 
HETATM   14  C   UNL     1       7.441  25.945  54.345  1.00  0.00     0.003 A 
HETATM   15  C   UNL     1       7.819  24.644  54.674  1.00  0.00     0.043 A 
HETATM   16  C   UNL     1       7.249  26.241  52.976  1.00  0.00     0.014 A 
HETATM   17  C   UNL     1       8.016  23.636  53.721  1.00  0.00     0.030 A 
HETATM   18  N   UNL     1       7.947  24.592  56.038  1.00  0.00    -0.359 N 
HETATM   19  C   UNL     1       7.820  23.962  52.379  1.00  0.00     0.002 A 
HETATM   20  C   UNL     1       7.441  25.247  52.009  1.00  0.00     0.001 A 
HETATM   21  H   UNL     1       8.226  23.766  56.550  1.00  0.00     0.166 HD
HETATM   22  C   UNL     1       7.661  25.808  56.601  1.00  0.00     0.016 A 
HETATM   23  C   UNL     1       7.744  25.996  58.075  1.00  0.00     0.069 C 
ENDBRANCH   5  13
BRANCH   5  24
HETATM   24  O   UNL     1       6.753  28.838  54.502  1.00  0.00    -0.371 OA
HETATM   25  H   UNL     1       7.399  29.562  54.460  1.00  0.00     0.212 HD
ENDBRANCH   5  24
TORSDOF 2
ENDMDL
MODEL 2
REMARK VINA RESULT:      -8.9      1.294      2.449
REMARK  2 active torsions:
REMARK  status: ('A' for Active; 'I' for Inactive)
REMARK    1  A    between atoms: C_5  and  C_7 
REMARK    2  A    between atoms: C_5  and  O_6 
ROOT
HETATM    1  C   UNL     1       9.109  30.497  59.839  1.00  0.00     0.050 C 
HETATM    2  C   UNL     1       9.181  30.083  58.403  1.00  0.00    -0.035 A 
HETATM    3  C   UNL     1       8.116  29.544  57.700  1.00  0.00     0.051 A 
HETATM    4  C   UNL     1       8.215  29.171  56.352  1.00  0.00     0.018 A 
HETATM    5  C   UNL     1       6.868  28.680  55.859  1.00  0.00     0.199 A 
HETATM    6  C   UNL     1       6.014  28.746  57.171  1.00  0.00     0.266 A 
HETATM    7  O   UNL     1       4.840  28.451  57.337  1.00  0.00    -0.269 OA
HETATM    8  N   UNL     1       6.830  29.292  58.164  1.00  0.00    -0.323 N 
HETATM    9  C   UNL     1       9.404  29.338  55.659  1.00  0.00     0.013 A 
HETATM   10  C   UNL     1      10.496  29.870  56.344  1.00  0.00     0.001 A 
HETATM   11  C   UNL     1      10.386  30.238  57.697  1.00  0.00     0.009 A 
HETATM   12  H   UNL     1       6.492  29.453  59.100  1.00  0.00     0.169 HD
ENDROOT
BRANCH   5  13
HETATM   13  C   UNL     1       7.053  27.279  55.322  1.00  0.00     0.025 A 
HETATM   14  C   UNL     1       7.643  26.143  56.000  1.00  0.00     0.003 A 
HETATM   15  C   UNL     1       7.588  25.053  55.132  1.00  0.00     0.043 A 
HETATM   16  C   UNL     1       8.219  25.933  57.273  1.00  0.00     0.014 A 
HETATM   17  C   UNL     1       8.067  23.780  55.464  1.00  0.00     0.030 A 
HETATM   18  N   UNL     1       6.995  25.488  53.974  1.00  0.00    -0.359 N 
HETATM   19  C   UNL     1       8.627  23.605  56.730  1.00  0.00     0.002 A 
HETATM   20  C   UNL     1       8.704  24.666  57.625  1.00  0.00     0.001 A 
HETATM   21  H   UNL     1       6.816  24.898  53.173  1.00  0.00     0.166 HD
HETATM   22  C   UNL     1       6.673  26.816  54.061  1.00  0.00     0.016 A 
HETATM   23  C   UNL     1       6.008  27.508  52.923  1.00  0.00     0.069 C 
ENDBRANCH   5  13
BRANCH   5  24
HETATM   24  O   UNL     1       6.373  29.608  54.895  1.00  0.00    -0.371 OA
HETATM   25  H   UNL     1       6.723  29.326  54.035  1.00  0.00     0.212 HD
ENDBRANCH   5  24
TORSDOF 2
ENDMDL
MODEL 3
REMARK VINA RESULT:      -8.5      7.655     12.124
REMARK  2 active torsions:
REMARK  status: ('A' for Active; 'I' for Inactive)
REMARK    1  A    between atoms: C_5  and  C_7 
REMARK    2  A    between atoms: C_5  and  O_6 
ROOT
HETATM    1  C   UNL     1       7.000  32.186  60.108  1.00  0.00     0.050 C 
HETATM    2  C   UNL     1       6.960  32.646  61.532  1.00  0.00    -0.035 A 
HETATM    3  C   UNL     1       5.917  33.376  62.079  1.00  0.00     0.051 A 
HETATM    4  C   UNL     1       5.908  33.787  63.419  1.00  0.00     0.018 A 
HETATM    5  C   UNL     1       4.608  34.504  63.724  1.00  0.00     0.199 A 
HETATM    6  C   UNL     1       3.923  34.516  62.314  1.00  0.00     0.266 A 
HETATM    7  O   UNL     1       2.841  34.984  61.992  1.00  0.00    -0.269 OA
HETATM    8  N   UNL     1       4.756  33.805  61.448  1.00  0.00    -0.323 N 
HETATM    9  C   UNL     1       6.960  33.465  64.263  1.00  0.00     0.013 A 
HETATM   10  C   UNL     1       8.028  32.738  63.738  1.00  0.00     0.001 A 
HETATM   11  C   UNL     1       8.027  32.334  62.390  1.00  0.00     0.009 A 
HETATM   12  H   UNL     1       4.514  33.659  60.480  1.00  0.00     0.169 HD
ENDROOT
BRANCH   5  13
HETATM   13  C   UNL     1       4.949  35.880  64.248  1.00  0.00     0.025 A 
HETATM   14  C   UNL     1       5.547  36.980  63.519  1.00  0.00     0.003 A 
HETATM   15  C   UNL     1       5.660  38.059  64.395  1.00  0.00     0.043 A 
HETATM   16  C   UNL     1       6.003  37.166  62.194  1.00  0.00     0.014 A 
HETATM   17  C   UNL     1       6.195  39.299  64.023  1.00  0.00     0.030 A 
HETATM   18  N   UNL     1       5.160  37.653  65.605  1.00  0.00    -0.359 N 
HETATM   19  C   UNL     1       6.633  39.450  62.707  1.00  0.00     0.002 A 
HETATM   20  C   UNL     1       6.540  38.399  61.803  1.00  0.00     0.001 A 
HETATM   21  H   UNL     1       5.108  38.243  66.424  1.00  0.00     0.166 HD
HETATM   22  C   UNL     1       4.735  36.352  65.544  1.00  0.00     0.016 A 
HETATM   23  C   UNL     1       4.142  35.694  66.741  1.00  0.00     0.069 C 
ENDBRANCH   5  13
BRANCH   5  24
HETATM   24  O   UNL     1       3.855  33.707  64.637  1.00  0.00    -0.371 OA
HETATM   25  H   UNL     1       2.934  34.008  64.571  1.00  0.00     0.212 HD
ENDBRANCH   5  24
TORSDOF 2
ENDMDL
MODEL 4
REMARK VINA RESULT:      -8.2      1.577      5.602
REMARK  2 active torsions:
REMARK  status: ('A' for Active; 'I' for Inactive)
REMARK    1  A    between atoms: C_5  and  C_7 
REMARK    2  A    between atoms: C_5  and  O_6 
ROOT
HETATM    1  C   UNL     1       7.581  24.740  53.159  1.00  0.00     0.050 C 
HETATM    2  C   UNL     1       7.109  25.187  54.507  1.00  0.00    -0.035 A 
HETATM    3  C   UNL     1       6.442  26.380  54.735  1.00  0.00     0.051 A 
HETATM    4  C   UNL     1       6.007  26.767  56.011  1.00  0.00     0.018 A 
HETATM    5  C   UNL     1       5.259  28.082  55.916  1.00  0.00     0.199 A 
HETATM    6  C   UNL     1       5.422  28.423  54.396  1.00  0.00     0.266 A 
HETATM    7  O   UNL     1       5.006  29.393  53.780  1.00  0.00    -0.269 OA
HETATM    8  N   UNL     1       6.094  27.352  53.805  1.00  0.00    -0.323 N 
HETATM    9  C   UNL     1       6.228  25.951  57.110  1.00  0.00     0.013 A 
HETATM   10  C   UNL     1       6.905  24.748  56.912  1.00  0.00     0.001 A 
HETATM   11  C   UNL     1       7.339  24.371  55.628  1.00  0.00     0.009 A 
HETATM   12  H   UNL     1       6.298  27.333  52.818  1.00  0.00     0.169 HD
ENDROOT
BRANCH   5  13
HETATM   13  C   UNL     1       5.937  29.069  56.839  1.00  0.00     0.025 A 
HETATM   14  C   UNL     1       7.358  29.241  57.058  1.00  0.00     0.003 A 
HETATM   15  C   UNL     1       7.524  30.278  57.977  1.00  0.00     0.043 A 
HETATM   16  C   UNL     1       8.525  28.617  56.563  1.00  0.00     0.014 A 
HETATM   17  C   UNL     1       8.778  30.721  58.418  1.00  0.00     0.030 A 
HETATM   18  N   UNL     1       6.273  30.726  58.312  1.00  0.00    -0.359 N 
HETATM   19  C   UNL     1       9.910  30.085  57.906  1.00  0.00     0.002 A 
HETATM   20  C   UNL     1       9.788  29.047  56.991  1.00  0.00     0.001 A 
HETATM   21  H   UNL     1       6.097  31.487  58.954  1.00  0.00     0.166 HD
HETATM   22  C   UNL     1       5.307  30.015  57.650  1.00  0.00     0.016 A 
HETATM   23  C   UNL     1       3.866  30.332  57.849  1.00  0.00     0.069 C 
ENDBRANCH   5  13
BRANCH   5  24
HETATM   24  O   UNL     1       3.887  27.845  56.230  1.00  0.00    -0.371 OA
HETATM   25  H   UNL     1       3.366  28.283  55.538  1.00  0.00     0.212 HD
ENDBRANCH   5  24
TORSDOF 2
ENDMDL
MODEL 5
REMARK VINA RESULT:      -8.1      6.721      9.021
REMARK  2 active torsions:
REMARK  status: ('A' for Active; 'I' for Inactive)
REMARK    1  A    between atoms: C_5  and  C_7 
REMARK    2  A    between atoms: C_5  and  O_6 
ROOT
HETATM    1  C   UNL     1       4.439  35.709  65.458  1.00  0.00     0.050 C 
HETATM    2  C   UNL     1       4.326  35.478  63.983  1.00  0.00    -0.035 A 
HETATM    3  C   UNL     1       4.418  34.230  63.388  1.00  0.00     0.051 A 
HETATM    4  C   UNL     1       4.303  34.047  62.003  1.00  0.00     0.018 A 
HETATM    5  C   UNL     1       4.382  32.569  61.676  1.00  0.00     0.199 A 
HETATM    6  C   UNL     1       4.655  31.953  63.091  1.00  0.00     0.266 A 
HETATM    7  O   UNL     1       4.810  30.781  63.399  1.00  0.00    -0.269 OA
HETATM    8  N   UNL     1       4.621  33.004  64.009  1.00  0.00    -0.323 N 
HETATM    9  C   UNL     1       4.082  35.128  61.164  1.00  0.00     0.013 A 
HETATM   10  C   UNL     1       3.995  36.398  61.734  1.00  0.00     0.001 A 
HETATM   11  C   UNL     1       4.115  36.570  63.125  1.00  0.00     0.009 A 
HETATM   12  H   UNL     1       4.751  32.850  64.997  1.00  0.00     0.169 HD
ENDROOT
BRANCH   5  13
HETATM   13  C   UNL     1       5.515  32.370  60.695  1.00  0.00     0.025 A 
HETATM   14  C   UNL     1       6.929  32.257  60.989  1.00  0.00     0.003 A 
HETATM   15  C   UNL     1       7.600  32.064  59.782  1.00  0.00     0.043 A 
HETATM   16  C   UNL     1       7.707  32.298  62.168  1.00  0.00     0.014 A 
HETATM   17  C   UNL     1       8.989  31.907  59.692  1.00  0.00     0.030 A 
HETATM   18  N   UNL     1       6.655  32.057  58.790  1.00  0.00    -0.359 N 
HETATM   19  C   UNL     1       9.728  31.950  60.874  1.00  0.00     0.002 A 
HETATM   20  C   UNL     1       9.097  32.143  62.098  1.00  0.00     0.001 A 
HETATM   21  H   UNL     1       6.863  31.922  57.810  1.00  0.00     0.166 HD
HETATM   22  C   UNL     1       5.401  32.245  59.310  1.00  0.00     0.016 A 
HETATM   23  C   UNL     1       4.209  32.265  58.418  1.00  0.00     0.069 C 
ENDBRANCH   5  13
BRANCH   5  24
HETATM   24  O   UNL     1       3.111  32.146  61.185  1.00  0.00    -0.371 OA
HETATM   25  H   UNL     1       3.036  31.200  61.390  1.00  0.00     0.212 HD
ENDBRANCH   5  24
TORSDOF 2
ENDMDL
MODEL 6
REMARK VINA RESULT:      -8.1      5.918      8.857
REMARK  2 active torsions:
REMARK  status: ('A' for Active; 'I' for Inactive)
REMARK    1  A    between atoms: C_5  and  C_7 
REMARK    2  A    between atoms: C_5  and  O_6 
ROOT
HETATM    1  C   UNL     1       3.854  35.553  65.906  1.00  0.00     0.050 C 
HETATM    2  C   UNL     1       4.544  35.494  64.579  1.00  0.00    -0.035 A 
HETATM    3  C   UNL     1       4.744  34.324  63.864  1.00  0.00     0.051 A 
HETATM    4  C   UNL     1       5.390  34.304  62.620  1.00  0.00     0.018 A 
HETATM    5  C   UNL     1       5.391  32.891  62.069  1.00  0.00     0.199 A 
HETATM    6  C   UNL     1       4.725  32.099  63.246  1.00  0.00     0.266 A 
HETATM    7  O   UNL     1       4.485  30.904  63.325  1.00  0.00    -0.269 OA
HETATM    8  N   UNL     1       4.360  33.035  64.215  1.00  0.00    -0.323 N 
HETATM    9  C   UNL     1       5.856  35.477  62.047  1.00  0.00     0.013 A 
HETATM   10  C   UNL     1       5.678  36.669  62.749  1.00  0.00     0.001 A 
HETATM   11  C   UNL     1       5.030  36.677  63.998  1.00  0.00     0.009 A 
HETATM   12  H   UNL     1       3.891  32.764  65.065  1.00  0.00     0.169 HD
ENDROOT
BRANCH   5  13
HETATM   13  C   UNL     1       6.826  32.497  61.805  1.00  0.00     0.025 A 
HETATM   14  C   UNL     1       7.387  31.974  60.576  1.00  0.00     0.003 A 
HETATM   15  C   UNL     1       8.751  31.771  60.783  1.00  0.00     0.043 A 
HETATM   16  C   UNL     1       6.867  31.653  59.301  1.00  0.00     0.014 A 
HETATM   17  C   UNL     1       9.613  31.275  59.797  1.00  0.00     0.030 A 
HETATM   18  N   UNL     1       9.025  32.147  62.072  1.00  0.00    -0.359 N 
HETATM   19  C   UNL     1       9.069  30.971  58.549  1.00  0.00     0.002 A 
HETATM   20  C   UNL     1       7.713  31.156  58.302  1.00  0.00     0.001 A 
HETATM   21  H   UNL     1       9.946  32.117  62.488  1.00  0.00     0.166 HD
HETATM   22  C   UNL     1       7.889  32.579  62.705  1.00  0.00     0.016 A 
HETATM   23  C   UNL     1       7.944  33.050  64.117  1.00  0.00     0.069 C 
ENDBRANCH   5  13
BRANCH   5  24
HETATM   24  O   UNL     1       4.559  32.857  60.911  1.00  0.00    -0.371 OA
HETATM   25  H   UNL     1       4.978  33.435  60.253  1.00  0.00     0.212 HD
ENDBRANCH   5  24
TORSDOF 2
ENDMDL
MODEL 7
REMARK VINA RESULT:      -7.9      2.971      6.046
REMARK  2 active torsions:
REMARK  status: ('A' for Active; 'I' for Inactive)
REMARK    1  A    between atoms: C_5  and  C_7 
REMARK    2  A    between atoms: C_5  and  O_6 
ROOT
HETATM    1  C   UNL     1       7.620  21.258  54.759  1.00  0.00     0.050 C 
HETATM    2  C   UNL     1       7.647  22.630  54.162  1.00  0.00    -0.035 A 
HETATM    3  C   UNL     1       7.165  23.761  54.802  1.00  0.00     0.051 A 
HETATM    4  C   UNL     1       7.210  25.034  54.216  1.00  0.00     0.018 A 
HETATM    5  C   UNL     1       6.669  26.062  55.190  1.00  0.00     0.199 A 
HETATM    6  C   UNL     1       6.223  25.152  56.385  1.00  0.00     0.266 A 
HETATM    7  O   UNL     1       5.709  25.478  57.445  1.00  0.00    -0.269 OA
HETATM    8  N   UNL     1       6.590  23.844  56.064  1.00  0.00    -0.323 N 
HETATM    9  C   UNL     1       7.755  25.211  52.954  1.00  0.00     0.013 A 
HETATM   10  C   UNL     1       8.240  24.089  52.282  1.00  0.00     0.001 A 
HETATM   11  C   UNL     1       8.187  22.816  52.878  1.00  0.00     0.009 A 
HETATM   12  H   UNL     1       6.423  23.076  56.695  1.00  0.00     0.169 HD
ENDROOT
BRANCH   5  13
HETATM   13  C   UNL     1       5.526  26.785  54.514  1.00  0.00     0.025 A 
HETATM   14  C   UNL     1       5.147  28.175  54.665  1.00  0.00     0.003 A 
HETATM   15  C   UNL     1       4.048  28.408  53.839  1.00  0.00     0.043 A 
HETATM   16  C   UNL     1       5.634  29.263  55.425  1.00  0.00     0.014 A 
HETATM   17  C   UNL     1       3.420  29.655  53.730  1.00  0.00     0.030 A 
HETATM   18  N   UNL     1       3.758  27.227  53.208  1.00  0.00    -0.359 N 
HETATM   19  C   UNL     1       3.927  30.709  54.491  1.00  0.00     0.002 A 
HETATM   20  C   UNL     1       5.019  30.518  55.329  1.00  0.00     0.001 A 
HETATM   21  H   UNL     1       3.011  27.111  52.537  1.00  0.00     0.166 HD
HETATM   22  C   UNL     1       4.624  26.240  53.600  1.00  0.00     0.016 A 
HETATM   23  C   UNL     1       4.508  24.867  53.036  1.00  0.00     0.069 C 
ENDBRANCH   5  13
BRANCH   5  24
HETATM   24  O   UNL     1       7.741  26.917  55.586  1.00  0.00    -0.371 OA
HETATM   25  H   UNL     1       7.341  27.771  55.818  1.00  0.00     0.212 HD
ENDBRANCH   5  24
TORSDOF 2
ENDMDL
MODEL 8
REMARK VINA RESULT:      -7.8      2.984      3.518
REMARK  2 active torsions:
REMARK  status: ('A' for Active; 'I' for Inactive)
REMARK    1  A    between atoms: C_5  and  C_7 
REMARK    2  A    between atoms: C_5  and  O_6 
ROOT
HETATM    1  C   UNL     1       4.666  30.128  55.979  1.00  0.00     0.050 C 
HETATM    2  C   UNL     1       5.248  29.015  55.164  1.00  0.00    -0.035 A 
HETATM    3  C   UNL     1       5.228  27.684  55.549  1.00  0.00     0.051 A 
HETATM    4  C   UNL     1       5.778  26.664  54.760  1.00  0.00     0.018 A 
HETATM    5  C   UNL     1       5.538  25.322  55.422  1.00  0.00     0.199 A 
HETATM    6  C   UNL     1       4.848  25.756  56.761  1.00  0.00     0.266 A 
HETATM    7  O   UNL     1       4.445  25.055  57.677  1.00  0.00    -0.269 OA
HETATM    8  N   UNL     1       4.689  27.142  56.709  1.00  0.00    -0.323 N 
HETATM    9  C   UNL     1       6.367  26.956  53.539  1.00  0.00     0.013 A 
HETATM   10  C   UNL     1       6.410  28.289  53.130  1.00  0.00     0.001 A 
HETATM   11  C   UNL     1       5.858  29.304  53.932  1.00  0.00     0.009 A 
HETATM   12  H   UNL     1       4.245  27.653  57.456  1.00  0.00     0.169 HD
ENDROOT
BRANCH   5  13
HETATM   13  C   UNL     1       6.881  24.655  55.617  1.00  0.00     0.025 A 
HETATM   14  C   UNL     1       7.478  23.617  54.803  1.00  0.00     0.003 A 
HETATM   15  C   UNL     1       8.729  23.318  55.344  1.00  0.00     0.043 A 
HETATM   16  C   UNL     1       7.078  22.899  53.652  1.00  0.00     0.014 A 
HETATM   17  C   UNL     1       9.591  22.357  54.802  1.00  0.00     0.030 A 
HETATM   18  N   UNL     1       8.900  24.127  56.437  1.00  0.00    -0.359 N 
HETATM   19  C   UNL     1       9.167  21.669  53.664  1.00  0.00     0.002 A 
HETATM   20  C   UNL     1       7.927  21.934  53.096  1.00  0.00     0.001 A 
HETATM   21  H   UNL     1       9.729  24.131  57.015  1.00  0.00     0.166 HD
HETATM   22  C   UNL     1       7.806  24.930  56.625  1.00  0.00     0.016 A 
HETATM   23  C   UNL     1       7.769  25.904  57.750  1.00  0.00     0.069 C 
ENDBRANCH   5  13
BRANCH   5  24
HETATM   24  O   UNL     1       4.633  24.574  54.613  1.00  0.00    -0.371 OA
HETATM   25  H   UNL     1       5.164  23.907  54.149  1.00  0.00     0.212 HD
ENDBRANCH   5  24
TORSDOF 2
ENDMDL
MODEL 9
REMARK VINA RESULT:      -7.8      8.458     11.073
REMARK  2 active torsions:
REMARK  status: ('A' for Active; 'I' for Inactive)
REMARK    1  A    between atoms: C_5  and  C_7 
REMARK    2  A    between atoms: C_5  and  O_6 
ROOT
HETATM    1  C   UNL     1       6.200  39.357  64.742  1.00  0.00     0.050 C 
HETATM    2  C   UNL     1       5.671  38.529  63.613  1.00  0.00    -0.035 A 
HETATM    3  C   UNL     1       5.044  37.305  63.782  1.00  0.00     0.051 A 
HETATM    4  C   UNL     1       4.554  36.555  62.703  1.00  0.00     0.018 A 
HETATM    5  C   UNL     1       3.870  35.305  63.220  1.00  0.00     0.199 A 
HETATM    6  C   UNL     1       4.135  35.421  64.761  1.00  0.00     0.266 A 
HETATM    7  O   UNL     1       3.797  34.661  65.655  1.00  0.00    -0.269 OA
HETATM    8  N   UNL     1       4.792  36.634  64.973  1.00  0.00    -0.323 N 
HETATM    9  C   UNL     1       4.676  37.025  61.405  1.00  0.00     0.013 A 
HETATM   10  C   UNL     1       5.311  38.250  61.204  1.00  0.00     0.001 A 
HETATM   11  C   UNL     1       5.801  38.992  62.294  1.00  0.00     0.009 A 
HETATM   12  H   UNL     1       5.052  36.942  65.897  1.00  0.00     0.169 HD
ENDROOT
BRANCH   5  13
HETATM   13  C   UNL     1       4.536  34.111  62.575  1.00  0.00     0.025 A 
HETATM   14  C   UNL     1       5.808  33.513  62.925  1.00  0.00     0.003 A 
HETATM   15  C   UNL     1       6.013  32.424  62.078  1.00  0.00     0.043 A 
HETATM   16  C   UNL     1       6.810  33.791  63.883  1.00  0.00     0.014 A 
HETATM   17  C   UNL     1       7.148  31.605  62.140  1.00  0.00     0.030 A 
HETATM   18  N   UNL     1       4.926  32.348  61.246  1.00  0.00    -0.359 N 
HETATM   19  C   UNL     1       8.115  31.905  63.099  1.00  0.00     0.002 A 
HETATM   20  C   UNL     1       7.951  32.983  63.960  1.00  0.00     0.001 A 
HETATM   21  H   UNL     1       4.804  31.639  60.536  1.00  0.00     0.166 HD
HETATM   22  C   UNL     1       4.033  33.350  61.519  1.00  0.00     0.016 A 
HETATM   23  C   UNL     1       2.765  33.463  60.746  1.00  0.00     0.069 C 
ENDBRANCH   5  13
BRANCH   5  24
HETATM   24  O   UNL     1       2.474  35.408  62.945  1.00  0.00    -0.371 OA
HETATM   25  H   UNL     1       2.161  36.207  63.398  1.00  0.00     0.212 HD
ENDBRANCH   5  24
TORSDOF 2
ENDMDL
MODEL 10
REMARK VINA RESULT:      -7.6      2.545      6.359
REMARK  2 active torsions:
REMARK  status: ('A' for Active; 'I' for Inactive)
REMARK    1  A    between atoms: C_5  and  C_7 
REMARK    2  A    between atoms: C_5  and  O_6 
ROOT
HETATM    1  C   UNL     1       8.724  24.636  57.455  1.00  0.00     0.050 C 
HETATM    2  C   UNL     1       7.601  25.589  57.190  1.00  0.00    -0.035 A 
HETATM    3  C   UNL     1       7.782  26.914  56.827  1.00  0.00     0.051 A 
HETATM    4  C   UNL     1       6.708  27.780  56.580  1.00  0.00     0.018 A 
HETATM    5  C   UNL     1       7.234  29.133  56.143  1.00  0.00     0.199 A 
HETATM    6  C   UNL     1       8.781  28.921  56.275  1.00  0.00     0.266 A 
HETATM    7  O   UNL     1       9.684  29.712  56.047  1.00  0.00    -0.269 OA
HETATM    8  N   UNL     1       8.983  27.590  56.644  1.00  0.00    -0.323 N 
HETATM    9  C   UNL     1       5.400  27.331  56.685  1.00  0.00     0.013 A 
HETATM   10  C   UNL     1       5.188  26.004  57.058  1.00  0.00     0.001 A 
HETATM   11  C   UNL     1       6.273  25.145  57.306  1.00  0.00     0.009 A 
HETATM   12  H   UNL     1       9.907  27.208  56.771  1.00  0.00     0.169 HD
ENDROOT
BRANCH   5  13
HETATM   13  C   UNL     1       6.679  30.174  57.089  1.00  0.00     0.025 A 
HETATM   14  C   UNL     1       7.187  30.544  58.394  1.00  0.00     0.003 A 
HETATM   15  C   UNL     1       6.374  31.559  58.895  1.00  0.00     0.043 A 
HETATM   16  C   UNL     1       8.265  30.114  59.201  1.00  0.00     0.014 A 
HETATM   17  C   UNL     1       6.579  32.164  60.142  1.00  0.00     0.030 A 
HETATM   18  N   UNL     1       5.410  31.808  57.953  1.00  0.00    -0.359 N 
HETATM   19  C   UNL     1       7.654  31.719  60.912  1.00  0.00     0.002 A 
HETATM   20  C   UNL     1       8.487  30.707  60.450  1.00  0.00     0.001 A 
HETATM   21  H   UNL     1       4.690  32.511  58.051  1.00  0.00     0.166 HD
HETATM   22  C   UNL     1       5.567  30.988  56.867  1.00  0.00     0.016 A 
HETATM   23  C   UNL     1       4.638  31.084  55.707  1.00  0.00     0.069 C 
ENDBRANCH   5  13
BRANCH   5  24
HETATM   24  O   UNL     1       6.873  29.340  54.779  1.00  0.00    -0.371 OA
HETATM   25  H   UNL     1       5.996  29.757  54.785  1.00  0.00     0.212 HD
ENDBRANCH   5  24
TORSDOF 2
ENDMDL
