MODEL 1
REMARK VINA RESULT:      -7.7      0.000      0.000
REMARK  6 active torsions:
REMARK  status: ('A' for Active; 'I' for Inactive)
REMARK    1  A    between atoms: C_2  and  O_3 
REMARK    2  A    between atoms: O_3  and  C_4 
REMARK    3  A    between atoms: C_4  and  C_5 
REMARK    4  A    between atoms: C_6  and  O_7 
REMARK    5  A    between atoms: C_12  and  O_13 
REMARK    6  A    between atoms: C_17  and  C_18 
ROOT
HETATM    1  C   UNL     1       7.263  27.360  54.117  1.00  0.00     0.133 C 
HETATM    2  C   UNL     1       5.833  27.942  53.867  1.00  0.00     0.073 C 
HETATM    3  C   UNL     1       5.039  27.058  52.887  1.00  0.00     0.047 C 
HETATM    4  C   UNL     1       5.013  28.141  55.171  1.00  0.00     0.097 C 
HETATM    5  C   UNL     1       5.166  26.956  56.043  1.00  0.00     0.042 A 
HETATM    6  C   UNL     1       6.218  26.063  56.047  1.00  0.00     0.030 A 
HETATM    7  C   UNL     1       5.876  25.177  57.082  1.00  0.00     0.190 A 
HETATM    8  N   UNL     1       4.715  25.454  57.662  1.00  0.00    -0.149 NA
HETATM    9  N   UNL     1       4.297  26.556  57.015  1.00  0.00    -0.279 N 
HETATM   10  H   UNL     1       3.418  26.978  57.299  1.00  0.00     0.189 HD
HETATM   11  C   UNL     1       7.403  26.200  55.152  1.00  0.00     0.074 C 
ENDROOT
BRANCH  11  12
HETATM   12  C   UNL     1       7.698  24.851  54.505  1.00  0.00    -0.048 A 
HETATM   13  C   UNL     1       7.230  24.465  53.239  1.00  0.00     0.009 A 
HETATM   14  C   UNL     1       7.551  23.212  52.705  1.00  0.00     0.024 A 
HETATM   15  C   UNL     1       8.350  22.333  53.428  1.00  0.00     0.034 A 
HETATM   16 CL   UNL     1       8.741  20.791  52.773  1.00  0.00    -0.084 Cl
HETATM   17  C   UNL     1       8.835  22.694  54.680  1.00  0.00     0.024 A 
HETATM   18  C   UNL     1       8.515  23.946  55.212  1.00  0.00     0.009 A 
ENDBRANCH  11  12
BRANCH   1  19
HETATM   19  C   UNL     1       8.221  28.475  54.494  1.00  0.00     0.267 C 
HETATM   20  O   UNL     1       9.277  28.663  53.901  1.00  0.00    -0.265 OA
BRANCH  19  21
HETATM   21  O   UNL     1       7.771  29.216  55.539  1.00  0.00    -0.321 OA
BRANCH  21  22
HETATM   22  C   UNL     1       8.638  29.287  56.682  1.00  0.00     0.174 C 
HETATM   23  C   UNL     1       7.906  28.787  57.911  1.00  0.00     0.034 C 
ENDBRANCH  21  22
ENDBRANCH  19  21
ENDBRANCH   1  19
BRANCH   2  24
HETATM   24  O   UNL     1       5.919  29.226  53.222  1.00  0.00    -0.389 OA
HETATM   25  H   UNL     1       5.891  29.924  53.902  1.00  0.00     0.210 HD
ENDBRANCH   2  24
BRANCH   7  26
HETATM   26  O   UNL     1       6.531  24.111  57.547  1.00  0.00    -0.343 OA
HETATM   27  H   UNL     1       5.897  23.453  57.871  1.00  0.00     0.219 HD
ENDBRANCH   7  26
TORSDOF 6
ENDMDL
MODEL 2
REMARK VINA RESULT:      -7.5     10.424     13.297
REMARK  6 active torsions:
REMARK  status: ('A' for Active; 'I' for Inactive)
REMARK    1  A    between atoms: C_2  and  O_3 
REMARK    2  A    between atoms: O_3  and  C_4 
REMARK    3  A    between atoms: C_4  and  C_5 
REMARK    4  A    between atoms: C_6  and  O_7 
REMARK    5  A    between atoms: C_12  and  O_13 
REMARK    6  A    between atoms: C_17  and  C_18 
ROOT
HETATM    1  C   UNL     1       4.622  33.520  62.889  1.00  0.00     0.133 C 
HETATM    2  C   UNL     1       3.260  33.864  62.200  1.00  0.00     0.073 C 
HETATM    3  C   UNL     1       2.154  34.097  63.246  1.00  0.00     0.047 C 
HETATM    4  C   UNL     1       3.344  35.088  61.249  1.00  0.00     0.097 C 
HETATM    5  C   UNL     1       4.118  36.171  61.894  1.00  0.00     0.042 A 
HETATM    6  C   UNL     1       5.069  36.030  62.885  1.00  0.00     0.030 A 
HETATM    7  C   UNL     1       5.506  37.349  63.092  1.00  0.00     0.190 A 
HETATM    8  N   UNL     1       4.883  38.245  62.337  1.00  0.00    -0.149 NA
HETATM    9  N   UNL     1       4.039  37.501  61.601  1.00  0.00    -0.279 N 
HETATM   10  H   UNL     1       3.451  37.970  60.919  1.00  0.00     0.189 HD
HETATM   11  C   UNL     1       5.478  34.706  63.435  1.00  0.00     0.074 C 
ENDROOT
BRANCH  11  12
HETATM   12  C   UNL     1       5.495  34.783  64.957  1.00  0.00    -0.048 A 
HETATM   13  C   UNL     1       4.532  35.460  65.723  1.00  0.00     0.009 A 
HETATM   14  C   UNL     1       4.608  35.478  67.120  1.00  0.00     0.024 A 
HETATM   15  C   UNL     1       5.642  34.812  67.769  1.00  0.00     0.034 A 
HETATM   16 CL   UNL     1       5.737  34.838  69.486  1.00  0.00    -0.084 Cl
HETATM   17  C   UNL     1       6.603  34.125  67.035  1.00  0.00     0.024 A 
HETATM   18  C   UNL     1       6.525  34.107  65.640  1.00  0.00     0.009 A 
ENDBRANCH  11  12
BRANCH   1  19
HETATM   19  C   UNL     1       5.479  32.681  61.959  1.00  0.00     0.267 C 
HETATM   20  O   UNL     1       5.638  32.963  60.777  1.00  0.00    -0.265 OA
BRANCH  19  21
HETATM   21  O   UNL     1       6.034  31.613  62.587  1.00  0.00    -0.321 OA
BRANCH  21  22
HETATM   22  C   UNL     1       7.409  31.339  62.272  1.00  0.00     0.174 C 
HETATM   23  C   UNL     1       8.308  32.295  63.030  1.00  0.00     0.034 C 
ENDBRANCH  21  22
ENDBRANCH  19  21
ENDBRANCH   1  19
BRANCH   2  24
HETATM   24  O   UNL     1       2.800  32.749  61.415  1.00  0.00    -0.389 OA
HETATM   25  H   UNL     1       1.847  32.619  61.578  1.00  0.00     0.210 HD
ENDBRANCH   2  24
BRANCH   7  26
HETATM   26  O   UNL     1       6.430  37.822  63.932  1.00  0.00    -0.343 OA
HETATM   27  H   UNL     1       6.174  37.624  64.845  1.00  0.00     0.219 HD
ENDBRANCH   7  26
TORSDOF 6
ENDMDL
MODEL 3
REMARK VINA RESULT:      -7.4      9.727     12.433
REMARK  6 active torsions:
REMARK  status: ('A' for Active; 'I' for Inactive)
REMARK    1  A    between atoms: C_2  and  O_3 
REMARK    2  A    between atoms: O_3  and  C_4 
REMARK    3  A    between atoms: C_4  and  C_5 
REMARK    4  A    between atoms: C_6  and  O_7 
REMARK    5  A    between atoms: C_12  and  O_13 
REMARK    6  A    between atoms: C_17  and  C_18 
ROOT
HETATM    1  C   UNL     1       5.700  34.679  64.996  1.00  0.00     0.133 C 
HETATM    2  C   UNL     1       5.092  36.104  64.780  1.00  0.00     0.073 C 
HETATM    3  C   UNL     1       5.826  36.855  63.654  1.00  0.00     0.047 C 
HETATM    4  C   UNL     1       3.567  36.083  64.485  1.00  0.00     0.097 C 
HETATM    5  C   UNL     1       3.261  35.013  63.510  1.00  0.00     0.042 A 
HETATM    6  C   UNL     1       4.001  33.873  63.275  1.00  0.00     0.030 A 
HETATM    7  C   UNL     1       3.246  33.202  62.300  1.00  0.00     0.190 A 
HETATM    8  N   UNL     1       2.153  33.855  61.926  1.00  0.00    -0.149 NA
HETATM    9  N   UNL     1       2.175  34.963  62.687  1.00  0.00    -0.279 N 
HETATM   10  H   UNL     1       1.413  35.628  62.593  1.00  0.00     0.189 HD
HETATM   11  C   UNL     1       5.245  33.541  64.029  1.00  0.00     0.074 C 
ENDROOT
BRANCH  11  12
HETATM   12  C   UNL     1       6.329  33.122  63.043  1.00  0.00    -0.048 A 
HETATM   13  C   UNL     1       6.332  33.466  61.682  1.00  0.00     0.009 A 
HETATM   14  C   UNL     1       7.369  33.053  60.839  1.00  0.00     0.024 A 
HETATM   15  C   UNL     1       8.420  32.296  61.348  1.00  0.00     0.034 A 
HETATM   16 CL   UNL     1       9.692  31.784  60.310  1.00  0.00    -0.084 Cl
HETATM   17  C   UNL     1       8.446  31.950  62.694  1.00  0.00     0.024 A 
HETATM   18  C   UNL     1       7.410  32.365  63.536  1.00  0.00     0.009 A 
ENDBRANCH  11  12
BRANCH   1  19
HETATM   19  C   UNL     1       5.477  34.228  66.428  1.00  0.00     0.267 C 
HETATM   20  O   UNL     1       4.377  33.882  66.844  1.00  0.00    -0.265 OA
BRANCH  19  21
HETATM   21  O   UNL     1       6.617  34.252  67.165  1.00  0.00    -0.321 OA
BRANCH  21  22
HETATM   22  C   UNL     1       6.460  34.547  68.561  1.00  0.00     0.174 C 
HETATM   23  C   UNL     1       7.803  34.910  69.162  1.00  0.00     0.034 C 
ENDBRANCH  21  22
ENDBRANCH  19  21
ENDBRANCH   1  19
BRANCH   2  24
HETATM   24  O   UNL     1       5.284  36.915  65.953  1.00  0.00    -0.389 OA
HETATM   25  H   UNL     1       4.437  37.335  66.190  1.00  0.00     0.210 HD
ENDBRANCH   2  24
BRANCH   7  26
HETATM   26  O   UNL     1       3.472  32.032  61.697  1.00  0.00    -0.343 OA
HETATM   27  H   UNL     1       2.653  31.515  61.669  1.00  0.00     0.219 HD
ENDBRANCH   7  26
TORSDOF 6
ENDMDL
MODEL 4
REMARK VINA RESULT:      -7.2      2.138      3.202
REMARK  6 active torsions:
REMARK  status: ('A' for Active; 'I' for Inactive)
REMARK    1  A    between atoms: C_2  and  O_3 
REMARK    2  A    between atoms: O_3  and  C_4 
REMARK    3  A    between atoms: C_4  and  C_5 
REMARK    4  A    between atoms: C_6  and  O_7 
REMARK    5  A    between atoms: C_12  and  O_13 
REMARK    6  A    between atoms: C_17  and  C_18 
ROOT
HETATM    1  C   UNL     1       7.359  27.017  55.879  1.00  0.00     0.133 C 
HETATM    2  C   UNL     1       7.704  28.411  55.255  1.00  0.00     0.073 C 
HETATM    3  C   UNL     1       8.697  28.265  54.088  1.00  0.00     0.047 C 
HETATM    4  C   UNL     1       6.452  29.197  54.780  1.00  0.00     0.097 C 
HETATM    5  C   UNL     1       5.537  28.290  54.054  1.00  0.00     0.042 A 
HETATM    6  C   UNL     1       5.450  26.920  54.192  1.00  0.00     0.030 A 
HETATM    7  C   UNL     1       4.408  26.580  53.314  1.00  0.00     0.190 A 
HETATM    8  N   UNL     1       3.900  27.617  52.659  1.00  0.00    -0.149 NA
HETATM    9  N   UNL     1       4.601  28.661  53.134  1.00  0.00    -0.279 N 
HETATM   10  H   UNL     1       4.378  29.589  52.788  1.00  0.00     0.189 HD
HETATM   11  C   UNL     1       6.283  26.146  55.157  1.00  0.00     0.074 C 
ENDROOT
BRANCH  11  12
HETATM   12  C   UNL     1       6.871  24.933  54.446  1.00  0.00    -0.048 A 
HETATM   13  C   UNL     1       7.439  24.970  53.163  1.00  0.00     0.009 A 
HETATM   14  C   UNL     1       7.970  23.815  52.578  1.00  0.00     0.024 A 
HETATM   15  C   UNL     1       7.946  22.610  53.273  1.00  0.00     0.034 A 
HETATM   16 CL   UNL     1       8.595  21.190  52.552  1.00  0.00    -0.084 Cl
HETATM   17  C   UNL     1       7.399  22.548  54.550  1.00  0.00     0.024 A 
HETATM   18  C   UNL     1       6.870  23.703  55.133  1.00  0.00     0.009 A 
ENDBRANCH  11  12
BRANCH   1  19
HETATM   19  C   UNL     1       6.965  27.180  57.335  1.00  0.00     0.267 C 
HETATM   20  O   UNL     1       6.086  27.954  57.696  1.00  0.00    -0.265 OA
BRANCH  19  21
HETATM   21  O   UNL     1       7.688  26.381  58.162  1.00  0.00    -0.321 OA
BRANCH  21  22
HETATM   22  C   UNL     1       8.807  25.705  57.567  1.00  0.00     0.174 C 
HETATM   23  C   UNL     1       8.783  24.240  57.953  1.00  0.00     0.034 C 
ENDBRANCH  21  22
ENDBRANCH  19  21
ENDBRANCH   1  19
BRANCH   2  24
HETATM   24  O   UNL     1       8.382  29.237  56.219  1.00  0.00    -0.389 OA
HETATM   25  H   UNL     1       9.257  29.483  55.865  1.00  0.00     0.210 HD
ENDBRANCH   2  24
BRANCH   7  26
HETATM   26  O   UNL     1       3.875  25.387  53.039  1.00  0.00    -0.343 OA
HETATM   27  H   UNL     1       4.574  24.772  52.770  1.00  0.00     0.219 HD
ENDBRANCH   7  26
TORSDOF 6
ENDMDL
MODEL 5
REMARK VINA RESULT:      -7.2      2.743      4.568
REMARK  6 active torsions:
REMARK  status: ('A' for Active; 'I' for Inactive)
REMARK    1  A    between atoms: C_2  and  O_3 
REMARK    2  A    between atoms: O_3  and  C_4 
REMARK    3  A    between atoms: C_4  and  C_5 
REMARK    4  A    between atoms: C_6  and  O_7 
REMARK    5  A    between atoms: C_12  and  O_13 
REMARK    6  A    between atoms: C_17  and  C_18 
ROOT
HETATM    1  C   UNL     1       7.915  27.076  56.419  1.00  0.00     0.133 C 
HETATM    2  C   UNL     1       8.633  28.405  56.826  1.00  0.00     0.073 C 
HETATM    3  C   UNL     1       8.934  29.272  55.590  1.00  0.00     0.047 C 
HETATM    4  C   UNL     1       7.840  29.239  57.868  1.00  0.00     0.097 C 
HETATM    5  C   UNL     1       6.409  29.280  57.491  1.00  0.00     0.042 A 
HETATM    6  C   UNL     1       5.732  28.359  56.719  1.00  0.00     0.030 A 
HETATM    7  C   UNL     1       4.418  28.855  56.716  1.00  0.00     0.190 A 
HETATM    8  N   UNL     1       4.273  29.990  57.389  1.00  0.00    -0.149 NA
HETATM    9  N   UNL     1       5.507  30.231  57.865  1.00  0.00    -0.279 N 
HETATM   10  H   UNL     1       5.649  31.055  58.441  1.00  0.00     0.189 HD
HETATM   11  C   UNL     1       6.375  27.133  56.165  1.00  0.00     0.074 C 
ENDROOT
BRANCH  11  12
HETATM   12  C   UNL     1       6.005  26.997  54.692  1.00  0.00    -0.048 A 
HETATM   13  C   UNL     1       6.253  27.983  53.724  1.00  0.00     0.009 A 
HETATM   14  C   UNL     1       5.894  27.783  52.386  1.00  0.00     0.024 A 
HETATM   15  C   UNL     1       5.289  26.591  52.000  1.00  0.00     0.034 A 
HETATM   16 CL   UNL     1       4.843  26.348  50.356  1.00  0.00    -0.084 Cl
HETATM   17  C   UNL     1       5.041  25.595  52.937  1.00  0.00     0.024 A 
HETATM   18  C   UNL     1       5.402  25.796  54.272  1.00  0.00     0.009 A 
ENDBRANCH  11  12
BRANCH   1  19
HETATM   19  C   UNL     1       8.205  25.991  57.440  1.00  0.00     0.267 C 
HETATM   20  O   UNL     1       7.760  26.026  58.581  1.00  0.00    -0.265 OA
BRANCH  19  21
HETATM   21  O   UNL     1       8.996  25.007  56.942  1.00  0.00    -0.321 OA
BRANCH  21  22
HETATM   22  C   UNL     1       8.483  23.669  57.050  1.00  0.00     0.174 C 
HETATM   23  C   UNL     1       7.609  23.358  55.852  1.00  0.00     0.034 C 
ENDBRANCH  21  22
ENDBRANCH  19  21
ENDBRANCH   1  19
BRANCH   2  24
HETATM   24  O   UNL     1       9.921  28.122  57.403  1.00  0.00    -0.389 OA
HETATM   25  H   UNL     1       9.967  28.529  58.288  1.00  0.00     0.210 HD
ENDBRANCH   2  24
BRANCH   7  26
HETATM   26  O   UNL     1       3.320  28.368  56.133  1.00  0.00    -0.343 OA
HETATM   27  H   UNL     1       2.545  28.566  56.679  1.00  0.00     0.219 HD
ENDBRANCH   7  26
TORSDOF 6
ENDMDL
MODEL 6
REMARK VINA RESULT:      -7.1     10.025     11.976
REMARK  6 active torsions:
REMARK  status: ('A' for Active; 'I' for Inactive)
REMARK    1  A    between atoms: C_2  and  O_3 
REMARK    2  A    between atoms: O_3  and  C_4 
REMARK    3  A    between atoms: C_4  and  C_5 
REMARK    4  A    between atoms: C_6  and  O_7 
REMARK    5  A    between atoms: C_12  and  O_13 
REMARK    6  A    between atoms: C_17  and  C_18 
ROOT
HETATM    1  C   UNL     1       5.665  36.354  61.813  1.00  0.00     0.133 C 
HETATM    2  C   UNL     1       4.397  36.524  60.913  1.00  0.00     0.073 C 
HETATM    3  C   UNL     1       4.343  35.442  59.820  1.00  0.00     0.047 C 
HETATM    4  C   UNL     1       3.068  36.521  61.716  1.00  0.00     0.097 C 
HETATM    5  C   UNL     1       3.095  35.437  62.723  1.00  0.00     0.042 A 
HETATM    6  C   UNL     1       4.215  34.860  63.285  1.00  0.00     0.030 A 
HETATM    7  C   UNL     1       3.672  33.935  64.192  1.00  0.00     0.190 A 
HETATM    8  N   UNL     1       2.345  33.900  64.191  1.00  0.00    -0.149 NA
HETATM    9  N   UNL     1       2.008  34.837  63.288  1.00  0.00    -0.279 N 
HETATM   10  H   UNL     1       1.022  35.013  63.119  1.00  0.00     0.189 HD
HETATM   11  C   UNL     1       5.604  35.293  62.957  1.00  0.00     0.074 C 
ENDROOT
BRANCH  11  12
HETATM   12  C   UNL     1       6.458  34.062  62.680  1.00  0.00    -0.048 A 
HETATM   13  C   UNL     1       6.474  33.373  61.457  1.00  0.00     0.009 A 
HETATM   14  C   UNL     1       7.294  32.254  61.273  1.00  0.00     0.024 A 
HETATM   15  C   UNL     1       8.113  31.814  62.308  1.00  0.00     0.034 A 
HETATM   16 CL   UNL     1       9.117  30.436  62.082  1.00  0.00    -0.084 Cl
HETATM   17  C   UNL     1       8.124  32.484  63.526  1.00  0.00     0.024 A 
HETATM   18  C   UNL     1       7.305  33.602  63.708  1.00  0.00     0.009 A 
ENDBRANCH  11  12
BRANCH   1  19
HETATM   19  C   UNL     1       6.071  37.692  62.403  1.00  0.00     0.267 C 
HETATM   20  O   UNL     1       5.669  38.079  63.494  1.00  0.00    -0.265 OA
BRANCH  19  21
HETATM   21  O   UNL     1       6.913  38.382  61.592  1.00  0.00    -0.321 OA
BRANCH  21  22
HETATM   22  C   UNL     1       7.205  39.732  61.988  1.00  0.00     0.174 C 
HETATM   23  C   UNL     1       6.480  40.701  61.075  1.00  0.00     0.034 C 
ENDBRANCH  21  22
ENDBRANCH  19  21
ENDBRANCH   1  19
BRANCH   2  24
HETATM   24  O   UNL     1       4.455  37.772  60.197  1.00  0.00    -0.389 OA
HETATM   25  H   UNL     1       5.354  37.889  59.838  1.00  0.00     0.210 HD
ENDBRANCH   2  24
BRANCH   7  26
HETATM   26  O   UNL     1       4.285  33.093  65.026  1.00  0.00    -0.343 OA
HETATM   27  H   UNL     1       3.968  33.238  65.930  1.00  0.00     0.219 HD
ENDBRANCH   7  26
TORSDOF 6
ENDMDL
MODEL 7
REMARK VINA RESULT:      -7.1      8.857     11.128
REMARK  6 active torsions:
REMARK  status: ('A' for Active; 'I' for Inactive)
REMARK    1  A    between atoms: C_2  and  O_3 
REMARK    2  A    between atoms: O_3  and  C_4 
REMARK    3  A    between atoms: C_4  and  C_5 
REMARK    4  A    between atoms: C_6  and  O_7 
REMARK    5  A    between atoms: C_12  and  O_13 
REMARK    6  A    between atoms: C_17  and  C_18 
ROOT
HETATM    1  C   UNL     1       4.622  34.310  63.426  1.00  0.00     0.133 C 
HETATM    2  C   UNL     1       4.214  35.715  62.869  1.00  0.00     0.073 C 
HETATM    3  C   UNL     1       5.387  36.378  62.126  1.00  0.00     0.047 C 
HETATM    4  C   UNL     1       2.968  35.670  61.944  1.00  0.00     0.097 C 
HETATM    5  C   UNL     1       3.080  34.529  61.008  1.00  0.00     0.042 A 
HETATM    6  C   UNL     1       3.812  33.375  61.197  1.00  0.00     0.030 A 
HETATM    7  C   UNL     1       3.532  32.631  60.039  1.00  0.00     0.190 A 
HETATM    8  N   UNL     1       2.731  33.253  59.183  1.00  0.00    -0.149 NA
HETATM    9  N   UNL     1       2.457  34.415  59.801  1.00  0.00    -0.279 N 
HETATM   10  H   UNL     1       1.833  35.071  59.339  1.00  0.00     0.189 HD
HETATM   11  C   UNL     1       4.594  33.102  62.437  1.00  0.00     0.074 C 
ENDROOT
BRANCH  11  12
HETATM   12  C   UNL     1       5.984  32.610  62.052  1.00  0.00    -0.048 A 
HETATM   13  C   UNL     1       6.745  33.143  60.999  1.00  0.00     0.009 A 
HETATM   14  C   UNL     1       8.021  32.646  60.711  1.00  0.00     0.024 A 
HETATM   15  C   UNL     1       8.554  31.614  61.477  1.00  0.00     0.034 A 
HETATM   16 CL   UNL     1      10.121  31.000  61.119  1.00  0.00    -0.084 Cl
HETATM   17  C   UNL     1       7.826  31.075  62.531  1.00  0.00     0.024 A 
HETATM   18  C   UNL     1       6.552  31.574  62.818  1.00  0.00     0.009 A 
ENDBRANCH  11  12
BRANCH   1  19
HETATM   19  C   UNL     1       3.785  33.969  64.645  1.00  0.00     0.267 C 
HETATM   20  O   UNL     1       2.580  34.183  64.696  1.00  0.00    -0.265 OA
BRANCH  19  21
HETATM   21  O   UNL     1       4.521  33.410  65.640  1.00  0.00    -0.321 OA
BRANCH  21  22
HETATM   22  C   UNL     1       5.518  34.253  66.238  1.00  0.00     0.174 C 
HETATM   23  C   UNL     1       6.900  33.757  65.864  1.00  0.00     0.034 C 
ENDBRANCH  21  22
ENDBRANCH  19  21
ENDBRANCH   1  19
BRANCH   2  24
HETATM   24  O   UNL     1       3.904  36.612  63.951  1.00  0.00    -0.389 OA
HETATM   25  H   UNL     1       3.834  37.519  63.600  1.00  0.00     0.210 HD
ENDBRANCH   2  24
BRANCH   7  26
HETATM   26  O   UNL     1       3.960  31.419  59.676  1.00  0.00    -0.343 OA
HETATM   27  H   UNL     1       3.200  30.843  59.501  1.00  0.00     0.219 HD
ENDBRANCH   7  26
TORSDOF 6
ENDMDL
MODEL 8
REMARK VINA RESULT:      -6.7      9.865     11.644
REMARK  6 active torsions:
REMARK  status: ('A' for Active; 'I' for Inactive)
REMARK    1  A    between atoms: C_2  and  O_3 
REMARK    2  A    between atoms: O_3  and  C_4 
REMARK    3  A    between atoms: C_4  and  C_5 
REMARK    4  A    between atoms: C_6  and  O_7 
REMARK    5  A    between atoms: C_12  and  O_13 
REMARK    6  A    between atoms: C_17  and  C_18 
ROOT
HETATM    1  C   UNL     1       4.546  35.909  60.736  1.00  0.00     0.133 C 
HETATM    2  C   UNL     1       3.284  35.560  59.879  1.00  0.00     0.073 C 
HETATM    3  C   UNL     1       3.439  34.188  59.199  1.00  0.00     0.047 C 
HETATM    4  C   UNL     1       1.961  35.595  60.691  1.00  0.00     0.097 C 
HETATM    5  C   UNL     1       2.156  34.920  61.993  1.00  0.00     0.042 A 
HETATM    6  C   UNL     1       3.348  34.755  62.668  1.00  0.00     0.030 A 
HETATM    7  C   UNL     1       2.955  34.099  63.846  1.00  0.00     0.190 A 
HETATM    8  N   UNL     1       1.655  33.842  63.908  1.00  0.00    -0.149 NA
HETATM    9  N   UNL     1       1.179  34.362  62.764  1.00  0.00    -0.279 N 
HETATM   10  H   UNL     1       0.181  34.304  62.586  1.00  0.00     0.189 HD
HETATM   11  C   UNL     1       4.647  35.286  62.164  1.00  0.00     0.074 C 
ENDROOT
BRANCH  11  12
HETATM   12  C   UNL     1       5.706  34.194  62.268  1.00  0.00    -0.048 A 
HETATM   13  C   UNL     1       6.602  34.064  63.341  1.00  0.00     0.009 A 
HETATM   14  C   UNL     1       7.541  33.028  63.372  1.00  0.00     0.024 A 
HETATM   15  C   UNL     1       7.591  32.104  62.334  1.00  0.00     0.034 A 
HETATM   16 CL   UNL     1       8.750  30.832  62.370  1.00  0.00    -0.084 Cl
HETATM   17  C   UNL     1       6.709  32.204  61.264  1.00  0.00     0.024 A 
HETATM   18  C   UNL     1       5.771  33.239  61.235  1.00  0.00     0.009 A 
ENDBRANCH  11  12
BRANCH   1  19
HETATM   19  C   UNL     1       4.704  37.415  60.844  1.00  0.00     0.267 C 
HETATM   20  O   UNL     1       5.070  38.106  59.900  1.00  0.00    -0.265 OA
BRANCH  19  21
HETATM   21  O   UNL     1       4.395  37.883  62.080  1.00  0.00    -0.321 OA
BRANCH  21  22
HETATM   22  C   UNL     1       5.215  38.954  62.573  1.00  0.00     0.174 C 
HETATM   23  C   UNL     1       6.278  38.400  63.501  1.00  0.00     0.034 C 
ENDBRANCH  21  22
ENDBRANCH  19  21
ENDBRANCH   1  19
BRANCH   2  24
HETATM   24  O   UNL     1       3.140  36.497  58.796  1.00  0.00    -0.389 OA
HETATM   25  H   UNL     1       2.383  36.227  58.243  1.00  0.00     0.210 HD
ENDBRANCH   2  24
BRANCH   7  26
HETATM   26  O   UNL     1       3.689  33.691  64.884  1.00  0.00    -0.343 OA
HETATM   27  H   UNL     1       4.105  34.456  65.311  1.00  0.00     0.219 HD
ENDBRANCH   7  26
TORSDOF 6
ENDMDL
MODEL 9
REMARK VINA RESULT:      -6.6     10.886     14.129
REMARK  6 active torsions:
REMARK  status: ('A' for Active; 'I' for Inactive)
REMARK    1  A    between atoms: C_2  and  O_3 
REMARK    2  A    between atoms: O_3  and  C_4 
REMARK    3  A    between atoms: C_4  and  C_5 
REMARK    4  A    between atoms: C_6  and  O_7 
REMARK    5  A    between atoms: C_12  and  O_13 
REMARK    6  A    between atoms: C_17  and  C_18 
ROOT
HETATM    1  C   UNL     1       5.957  35.136  64.344  1.00  0.00     0.133 C 
HETATM    2  C   UNL     1       4.800  34.711  65.308  1.00  0.00     0.073 C 
HETATM    3  C   UNL     1       4.342  35.895  66.179  1.00  0.00     0.047 C 
HETATM    4  C   UNL     1       3.577  34.104  64.568  1.00  0.00     0.097 C 
HETATM    5  C   UNL     1       3.258  34.920  63.375  1.00  0.00     0.042 A 
HETATM    6  C   UNL     1       4.126  35.731  62.674  1.00  0.00     0.030 A 
HETATM    7  C   UNL     1       3.324  36.223  61.631  1.00  0.00     0.190 A 
HETATM    8  N   UNL     1       2.068  35.797  61.674  1.00  0.00    -0.149 NA
HETATM    9  N   UNL     1       2.049  34.990  62.749  1.00  0.00    -0.279 N 
HETATM   10  H   UNL     1       1.180  34.520  62.985  1.00  0.00     0.189 HD
HETATM   11  C   UNL     1       5.568  35.874  63.024  1.00  0.00     0.074 C 
ENDROOT
BRANCH  11  12
HETATM   12  C   UNL     1       5.935  37.353  63.034  1.00  0.00    -0.048 A 
HETATM   13  C   UNL     1       5.711  38.214  64.120  1.00  0.00     0.009 A 
HETATM   14  C   UNL     1       6.085  39.561  64.059  1.00  0.00     0.024 A 
HETATM   15  C   UNL     1       6.694  40.062  62.913  1.00  0.00     0.034 A 
HETATM   16 CL   UNL     1       7.150  41.719  62.837  1.00  0.00    -0.084 Cl
HETATM   17  C   UNL     1       6.937  39.229  61.827  1.00  0.00     0.024 A 
HETATM   18  C   UNL     1       6.564  37.884  61.890  1.00  0.00     0.009 A 
ENDBRANCH  11  12
BRANCH   1  19
HETATM   19  C   UNL     1       6.819  33.935  64.001  1.00  0.00     0.267 C 
HETATM   20  O   UNL     1       7.540  33.386  64.826  1.00  0.00    -0.265 OA
BRANCH  19  21
HETATM   21  O   UNL     1       6.688  33.555  62.704  1.00  0.00    -0.321 OA
BRANCH  21  22
HETATM   22  C   UNL     1       6.105  32.262  62.480  1.00  0.00     0.174 C 
HETATM   23  C   UNL     1       5.044  32.359  61.403  1.00  0.00     0.034 C 
ENDBRANCH  21  22
ENDBRANCH  19  21
ENDBRANCH   1  19
BRANCH   2  24
HETATM   24  O   UNL     1       5.264  33.719  66.241  1.00  0.00    -0.389 OA
HETATM   25  H   UNL     1       5.458  32.895  65.757  1.00  0.00     0.210 HD
ENDBRANCH   2  24
BRANCH   7  26
HETATM   26  O   UNL     1       3.634  37.052  60.631  1.00  0.00    -0.343 OA
HETATM   27  H   UNL     1       4.208  36.598  59.996  1.00  0.00     0.219 HD
ENDBRANCH   7  26
TORSDOF 6
ENDMDL
MODEL 10
REMARK VINA RESULT:      -6.6      9.762     12.304
REMARK  6 active torsions:
REMARK  status: ('A' for Active; 'I' for Inactive)
REMARK    1  A    between atoms: C_2  and  O_3 
REMARK    2  A    between atoms: O_3  and  C_4 
REMARK    3  A    between atoms: C_4  and  C_5 
REMARK    4  A    between atoms: C_6  and  O_7 
REMARK    5  A    between atoms: C_12  and  O_13 
REMARK    6  A    between atoms: C_17  and  C_18 
ROOT
HETATM    1  C   UNL     1       4.910  33.700  60.574  1.00  0.00     0.133 C 
HETATM    2  C   UNL     1       5.870  32.639  61.208  1.00  0.00     0.073 C 
HETATM    3  C   UNL     1       7.256  33.247  61.492  1.00  0.00     0.047 C 
HETATM    4  C   UNL     1       5.306  31.997  62.504  1.00  0.00     0.097 C 
HETATM    5  C   UNL     1       4.720  33.046  63.368  1.00  0.00     0.042 A 
HETATM    6  C   UNL     1       4.231  34.271  62.964  1.00  0.00     0.030 A 
HETATM    7  C   UNL     1       3.765  34.836  64.162  1.00  0.00     0.190 A 
HETATM    8  N   UNL     1       3.962  34.069  65.227  1.00  0.00    -0.149 NA
HETATM    9  N   UNL     1       4.542  32.969  64.718  1.00  0.00    -0.279 N 
HETATM   10  H   UNL     1       4.779  32.211  65.351  1.00  0.00     0.189 HD
HETATM   11  C   UNL     1       4.200  34.703  61.536  1.00  0.00     0.074 C 
ENDROOT
BRANCH  11  12
HETATM   12  C   UNL     1       4.747  36.122  61.433  1.00  0.00    -0.048 A 
HETATM   13  C   UNL     1       5.817  36.612  62.200  1.00  0.00     0.009 A 
HETATM   14  C   UNL     1       6.272  37.926  62.041  1.00  0.00     0.024 A 
HETATM   15  C   UNL     1       5.667  38.764  61.110  1.00  0.00     0.034 A 
HETATM   16 CL   UNL     1       6.224  40.380  60.920  1.00  0.00    -0.084 Cl
HETATM   17  C   UNL     1       4.612  38.301  60.332  1.00  0.00     0.024 A 
HETATM   18  C   UNL     1       4.160  36.988  60.490  1.00  0.00     0.009 A 
ENDBRANCH  11  12
BRANCH   1  19
HETATM   19  C   UNL     1       3.861  33.010  59.721  1.00  0.00     0.267 C 
HETATM   20  O   UNL     1       2.775  32.661  60.169  1.00  0.00    -0.265 OA
BRANCH  19  21
HETATM   21  O   UNL     1       4.266  32.837  58.437  1.00  0.00    -0.321 OA
BRANCH  21  22
HETATM   22  C   UNL     1       4.731  34.014  57.758  1.00  0.00     0.174 C 
HETATM   23  C   UNL     1       3.552  34.891  57.387  1.00  0.00     0.034 C 
ENDBRANCH  21  22
ENDBRANCH  19  21
ENDBRANCH   1  19
BRANCH   2  24
HETATM   24  O   UNL     1       6.118  31.569  60.279  1.00  0.00    -0.389 OA
HETATM   25  H   UNL     1       6.628  30.870  60.730  1.00  0.00     0.210 HD
ENDBRANCH   2  24
BRANCH   7  26
HETATM   26  O   UNL     1       3.179  36.015  64.382  1.00  0.00    -0.343 OA
HETATM   27  H   UNL     1       3.841  36.722  64.341  1.00  0.00     0.219 HD
ENDBRANCH   7  26
TORSDOF 6
ENDMDL
