MODEL 1
REMARK VINA RESULT:      -8.7      0.000      0.000
REMARK  6 active torsions:
REMARK  status: ('A' for Active; 'I' for Inactive)
REMARK    1  A    between atoms: C_2  and  N_3 
REMARK    2  A    between atoms: N_3  and  C_5 
REMARK    3  A    between atoms: N_3  and  C_28 
REMARK    4  A    between atoms: C_8  and  C_9 
REMARK    5  A    between atoms: N_10  and  C_11 
REMARK    6  A    between atoms: C_11  and  C_12 
ROOT
HETATM    1  C   UNL     1       5.740  26.357  50.786  1.00  0.00     0.199 C 
HETATM    2  N   UNL     1       5.416  27.748  51.047  1.00  0.00    -0.321 N 
HETATM    3  C   UNL     1       4.814  28.480  50.024  1.00  0.00     0.257 C 
HETATM    4  O   UNL     1       4.849  29.704  49.952  1.00  0.00    -0.267 OA
HETATM    5  C   UNL     1       4.068  27.705  49.009  1.00  0.00     0.053 A 
HETATM    6  C   UNL     1       3.953  26.322  49.189  1.00  0.00     0.026 A 
HETATM    7  N   UNL     1       4.542  25.682  50.296  1.00  0.00    -0.266 NA
HETATM    8  C   UNL     1       3.444  28.351  47.937  1.00  0.00     0.019 A 
HETATM    9  C   UNL     1       2.654  27.616  47.053  1.00  0.00     0.001 A 
HETATM   10  C   UNL     1       2.477  26.249  47.258  1.00  0.00     0.002 A 
HETATM   11  C   UNL     1       3.111  25.609  48.328  1.00  0.00     0.024 A 
HETATM   12  H   UNL     1       4.705  24.699  50.102  1.00  0.00     0.130 HD
ENDROOT
BRANCH   1  13
HETATM   13  C   UNL     1       6.252  25.566  51.987  1.00  0.00    -0.021 A 
HETATM   14  C   UNL     1       7.590  25.157  52.080  1.00  0.00     0.013 A 
HETATM   15  C   UNL     1       8.020  24.351  53.140  1.00  0.00     0.038 A 
HETATM   16  C   UNL     1       7.140  23.983  54.168  1.00  0.00     0.134 A 
HETATM   17  C   UNL     1       5.816  24.427  54.102  1.00  0.00     0.038 A 
HETATM   18  C   UNL     1       5.375  25.201  53.019  1.00  0.00     0.013 A 
BRANCH  16  19
HETATM   19  N   UNL     1       7.649  23.080  55.249  1.00  0.00    -0.042 N 
HETATM   20  H   UNL     1       6.851  23.006  55.896  1.00  0.00     0.286 HD
BRANCH  19  21
HETATM   21  C   UNL     1       8.800  23.607  56.078  1.00  0.00     0.237 C 
HETATM   22  C   UNL     1       8.372  24.788  56.933  1.00  0.00     0.035 C 
ENDBRANCH  19  21
BRANCH  19  23
HETATM   23  C   UNL     1       7.902  21.666  54.754  1.00  0.00     0.237 C 
HETATM   24  C   UNL     1       7.673  20.613  55.822  1.00  0.00     0.035 C 
ENDBRANCH  19  23
ENDBRANCH  16  19
ENDBRANCH   1  13
BRANCH   2  25
HETATM   25  C   UNL     1       6.108  28.505  52.084  1.00  0.00     0.193 C 
BRANCH  25  26
HETATM   26  C   UNL     1       5.344  28.549  53.359  1.00  0.00     0.070 A 
HETATM   27  O   UNL     1       6.054  28.333  54.507  1.00  0.00    -0.325 OA
HETATM   28  C   UNL     1       5.162  28.327  55.529  1.00  0.00     0.142 A 
HETATM   29  C   UNL     1       3.889  28.563  55.060  1.00  0.00     0.027 A 
HETATM   30  C   UNL     1       4.007  28.709  53.656  1.00  0.00     0.036 A 
ENDBRANCH  25  26
ENDBRANCH   2  25
TORSDOF 6
ENDMDL
MODEL 2
REMARK VINA RESULT:      -8.6      3.118      6.903
REMARK  6 active torsions:
REMARK  status: ('A' for Active; 'I' for Inactive)
REMARK    1  A    between atoms: C_2  and  N_3 
REMARK    2  A    between atoms: N_3  and  C_5 
REMARK    3  A    between atoms: N_3  and  C_28 
REMARK    4  A    between atoms: C_8  and  C_9 
REMARK    5  A    between atoms: N_10  and  C_11 
REMARK    6  A    between atoms: C_11  and  C_12 
ROOT
HETATM    1  C   UNL     1       7.952  25.495  55.347  1.00  0.00     0.199 C 
HETATM    2  N   UNL     1       7.544  25.588  53.957  1.00  0.00    -0.321 N 
HETATM    3  C   UNL     1       7.733  24.471  53.146  1.00  0.00     0.257 C 
HETATM    4  O   UNL     1       7.812  24.524  51.922  1.00  0.00    -0.267 OA
HETATM    5  C   UNL     1       7.799  23.162  53.830  1.00  0.00     0.053 A 
HETATM    6  C   UNL     1       7.589  23.130  55.213  1.00  0.00     0.026 A 
HETATM    7  N   UNL     1       7.337  24.311  55.937  1.00  0.00    -0.266 NA
HETATM    8  C   UNL     1       8.002  21.986  53.100  1.00  0.00     0.019 A 
HETATM    9  C   UNL     1       7.952  20.753  53.750  1.00  0.00     0.001 A 
HETATM   10  C   UNL     1       7.678  20.702  55.115  1.00  0.00     0.002 A 
HETATM   11  C   UNL     1       7.484  21.883  55.840  1.00  0.00     0.024 A 
HETATM   12  H   UNL     1       7.581  24.195  56.915  1.00  0.00     0.130 HD
ENDROOT
BRANCH   1  13
HETATM   13  C   UNL     1       7.580  26.689  56.222  1.00  0.00    -0.021 A 
HETATM   14  C   UNL     1       6.254  26.930  56.608  1.00  0.00     0.013 A 
HETATM   15  C   UNL     1       5.916  28.081  57.330  1.00  0.00     0.038 A 
HETATM   16  C   UNL     1       6.903  28.990  57.738  1.00  0.00     0.134 A 
HETATM   17  C   UNL     1       8.232  28.729  57.394  1.00  0.00     0.038 A 
HETATM   18  C   UNL     1       8.565  27.597  56.637  1.00  0.00     0.013 A 
BRANCH  16  19
HETATM   19  N   UNL     1       6.472  30.226  58.465  1.00  0.00    -0.042 N 
HETATM   20  H   UNL     1       6.094  29.864  59.352  1.00  0.00     0.286 HD
BRANCH  19  21
HETATM   21  C   UNL     1       5.346  31.018  57.834  1.00  0.00     0.237 C 
HETATM   22  C   UNL     1       4.669  31.924  58.849  1.00  0.00     0.035 C 
ENDBRANCH  19  21
BRANCH  19  23
HETATM   23  C   UNL     1       7.644  31.111  58.854  1.00  0.00     0.237 C 
HETATM   24  C   UNL     1       8.069  30.932  60.300  1.00  0.00     0.035 C 
ENDBRANCH  19  23
ENDBRANCH  16  19
ENDBRANCH   1  13
BRANCH   2  25
HETATM   25  C   UNL     1       7.421  26.879  53.288  1.00  0.00     0.193 C 
BRANCH  25  26
HETATM   26  C   UNL     1       6.018  27.369  53.253  1.00  0.00     0.070 A 
HETATM   27  O   UNL     1       5.813  28.668  53.624  1.00  0.00    -0.325 OA
HETATM   28  C   UNL     1       4.472  28.877  53.606  1.00  0.00     0.142 A 
HETATM   29  C   UNL     1       3.811  27.739  53.203  1.00  0.00     0.027 A 
HETATM   30  C   UNL     1       4.811  26.763  52.972  1.00  0.00     0.036 A 
ENDBRANCH  25  26
ENDBRANCH   2  25
TORSDOF 6
ENDMDL
MODEL 3
REMARK VINA RESULT:      -8.4      2.393      7.254
REMARK  6 active torsions:
REMARK  status: ('A' for Active; 'I' for Inactive)
REMARK    1  A    between atoms: C_2  and  N_3 
REMARK    2  A    between atoms: N_3  and  C_5 
REMARK    3  A    between atoms: N_3  and  C_28 
REMARK    4  A    between atoms: C_8  and  C_9 
REMARK    5  A    between atoms: N_10  and  C_11 
REMARK    6  A    between atoms: C_11  and  C_12 
ROOT
HETATM    1  C   UNL     1       5.850  24.805  53.780  1.00  0.00     0.199 C 
HETATM    2  N   UNL     1       6.462  25.157  55.048  1.00  0.00    -0.321 N 
HETATM    3  C   UNL     1       7.012  24.130  55.814  1.00  0.00     0.257 C 
HETATM    4  O   UNL     1       7.192  24.206  57.026  1.00  0.00    -0.267 OA
HETATM    5  C   UNL     1       7.425  22.912  55.085  1.00  0.00     0.053 A 
HETATM    6  C   UNL     1       7.313  22.908  53.690  1.00  0.00     0.026 A 
HETATM    7  N   UNL     1       6.806  24.025  53.000  1.00  0.00    -0.266 NA
HETATM    8  C   UNL     1       7.973  21.822  55.771  1.00  0.00     0.019 A 
HETATM    9  C   UNL     1       8.457  20.728  55.055  1.00  0.00     0.001 A 
HETATM   10  C   UNL     1       8.411  20.739  53.662  1.00  0.00     0.002 A 
HETATM   11  C   UNL     1       7.855  21.829  52.983  1.00  0.00     0.024 A 
HETATM   12  H   UNL     1       6.435  23.754  52.094  1.00  0.00     0.130 HD
ENDROOT
BRANCH   1  13
HETATM   13  C   UNL     1       5.406  25.982  52.916  1.00  0.00    -0.021 A 
HETATM   14  C   UNL     1       4.448  26.902  53.366  1.00  0.00     0.013 A 
HETATM   15  C   UNL     1       3.983  27.919  52.524  1.00  0.00     0.038 A 
HETATM   16  C   UNL     1       4.505  28.082  51.234  1.00  0.00     0.134 A 
HETATM   17  C   UNL     1       5.493  27.194  50.798  1.00  0.00     0.038 A 
HETATM   18  C   UNL     1       5.931  26.151  51.626  1.00  0.00     0.013 A 
BRANCH  16  19
HETATM   19  N   UNL     1       3.931  29.159  50.365  1.00  0.00    -0.042 N 
HETATM   20  H   UNL     1       3.891  29.976  50.991  1.00  0.00     0.286 HD
BRANCH  19  21
HETATM   21  C   UNL     1       2.512  28.946  49.882  1.00  0.00     0.237 C 
HETATM   22  C   UNL     1       2.456  27.927  48.757  1.00  0.00     0.035 C 
ENDBRANCH  19  21
BRANCH  19  23
HETATM   23  C   UNL     1       4.866  29.556  49.236  1.00  0.00     0.237 C 
HETATM   24  C   UNL     1       5.830  30.662  49.624  1.00  0.00     0.035 C 
ENDBRANCH  19  23
ENDBRANCH  16  19
ENDBRANCH   1  13
BRANCH   2  25
HETATM   25  C   UNL     1       6.103  26.385  55.748  1.00  0.00     0.193 C 
BRANCH  25  26
HETATM   26  C   UNL     1       7.222  27.363  55.790  1.00  0.00     0.070 A 
HETATM   27  O   UNL     1       7.868  27.505  56.986  1.00  0.00    -0.325 OA
HETATM   28  C   UNL     1       8.780  28.497  56.827  1.00  0.00     0.142 A 
HETATM   29  C   UNL     1       8.750  28.979  55.539  1.00  0.00     0.027 A 
HETATM   30  C   UNL     1       7.743  28.244  54.866  1.00  0.00     0.036 A 
ENDBRANCH  25  26
ENDBRANCH   2  25
TORSDOF 6
ENDMDL
MODEL 4
REMARK VINA RESULT:      -8.0      3.763      7.187
REMARK  6 active torsions:
REMARK  status: ('A' for Active; 'I' for Inactive)
REMARK    1  A    between atoms: C_2  and  N_3 
REMARK    2  A    between atoms: N_3  and  C_5 
REMARK    3  A    between atoms: N_3  and  C_28 
REMARK    4  A    between atoms: C_8  and  C_9 
REMARK    5  A    between atoms: N_10  and  C_11 
REMARK    6  A    between atoms: C_11  and  C_12 
ROOT
HETATM    1  C   UNL     1       8.193  26.720  55.595  1.00  0.00     0.199 C 
HETATM    2  N   UNL     1       7.509  26.769  54.315  1.00  0.00    -0.321 N 
HETATM    3  C   UNL     1       7.507  25.616  53.533  1.00  0.00     0.257 C 
HETATM    4  O   UNL     1       7.333  25.617  52.318  1.00  0.00    -0.267 OA
HETATM    5  C   UNL     1       7.689  24.333  54.247  1.00  0.00     0.053 A 
HETATM    6  C   UNL     1       7.766  24.362  55.644  1.00  0.00     0.026 A 
HETATM    7  N   UNL     1       7.690  25.577  56.351  1.00  0.00    -0.266 NA
HETATM    8  C   UNL     1       7.716  23.124  53.544  1.00  0.00     0.019 A 
HETATM    9  C   UNL     1       7.777  21.920  54.245  1.00  0.00     0.001 A 
HETATM   10  C   UNL     1       7.789  21.931  55.638  1.00  0.00     0.002 A 
HETATM   11  C   UNL     1       7.770  23.144  56.334  1.00  0.00     0.024 A 
HETATM   12  H   UNL     1       8.128  25.494  57.263  1.00  0.00     0.130 HD
ENDROOT
BRANCH   1  13
HETATM   13  C   UNL     1       8.030  27.957  56.474  1.00  0.00    -0.021 A 
HETATM   14  C   UNL     1       9.127  28.753  56.831  1.00  0.00     0.013 A 
HETATM   15  C   UNL     1       8.975  29.828  57.715  1.00  0.00     0.038 A 
HETATM   16  C   UNL     1       7.712  30.173  58.218  1.00  0.00     0.134 A 
HETATM   17  C   UNL     1       6.609  29.409  57.828  1.00  0.00     0.038 A 
HETATM   18  C   UNL     1       6.767  28.308  56.974  1.00  0.00     0.013 A 
BRANCH  16  19
HETATM   19  N   UNL     1       7.622  31.302  59.198  1.00  0.00    -0.042 N 
HETATM   20  H   UNL     1       8.257  32.012  58.805  1.00  0.00     0.286 HD
BRANCH  19  21
HETATM   21  C   UNL     1       8.137  31.023  60.594  1.00  0.00     0.237 C 
HETATM   22  C   UNL     1       9.425  31.778  60.871  1.00  0.00     0.035 C 
ENDBRANCH  19  21
BRANCH  19  23
HETATM   23  C   UNL     1       6.248  31.949  59.215  1.00  0.00     0.237 C 
HETATM   24  C   UNL     1       5.868  32.501  60.577  1.00  0.00     0.035 C 
ENDBRANCH  19  23
ENDBRANCH  16  19
ENDBRANCH   1  13
BRANCH   2  25
HETATM   25  C   UNL     1       7.275  28.035  53.629  1.00  0.00     0.193 C 
BRANCH  25  26
HETATM   26  C   UNL     1       5.843  28.239  53.287  1.00  0.00     0.070 A 
HETATM   27  O   UNL     1       5.576  28.756  52.050  1.00  0.00    -0.325 OA
HETATM   28  C   UNL     1       4.233  28.941  51.981  1.00  0.00     0.142 A 
HETATM   29  C   UNL     1       3.628  28.527  53.145  1.00  0.00     0.027 A 
HETATM   30  C   UNL     1       4.668  28.070  53.990  1.00  0.00     0.036 A 
ENDBRANCH  25  26
ENDBRANCH   2  25
TORSDOF 6
ENDMDL
MODEL 5
REMARK VINA RESULT:      -8.0      3.097      5.268
REMARK  6 active torsions:
REMARK  status: ('A' for Active; 'I' for Inactive)
REMARK    1  A    between atoms: C_2  and  N_3 
REMARK    2  A    between atoms: N_3  and  C_5 
REMARK    3  A    between atoms: N_3  and  C_28 
REMARK    4  A    between atoms: C_8  and  C_9 
REMARK    5  A    between atoms: N_10  and  C_11 
REMARK    6  A    between atoms: C_11  and  C_12 
ROOT
HETATM    1  C   UNL     1       5.473  27.650  52.920  1.00  0.00     0.199 C 
HETATM    2  N   UNL     1       5.471  26.205  52.779  1.00  0.00    -0.321 N 
HETATM    3  C   UNL     1       4.898  25.663  51.629  1.00  0.00     0.257 C 
HETATM    4  O   UNL     1       4.478  24.512  51.555  1.00  0.00    -0.267 OA
HETATM    5  C   UNL     1       4.848  26.541  50.440  1.00  0.00     0.053 A 
HETATM    6  C   UNL     1       5.443  27.805  50.528  1.00  0.00     0.026 A 
HETATM    7  N   UNL     1       6.058  28.236  51.718  1.00  0.00    -0.266 NA
HETATM    8  C   UNL     1       4.277  26.090  49.245  1.00  0.00     0.019 A 
HETATM    9  C   UNL     1       4.338  26.891  48.105  1.00  0.00     0.001 A 
HETATM   10  C   UNL     1       4.985  28.124  48.162  1.00  0.00     0.002 A 
HETATM   11  C   UNL     1       5.546  28.572  49.362  1.00  0.00     0.024 A 
HETATM   12  H   UNL     1       6.093  29.250  51.761  1.00  0.00     0.130 HD
ENDROOT
BRANCH   1  13
HETATM   13  C   UNL     1       6.248  28.191  54.118  1.00  0.00    -0.021 A 
HETATM   14  C   UNL     1       5.594  28.779  55.210  1.00  0.00     0.013 A 
HETATM   15  C   UNL     1       6.324  29.356  56.255  1.00  0.00     0.038 A 
HETATM   16  C   UNL     1       7.725  29.308  56.268  1.00  0.00     0.134 A 
HETATM   17  C   UNL     1       8.379  28.682  55.202  1.00  0.00     0.038 A 
HETATM   18  C   UNL     1       7.649  28.140  54.136  1.00  0.00     0.013 A 
BRANCH  16  19
HETATM   19  N   UNL     1       8.449  29.986  57.389  1.00  0.00    -0.042 N 
HETATM   20  H   UNL     1       8.606  30.940  57.033  1.00  0.00     0.286 HD
BRANCH  19  21
HETATM   21  C   UNL     1       9.823  29.446  57.725  1.00  0.00     0.237 C 
HETATM   22  C   UNL     1      10.920  30.376  57.234  1.00  0.00     0.035 C 
ENDBRANCH  19  21
BRANCH  19  23
HETATM   23  C   UNL     1       7.582  30.151  58.626  1.00  0.00     0.237 C 
HETATM   24  C   UNL     1       8.387  30.436  59.881  1.00  0.00     0.035 C 
ENDBRANCH  19  23
ENDBRANCH  16  19
ENDBRANCH   1  13
BRANCH   2  25
HETATM   25  C   UNL     1       5.576  25.330  53.941  1.00  0.00     0.193 C 
BRANCH  25  26
HETATM   26  C   UNL     1       6.705  24.368  53.827  1.00  0.00     0.070 A 
HETATM   27  O   UNL     1       6.761  23.376  54.765  1.00  0.00    -0.325 OA
HETATM   28  C   UNL     1       7.901  22.676  54.531  1.00  0.00     0.142 A 
HETATM   29  C   UNL     1       8.566  23.187  53.440  1.00  0.00     0.027 A 
HETATM   30  C   UNL     1       7.791  24.280  52.982  1.00  0.00     0.036 A 
ENDBRANCH  25  26
ENDBRANCH   2  25
TORSDOF 6
ENDMDL
MODEL 6
REMARK VINA RESULT:      -8.0      4.172      7.574
REMARK  6 active torsions:
REMARK  status: ('A' for Active; 'I' for Inactive)
REMARK    1  A    between atoms: C_2  and  N_3 
REMARK    2  A    between atoms: N_3  and  C_5 
REMARK    3  A    between atoms: N_3  and  C_28 
REMARK    4  A    between atoms: C_8  and  C_9 
REMARK    5  A    between atoms: N_10  and  C_11 
REMARK    6  A    between atoms: C_11  and  C_12 
ROOT
HETATM    1  C   UNL     1       6.108  26.036  55.476  1.00  0.00     0.199 C 
HETATM    2  N   UNL     1       7.196  26.013  56.437  1.00  0.00    -0.321 N 
HETATM    3  C   UNL     1       7.942  24.840  56.549  1.00  0.00     0.257 C 
HETATM    4  O   UNL     1       8.595  24.541  57.545  1.00  0.00    -0.267 OA
HETATM    5  C   UNL     1       7.955  23.951  55.368  1.00  0.00     0.053 A 
HETATM    6  C   UNL     1       7.295  24.382  54.211  1.00  0.00     0.026 A 
HETATM    7  N   UNL     1       6.624  25.619  54.177  1.00  0.00    -0.266 NA
HETATM    8  C   UNL     1       8.663  22.745  55.392  1.00  0.00     0.019 A 
HETATM    9  C   UNL     1       8.753  21.974  54.233  1.00  0.00     0.001 A 
HETATM   10  C   UNL     1       8.156  22.423  53.057  1.00  0.00     0.002 A 
HETATM   11  C   UNL     1       7.443  23.626  53.043  1.00  0.00     0.024 A 
HETATM   12  H   UNL     1       5.907  25.622  53.458  1.00  0.00     0.130 HD
ENDROOT
BRANCH   1  13
HETATM   13  C   UNL     1       5.430  27.390  55.286  1.00  0.00    -0.021 A 
HETATM   14  C   UNL     1       5.703  28.198  54.173  1.00  0.00     0.013 A 
HETATM   15  C   UNL     1       5.145  29.477  54.063  1.00  0.00     0.038 A 
HETATM   16  C   UNL     1       4.252  29.959  55.031  1.00  0.00     0.134 A 
HETATM   17  C   UNL     1       3.942  29.138  56.119  1.00  0.00     0.038 A 
HETATM   18  C   UNL     1       4.532  27.872  56.249  1.00  0.00     0.013 A 
BRANCH  16  19
HETATM   19  N   UNL     1       3.728  31.354  54.881  1.00  0.00    -0.042 N 
HETATM   20  H   UNL     1       3.504  31.420  53.878  1.00  0.00     0.286 HD
BRANCH  19  21
HETATM   21  C   UNL     1       4.710  32.473  55.155  1.00  0.00     0.237 C 
HETATM   22  C   UNL     1       4.965  32.635  56.644  1.00  0.00     0.035 C 
ENDBRANCH  19  21
BRANCH  19  23
HETATM   23  C   UNL     1       2.409  31.560  55.607  1.00  0.00     0.237 C 
HETATM   24  C   UNL     1       1.574  32.680  55.013  1.00  0.00     0.035 C 
ENDBRANCH  19  23
ENDBRANCH  16  19
ENDBRANCH   1  13
BRANCH   2  25
HETATM   25  C   UNL     1       7.222  26.924  57.576  1.00  0.00     0.193 C 
BRANCH  25  26
HETATM   26  C   UNL     1       8.151  28.066  57.368  1.00  0.00     0.070 A 
HETATM   27  O   UNL     1       8.352  28.895  58.436  1.00  0.00    -0.325 OA
HETATM   28  C   UNL     1       9.151  29.905  58.007  1.00  0.00     0.142 A 
HETATM   29  C   UNL     1       9.490  29.725  56.686  1.00  0.00     0.027 A 
HETATM   30  C   UNL     1       8.845  28.534  56.272  1.00  0.00     0.036 A 
ENDBRANCH  25  26
ENDBRANCH   2  25
TORSDOF 6
ENDMDL
MODEL 7
REMARK VINA RESULT:      -7.8      3.214      7.203
REMARK  6 active torsions:
REMARK  status: ('A' for Active; 'I' for Inactive)
REMARK    1  A    between atoms: C_2  and  N_3 
REMARK    2  A    between atoms: N_3  and  C_5 
REMARK    3  A    between atoms: N_3  and  C_28 
REMARK    4  A    between atoms: C_8  and  C_9 
REMARK    5  A    between atoms: N_10  and  C_11 
REMARK    6  A    between atoms: C_11  and  C_12 
ROOT
HETATM    1  C   UNL     1       5.512  25.750  53.954  1.00  0.00     0.199 C 
HETATM    2  N   UNL     1       6.099  25.939  55.269  1.00  0.00    -0.321 N 
HETATM    3  C   UNL     1       6.626  24.822  55.915  1.00  0.00     0.257 C 
HETATM    4  O   UNL     1       6.780  24.748  57.130  1.00  0.00    -0.267 OA
HETATM    5  C   UNL     1       7.047  23.698  55.051  1.00  0.00     0.053 A 
HETATM    6  C   UNL     1       6.965  23.865  53.664  1.00  0.00     0.026 A 
HETATM    7  N   UNL     1       6.480  25.063  53.105  1.00  0.00    -0.266 NA
HETATM    8  C   UNL     1       7.573  22.528  55.611  1.00  0.00     0.019 A 
HETATM    9  C   UNL     1       8.066  21.526  54.776  1.00  0.00     0.001 A 
HETATM   10  C   UNL     1       8.051  21.707  53.395  1.00  0.00     0.002 A 
HETATM   11  C   UNL     1       7.516  22.875  52.843  1.00  0.00     0.024 A 
HETATM   12  H   UNL     1       6.127  24.907  52.166  1.00  0.00     0.130 HD
ENDROOT
BRANCH   1  13
HETATM   13  C   UNL     1       5.094  27.027  53.231  1.00  0.00    -0.021 A 
HETATM   14  C   UNL     1       6.015  27.791  52.501  1.00  0.00     0.013 A 
HETATM   15  C   UNL     1       5.637  29.010  51.925  1.00  0.00     0.038 A 
HETATM   16  C   UNL     1       4.314  29.467  52.010  1.00  0.00     0.134 A 
HETATM   17  C   UNL     1       3.383  28.685  52.700  1.00  0.00     0.038 A 
HETATM   18  C   UNL     1       3.771  27.484  53.311  1.00  0.00     0.013 A 
BRANCH  16  19
HETATM   19  N   UNL     1       3.984  30.801  51.415  1.00  0.00    -0.042 N 
HETATM   20  H   UNL     1       3.320  30.571  50.662  1.00  0.00     0.286 HD
BRANCH  19  21
HETATM   21  C   UNL     1       5.124  31.537  50.743  1.00  0.00     0.237 C 
HETATM   22  C   UNL     1       5.010  31.471  49.230  1.00  0.00     0.035 C 
ENDBRANCH  19  21
BRANCH  19  23
HETATM   23  C   UNL     1       3.216  31.692  52.376  1.00  0.00     0.237 C 
HETATM   24  C   UNL     1       4.064  32.187  53.534  1.00  0.00     0.035 C 
ENDBRANCH  19  23
ENDBRANCH  16  19
ENDBRANCH   1  13
BRANCH   2  25
HETATM   25  C   UNL     1       5.732  27.076  56.106  1.00  0.00     0.193 C 
BRANCH  25  26
HETATM   26  C   UNL     1       6.893  27.951  56.416  1.00  0.00     0.070 A 
HETATM   27  O   UNL     1       7.118  28.227  57.736  1.00  0.00    -0.325 OA
HETATM   28  C   UNL     1       8.154  29.101  57.786  1.00  0.00     0.142 A 
HETATM   29  C   UNL     1       8.619  29.373  56.519  1.00  0.00     0.027 A 
HETATM   30  C   UNL     1       7.804  28.628  55.632  1.00  0.00     0.036 A 
ENDBRANCH  25  26
ENDBRANCH   2  25
TORSDOF 6
ENDMDL
MODEL 8
REMARK VINA RESULT:      -7.7      4.503      6.223
REMARK  6 active torsions:
REMARK  status: ('A' for Active; 'I' for Inactive)
REMARK    1  A    between atoms: C_2  and  N_3 
REMARK    2  A    between atoms: N_3  and  C_5 
REMARK    3  A    between atoms: N_3  and  C_28 
REMARK    4  A    between atoms: C_8  and  C_9 
REMARK    5  A    between atoms: N_10  and  C_11 
REMARK    6  A    between atoms: C_11  and  C_12 
ROOT
HETATM    1  C   UNL     1       5.900  29.049  55.647  1.00  0.00     0.199 C 
HETATM    2  N   UNL     1       6.260  29.440  56.998  1.00  0.00    -0.321 N 
HETATM    3  C   UNL     1       5.944  30.733  57.409  1.00  0.00     0.257 C 
HETATM    4  O   UNL     1       6.513  31.314  58.328  1.00  0.00    -0.267 OA
HETATM    5  C   UNL     1       4.827  31.396  56.701  1.00  0.00     0.053 A 
HETATM    6  C   UNL     1       4.127  30.660  55.739  1.00  0.00     0.026 A 
HETATM    7  N   UNL     1       4.483  29.330  55.442  1.00  0.00    -0.266 NA
HETATM    8  C   UNL     1       4.447  32.701  57.033  1.00  0.00     0.019 A 
HETATM    9  C   UNL     1       3.324  33.267  56.431  1.00  0.00     0.001 A 
HETATM   10  C   UNL     1       2.579  32.521  55.520  1.00  0.00     0.002 A 
HETATM   11  C   UNL     1       2.970  31.221  55.187  1.00  0.00     0.024 A 
HETATM   12  H   UNL     1       4.168  29.071  54.512  1.00  0.00     0.130 HD
ENDROOT
BRANCH   1  13
HETATM   13  C   UNL     1       6.129  27.580  55.305  1.00  0.00    -0.021 A 
HETATM   14  C   UNL     1       5.424  26.557  55.955  1.00  0.00     0.013 A 
HETATM   15  C   UNL     1       5.716  25.212  55.698  1.00  0.00     0.038 A 
HETATM   16  C   UNL     1       6.675  24.853  54.741  1.00  0.00     0.134 A 
HETATM   17  C   UNL     1       7.347  25.870  54.058  1.00  0.00     0.038 A 
HETATM   18  C   UNL     1       7.084  27.217  54.344  1.00  0.00     0.013 A 
BRANCH  16  19
HETATM   19  N   UNL     1       6.975  23.399  54.547  1.00  0.00    -0.042 N 
HETATM   20  H   UNL     1       6.042  22.965  54.494  1.00  0.00     0.286 HD
BRANCH  19  21
HETATM   21  C   UNL     1       7.684  22.701  55.689  1.00  0.00     0.237 C 
HETATM   22  C   UNL     1       8.836  23.536  56.219  1.00  0.00     0.035 C 
ENDBRANCH  19  21
BRANCH  19  23
HETATM   23  C   UNL     1       7.633  23.114  53.208  1.00  0.00     0.237 C 
HETATM   24  C   UNL     1       8.057  21.665  53.050  1.00  0.00     0.035 C 
ENDBRANCH  19  23
ENDBRANCH  16  19
ENDBRANCH   1  13
BRANCH   2  25
HETATM   25  C   UNL     1       7.323  28.755  57.727  1.00  0.00     0.193 C 
BRANCH  25  26
HETATM   26  C   UNL     1       8.675  29.246  57.353  1.00  0.00     0.070 A 
HETATM   27  O   UNL     1       9.365  29.932  58.314  1.00  0.00    -0.325 OA
HETATM   28  C   UNL     1      10.519  30.360  57.741  1.00  0.00     0.142 A 
HETATM   29  C   UNL     1      10.595  29.938  56.434  1.00  0.00     0.027 A 
HETATM   30  C   UNL     1       9.403  29.215  56.182  1.00  0.00     0.036 A 
ENDBRANCH  25  26
ENDBRANCH   2  25
TORSDOF 6
ENDMDL
MODEL 9
REMARK VINA RESULT:      -7.5      3.159      7.506
REMARK  6 active torsions:
REMARK  status: ('A' for Active; 'I' for Inactive)
REMARK    1  A    between atoms: C_2  and  N_3 
REMARK    2  A    between atoms: N_3  and  C_5 
REMARK    3  A    between atoms: N_3  and  C_28 
REMARK    4  A    between atoms: C_8  and  C_9 
REMARK    5  A    between atoms: N_10  and  C_11 
REMARK    6  A    between atoms: C_11  and  C_12 
ROOT
HETATM    1  C   UNL     1       6.671  27.989  54.583  1.00  0.00     0.199 C 
HETATM    2  N   UNL     1       5.871  28.704  55.562  1.00  0.00    -0.321 N 
HETATM    3  C   UNL     1       6.487  29.084  56.754  1.00  0.00     0.257 C 
HETATM    4  O   UNL     1       5.875  29.321  57.791  1.00  0.00    -0.267 OA
HETATM    5  C   UNL     1       7.957  29.238  56.717  1.00  0.00     0.053 A 
HETATM    6  C   UNL     1       8.607  29.073  55.489  1.00  0.00     0.026 A 
HETATM    7  N   UNL     1       7.885  28.755  54.323  1.00  0.00    -0.266 NA
HETATM    8  C   UNL     1       8.664  29.601  57.869  1.00  0.00     0.019 A 
HETATM    9  C   UNL     1      10.034  29.849  57.788  1.00  0.00     0.001 A 
HETATM   10  C   UNL     1      10.682  29.752  56.558  1.00  0.00     0.002 A 
HETATM   11  C   UNL     1       9.970  29.380  55.413  1.00  0.00     0.024 A 
HETATM   12  H   UNL     1       8.485  28.306  53.637  1.00  0.00     0.130 HD
ENDROOT
BRANCH   1  13
HETATM   13  C   UNL     1       5.992  27.737  53.240  1.00  0.00    -0.021 A 
HETATM   14  C   UNL     1       5.829  28.761  52.296  1.00  0.00     0.013 A 
HETATM   15  C   UNL     1       5.119  28.536  51.111  1.00  0.00     0.038 A 
HETATM   16  C   UNL     1       4.607  27.267  50.808  1.00  0.00     0.134 A 
HETATM   17  C   UNL     1       4.808  26.232  51.726  1.00  0.00     0.038 A 
HETATM   18  C   UNL     1       5.483  26.467  52.932  1.00  0.00     0.013 A 
BRANCH  16  19
HETATM   19  N   UNL     1       3.816  27.102  49.547  1.00  0.00    -0.042 N 
HETATM   20  H   UNL     1       3.025  26.509  49.836  1.00  0.00     0.286 HD
BRANCH  19  21
HETATM   21  C   UNL     1       4.496  26.354  48.420  1.00  0.00     0.237 C 
HETATM   22  C   UNL     1       3.508  25.498  47.647  1.00  0.00     0.035 C 
ENDBRANCH  19  21
BRANCH  19  23
HETATM   23  C   UNL     1       3.196  28.406  49.075  1.00  0.00     0.237 C 
HETATM   24  C   UNL     1       1.684  28.427  49.206  1.00  0.00     0.035 C 
ENDBRANCH  19  23
ENDBRANCH  16  19
ENDBRANCH   1  13
BRANCH   2  25
HETATM   25  C   UNL     1       4.416  28.603  55.572  1.00  0.00     0.193 C 
BRANCH  25  26
HETATM   26  C   UNL     1       3.756  29.898  55.259  1.00  0.00     0.070 A 
HETATM   27  O   UNL     1       3.111  30.521  56.290  1.00  0.00    -0.325 OA
HETATM   28  C   UNL     1       2.511  31.623  55.773  1.00  0.00     0.142 A 
HETATM   29  C   UNL     1       2.782  31.734  54.428  1.00  0.00     0.027 A 
HETATM   30  C   UNL     1       3.589  30.619  54.095  1.00  0.00     0.036 A 
ENDBRANCH  25  26
ENDBRANCH   2  25
TORSDOF 6
ENDMDL
MODEL 10
REMARK VINA RESULT:      -7.5      2.198      4.284
REMARK  6 active torsions:
REMARK  status: ('A' for Active; 'I' for Inactive)
REMARK    1  A    between atoms: C_2  and  N_3 
REMARK    2  A    between atoms: N_3  and  C_5 
REMARK    3  A    between atoms: N_3  and  C_28 
REMARK    4  A    between atoms: C_8  and  C_9 
REMARK    5  A    between atoms: N_10  and  C_11 
REMARK    6  A    between atoms: C_11  and  C_12 
ROOT
HETATM    1  C   UNL     1       5.004  28.379  52.208  1.00  0.00     0.199 C 
HETATM    2  N   UNL     1       4.909  27.225  51.331  1.00  0.00    -0.321 N 
HETATM    3  C   UNL     1       4.518  27.440  50.011  1.00  0.00     0.257 C 
HETATM    4  O   UNL     1       4.026  26.571  49.297  1.00  0.00    -0.267 OA
HETATM    5  C   UNL     1       4.762  28.791  49.461  1.00  0.00     0.053 A 
HETATM    6  C   UNL     1       5.432  29.719  50.267  1.00  0.00     0.026 A 
HETATM    7  N   UNL     1       5.848  29.383  51.569  1.00  0.00    -0.266 NA
HETATM    8  C   UNL     1       4.389  29.105  48.150  1.00  0.00     0.019 A 
HETATM    9  C   UNL     1       4.726  30.348  47.615  1.00  0.00     0.001 A 
HETATM   10  C   UNL     1       5.450  31.257  48.384  1.00  0.00     0.002 A 
HETATM   11  C   UNL     1       5.813  30.939  49.697  1.00  0.00     0.024 A 
HETATM   12  H   UNL     1       5.958  30.216  52.140  1.00  0.00     0.130 HD
ENDROOT
BRANCH   1  13
HETATM   13  C   UNL     1       5.584  28.106  53.592  1.00  0.00    -0.021 A 
HETATM   14  C   UNL     1       4.759  27.852  54.697  1.00  0.00     0.013 A 
HETATM   15  C   UNL     1       5.304  27.699  55.977  1.00  0.00     0.038 A 
HETATM   16  C   UNL     1       6.691  27.735  56.179  1.00  0.00     0.134 A 
HETATM   17  C   UNL     1       7.519  27.943  55.072  1.00  0.00     0.038 A 
HETATM   18  C   UNL     1       6.971  28.136  53.796  1.00  0.00     0.013 A 
BRANCH  16  19
HETATM   19  N   UNL     1       7.208  27.613  57.579  1.00  0.00    -0.042 N 
HETATM   20  H   UNL     1       6.352  27.520  58.145  1.00  0.00     0.286 HD
BRANCH  19  21
HETATM   21  C   UNL     1       7.934  28.821  58.134  1.00  0.00     0.237 C 
HETATM   22  C   UNL     1       7.073  30.070  58.056  1.00  0.00     0.035 C 
ENDBRANCH  19  21
BRANCH  19  23
HETATM   23  C   UNL     1       7.985  26.327  57.802  1.00  0.00     0.237 C 
HETATM   24  C   UNL     1       7.237  25.093  57.333  1.00  0.00     0.035 C 
ENDBRANCH  19  23
ENDBRANCH  16  19
ENDBRANCH   1  13
BRANCH   2  25
HETATM   25  C   UNL     1       4.725  25.881  51.867  1.00  0.00     0.193 C 
BRANCH  25  26
HETATM   26  C   UNL     1       6.008  25.253  52.278  1.00  0.00     0.070 A 
HETATM   27  O   UNL     1       6.035  24.666  53.512  1.00  0.00    -0.325 OA
HETATM   28  C   UNL     1       7.307  24.242  53.720  1.00  0.00     0.142 A 
HETATM   29  C   UNL     1       8.095  24.523  52.627  1.00  0.00     0.027 A 
HETATM   30  C   UNL     1       7.255  25.175  51.693  1.00  0.00     0.036 A 
ENDBRANCH  25  26
ENDBRANCH   2  25
TORSDOF 6
ENDMDL
