MODEL 1
REMARK VINA RESULT:      -8.7      0.000      0.000
REMARK  4 active torsions:
REMARK  status: ('A' for Active; 'I' for Inactive)
REMARK    1  A    between atoms: C_2  and  O_3 
REMARK    2  A    between atoms: O_3  and  C_4 
REMARK    3  A    between atoms: C_7  and  C_8 
REMARK       I    between atoms: C_8  and  N_9 
REMARK    4  A    between atoms: N_9  and  C_10 
ROOT
HETATM    1  C   UNL     1       6.783  25.497  55.719  1.00  0.00     0.262 C 
HETATM    2  N   UNL     1       7.800  24.869  55.021  1.00  0.00    -0.321 N 
HETATM    3  O   UNL     1       5.743  24.947  56.066  1.00  0.00    -0.267 OA
HETATM    4  H   UNL     1       8.592  25.439  54.749  1.00  0.00     0.169 HD
ENDROOT
BRANCH   1   5
HETATM    5  C   UNL     1       6.988  26.938  56.062  1.00  0.00     0.112 A 
HETATM    6  C   UNL     1       7.926  27.365  57.014  1.00  0.00     0.168 A 
HETATM    7  C   UNL     1       8.088  28.725  57.320  1.00  0.00     0.108 A 
HETATM    8  F   UNL     1       8.672  26.450  57.655  1.00  0.00    -0.202 F 
HETATM    9  C   UNL     1       7.289  29.669  56.672  1.00  0.00     0.043 A 
HETATM   10  C   UNL     1       6.358  29.265  55.719  1.00  0.00     0.046 A 
HETATM   11  C   UNL     1       6.214  27.912  55.420  1.00  0.00     0.135 A 
HETATM   12  F   UNL     1       5.292  27.588  54.504  1.00  0.00    -0.205 F 
BRANCH   7  13
HETATM   13  O   UNL     1       8.954  29.270  58.228  1.00  0.00    -0.348 OA
BRANCH  13  14
HETATM   14  C   UNL     1       9.836  30.295  57.774  1.00  0.00     0.171 C 
HETATM   15  C   UNL     1      10.941  29.630  56.973  1.00  0.00     0.034 C 
ENDBRANCH  13  14
ENDBRANCH   7  13
ENDBRANCH   1   5
BRANCH   2  16
HETATM   16  C   UNL     1       7.883  23.514  54.628  1.00  0.00     0.064 A 
HETATM   17  C   UNL     1       8.083  22.398  55.455  1.00  0.00     0.088 A 
HETATM   18  C   UNL     1       8.173  21.095  54.966  1.00  0.00     0.014 A 
HETATM   19  N   UNL     1       8.233  22.261  56.813  1.00  0.00    -0.275 N 
HETATM   20  C   UNL     1       8.382  20.289  56.107  1.00  0.00     0.152 A 
HETATM   21  C   UNL     1       8.056  20.859  53.586  1.00  0.00     0.015 A 
HETATM   22  N   UNL     1       8.421  20.997  57.237  1.00  0.00    -0.186 NA
HETATM   23  C   UNL     1       7.852  21.947  52.738  1.00  0.00     0.003 A 
HETATM   24  C   UNL     1       7.770  23.243  53.250  1.00  0.00     0.032 A 
HETATM   25  H   UNL     1       8.209  23.019  57.493  1.00  0.00     0.189 HD
ENDBRANCH   2  16
TORSDOF 4
ENDMDL
MODEL 2
REMARK VINA RESULT:      -8.6      5.894      8.433
REMARK  4 active torsions:
REMARK  status: ('A' for Active; 'I' for Inactive)
REMARK    1  A    between atoms: C_2  and  O_3 
REMARK    2  A    between atoms: O_3  and  C_4 
REMARK    3  A    between atoms: C_7  and  C_8 
REMARK       I    between atoms: C_8  and  N_9 
REMARK    4  A    between atoms: N_9  and  C_10 
ROOT
HETATM    1  C   UNL     1       7.796  31.787  60.098  1.00  0.00     0.262 C 
HETATM    2  N   UNL     1       7.517  30.502  59.665  1.00  0.00    -0.321 N 
HETATM    3  O   UNL     1       8.383  32.628  59.426  1.00  0.00    -0.267 OA
HETATM    4  H   UNL     1       7.066  29.881  60.327  1.00  0.00     0.169 HD
ENDROOT
BRANCH   1   5
HETATM    5  C   UNL     1       7.340  32.150  61.476  1.00  0.00     0.112 A 
HETATM    6  C   UNL     1       5.987  32.310  61.810  1.00  0.00     0.168 A 
HETATM    7  C   UNL     1       5.593  32.661  63.110  1.00  0.00     0.108 A 
HETATM    8  F   UNL     1       5.053  32.139  60.859  1.00  0.00    -0.202 F 
HETATM    9  C   UNL     1       6.570  32.867  64.086  1.00  0.00     0.043 A 
HETATM   10  C   UNL     1       7.917  32.705  63.775  1.00  0.00     0.046 A 
HETATM   11  C   UNL     1       8.293  32.349  62.482  1.00  0.00     0.135 A 
HETATM   12  F   UNL     1       9.606  32.223  62.244  1.00  0.00    -0.205 F 
BRANCH   7  13
HETATM   13  O   UNL     1       4.316  32.855  63.562  1.00  0.00    -0.348 OA
BRANCH  13  14
HETATM   14  C   UNL     1       3.793  34.182  63.530  1.00  0.00     0.171 C 
HETATM   15  C   UNL     1       2.336  34.093  63.115  1.00  0.00     0.034 C 
ENDBRANCH  13  14
ENDBRANCH   7  13
ENDBRANCH   1   5
BRANCH   2  16
HETATM   16  C   UNL     1       7.782  29.928  58.402  1.00  0.00     0.064 A 
HETATM   17  C   UNL     1       9.007  29.906  57.717  1.00  0.00     0.088 A 
HETATM   18  C   UNL     1       9.163  29.330  56.456  1.00  0.00     0.014 A 
HETATM   19  N   UNL     1      10.256  30.381  58.030  1.00  0.00    -0.275 N 
HETATM   20  C   UNL     1      10.523  29.530  56.128  1.00  0.00     0.152 A 
HETATM   21  C   UNL     1       8.062  28.732  55.822  1.00  0.00     0.015 A 
HETATM   22  N   UNL     1      11.194  30.173  57.085  1.00  0.00    -0.186 NA
HETATM   23  C   UNL     1       6.832  28.732  56.479  1.00  0.00     0.003 A 
HETATM   24  C   UNL     1       6.698  29.320  57.738  1.00  0.00     0.032 A 
HETATM   25  H   UNL     1      10.512  30.858  58.893  1.00  0.00     0.189 HD
ENDBRANCH   2  16
TORSDOF 4
ENDMDL
MODEL 3
REMARK VINA RESULT:      -8.5      2.681      7.302
REMARK  4 active torsions:
REMARK  status: ('A' for Active; 'I' for Inactive)
REMARK    1  A    between atoms: C_2  and  O_3 
REMARK    2  A    between atoms: O_3  and  C_4 
REMARK    3  A    between atoms: C_7  and  C_8 
REMARK       I    between atoms: C_8  and  N_9 
REMARK    4  A    between atoms: N_9  and  C_10 
ROOT
HETATM    1  C   UNL     1       8.010  26.848  57.107  1.00  0.00     0.262 C 
HETATM    2  N   UNL     1       8.623  27.951  56.537  1.00  0.00    -0.321 N 
HETATM    3  O   UNL     1       7.838  26.702  58.312  1.00  0.00    -0.267 OA
HETATM    4  H   UNL     1       8.749  27.940  55.531  1.00  0.00     0.169 HD
ENDROOT
BRANCH   1   5
HETATM    5  C   UNL     1       7.532  25.783  56.172  1.00  0.00     0.112 A 
HETATM    6  C   UNL     1       8.172  24.541  56.047  1.00  0.00     0.168 A 
HETATM    7  C   UNL     1       7.703  23.566  55.153  1.00  0.00     0.108 A 
HETATM    8  F   UNL     1       9.264  24.289  56.788  1.00  0.00    -0.202 F 
HETATM    9  C   UNL     1       6.585  23.845  54.365  1.00  0.00     0.043 A 
HETATM   10  C   UNL     1       5.933  25.069  54.481  1.00  0.00     0.046 A 
HETATM   11  C   UNL     1       6.404  26.024  55.378  1.00  0.00     0.135 A 
HETATM   12  F   UNL     1       5.740  27.187  55.432  1.00  0.00    -0.205 F 
BRANCH   7  13
HETATM   13  O   UNL     1       8.236  22.325  54.930  1.00  0.00    -0.348 OA
BRANCH  13  14
HETATM   14  C   UNL     1       8.790  22.061  53.642  1.00  0.00     0.171 C 
HETATM   15  C   UNL     1       8.208  20.748  53.150  1.00  0.00     0.034 C 
ENDBRANCH  13  14
ENDBRANCH   7  13
ENDBRANCH   1   5
BRANCH   2  16
HETATM   16  C   UNL     1       9.107  29.112  57.180  1.00  0.00     0.064 A 
HETATM   17  C   UNL     1       8.387  29.995  58.000  1.00  0.00     0.088 A 
HETATM   18  C   UNL     1       8.953  31.132  58.575  1.00  0.00     0.014 A 
HETATM   19  N   UNL     1       7.083  30.012  58.429  1.00  0.00    -0.275 N 
HETATM   20  C   UNL     1       7.903  31.737  59.302  1.00  0.00     0.152 A 
HETATM   21  C   UNL     1      10.307  31.429  58.345  1.00  0.00     0.015 A 
HETATM   22  N   UNL     1       6.759  31.057  59.214  1.00  0.00    -0.186 NA
HETATM   23  C   UNL     1      11.051  30.569  57.539  1.00  0.00     0.003 A 
HETATM   24  C   UNL     1      10.461  29.439  56.969  1.00  0.00     0.032 A 
HETATM   25  H   UNL     1       6.374  29.315  58.205  1.00  0.00     0.189 HD
ENDBRANCH   2  16
TORSDOF 4
ENDMDL
MODEL 4
REMARK VINA RESULT:      -8.5      5.558      9.618
REMARK  4 active torsions:
REMARK  status: ('A' for Active; 'I' for Inactive)
REMARK    1  A    between atoms: C_2  and  O_3 
REMARK    2  A    between atoms: O_3  and  C_4 
REMARK    3  A    between atoms: C_7  and  C_8 
REMARK       I    between atoms: C_8  and  N_9 
REMARK    4  A    between atoms: N_9  and  C_10 
ROOT
HETATM    1  C   UNL     1       7.773  31.449  59.505  1.00  0.00     0.262 C 
HETATM    2  N   UNL     1       7.859  31.150  60.854  1.00  0.00    -0.321 N 
HETATM    3  O   UNL     1       7.127  32.385  59.047  1.00  0.00    -0.267 OA
HETATM    4  H   UNL     1       8.386  30.323  61.111  1.00  0.00     0.169 HD
ENDROOT
BRANCH   1   5
HETATM    5  C   UNL     1       8.527  30.561  58.567  1.00  0.00     0.112 A 
HETATM    6  C   UNL     1       7.953  29.431  57.966  1.00  0.00     0.168 A 
HETATM    7  C   UNL     1       8.691  28.613  57.097  1.00  0.00     0.108 A 
HETATM    8  F   UNL     1       6.676  29.120  58.242  1.00  0.00    -0.202 F 
HETATM    9  C   UNL     1      10.027  28.925  56.837  1.00  0.00     0.043 A 
HETATM   10  C   UNL     1      10.611  30.046  57.419  1.00  0.00     0.046 A 
HETATM   11  C   UNL     1       9.864  30.854  58.273  1.00  0.00     0.135 A 
HETATM   12  F   UNL     1      10.489  31.911  58.811  1.00  0.00    -0.205 F 
BRANCH   7  13
HETATM   13  O   UNL     1       8.257  27.485  56.456  1.00  0.00    -0.348 OA
BRANCH  13  14
HETATM   14  C   UNL     1       8.284  26.256  57.179  1.00  0.00     0.171 C 
HETATM   15  C   UNL     1       6.856  25.755  57.292  1.00  0.00     0.034 C 
ENDBRANCH  13  14
ENDBRANCH   7  13
ENDBRANCH   1   5
BRANCH   2  16
HETATM   16  C   UNL     1       7.298  31.855  61.943  1.00  0.00     0.064 A 
HETATM   17  C   UNL     1       5.956  32.224  62.118  1.00  0.00     0.088 A 
HETATM   18  C   UNL     1       5.502  32.942  63.225  1.00  0.00     0.014 A 
HETATM   19  N   UNL     1       4.830  32.024  61.359  1.00  0.00    -0.275 N 
HETATM   20  C   UNL     1       4.116  33.112  63.008  1.00  0.00     0.152 A 
HETATM   21  C   UNL     1       6.408  33.320  64.230  1.00  0.00     0.015 A 
HETATM   22  N   UNL     1       3.702  32.555  61.870  1.00  0.00    -0.186 NA
HETATM   23  C   UNL     1       7.749  32.963  64.088  1.00  0.00     0.003 A 
HETATM   24  C   UNL     1       8.181  32.249  62.969  1.00  0.00     0.032 A 
HETATM   25  H   UNL     1       4.790  31.521  60.474  1.00  0.00     0.189 HD
ENDBRANCH   2  16
TORSDOF 4
ENDMDL
MODEL 5
REMARK VINA RESULT:      -8.4      5.774      8.373
REMARK  4 active torsions:
REMARK  status: ('A' for Active; 'I' for Inactive)
REMARK    1  A    between atoms: C_2  and  O_3 
REMARK    2  A    between atoms: O_3  and  C_4 
REMARK    3  A    between atoms: C_7  and  C_8 
REMARK       I    between atoms: C_8  and  N_9 
REMARK    4  A    between atoms: N_9  and  C_10 
ROOT
HETATM    1  C   UNL     1       7.199  31.820  60.122  1.00  0.00     0.262 C 
HETATM    2  N   UNL     1       7.685  30.550  59.866  1.00  0.00    -0.321 N 
HETATM    3  O   UNL     1       6.918  32.638  59.253  1.00  0.00    -0.267 OA
HETATM    4  H   UNL     1       7.926  29.978  60.668  1.00  0.00     0.169 HD
ENDROOT
BRANCH   1   5
HETATM    5  C   UNL     1       7.010  32.195  61.557  1.00  0.00     0.112 A 
HETATM    6  C   UNL     1       5.744  32.372  62.136  1.00  0.00     0.168 A 
HETATM    7  C   UNL     1       5.602  32.734  63.484  1.00  0.00     0.108 A 
HETATM    8  F   UNL     1       4.648  32.206  61.376  1.00  0.00    -0.202 F 
HETATM    9  C   UNL     1       6.745  32.933  64.260  1.00  0.00     0.043 A 
HETATM   10  C   UNL     1       8.009  32.755  63.706  1.00  0.00     0.046 A 
HETATM   11  C   UNL     1       8.135  32.388  62.368  1.00  0.00     0.135 A 
HETATM   12  F   UNL     1       9.380  32.247  61.892  1.00  0.00    -0.205 F 
BRANCH   7  13
HETATM   13  O   UNL     1       4.433  32.945  64.164  1.00  0.00    -0.348 OA
BRANCH  13  14
HETATM   14  C   UNL     1       3.834  34.236  64.073  1.00  0.00     0.171 C 
HETATM   15  C   UNL     1       2.556  34.096  63.267  1.00  0.00     0.034 C 
ENDBRANCH  13  14
ENDBRANCH   7  13
ENDBRANCH   1   5
BRANCH   2  16
HETATM   16  C   UNL     1       7.899  29.931  58.614  1.00  0.00     0.064 A 
HETATM   17  C   UNL     1       6.929  29.392  57.755  1.00  0.00     0.088 A 
HETATM   18  C   UNL     1       7.244  28.778  56.542  1.00  0.00     0.014 A 
HETATM   19  N   UNL     1       5.561  29.310  57.831  1.00  0.00    -0.275 N 
HETATM   20  C   UNL     1       6.002  28.372  56.004  1.00  0.00     0.152 A 
HETATM   21  C   UNL     1       8.585  28.688  56.135  1.00  0.00     0.015 A 
HETATM   22  N   UNL     1       4.972  28.693  56.788  1.00  0.00    -0.186 NA
HETATM   23  C   UNL     1       9.572  29.219  56.964  1.00  0.00     0.003 A 
HETATM   24  C   UNL     1       9.234  29.823  58.176  1.00  0.00     0.032 A 
HETATM   25  H   UNL     1       4.985  29.671  58.589  1.00  0.00     0.189 HD
ENDBRANCH   2  16
TORSDOF 4
ENDMDL
MODEL 6
REMARK VINA RESULT:      -8.3      2.496      7.138
REMARK  4 active torsions:
REMARK  status: ('A' for Active; 'I' for Inactive)
REMARK    1  A    between atoms: C_2  and  O_3 
REMARK    2  A    between atoms: O_3  and  C_4 
REMARK    3  A    between atoms: C_7  and  C_8 
REMARK       I    between atoms: C_8  and  N_9 
REMARK    4  A    between atoms: N_9  and  C_10 
ROOT
HETATM    1  C   UNL     1       7.668  26.078  56.428  1.00  0.00     0.262 C 
HETATM    2  N   UNL     1       8.016  27.355  56.022  1.00  0.00    -0.321 N 
HETATM    3  O   UNL     1       7.447  25.763  57.593  1.00  0.00    -0.267 OA
HETATM    4  H   UNL     1       8.220  27.485  55.037  1.00  0.00     0.169 HD
ENDROOT
BRANCH   1   5
HETATM    5  C   UNL     1       7.558  25.036  55.362  1.00  0.00     0.112 A 
HETATM    6  C   UNL     1       8.433  23.942  55.277  1.00  0.00     0.168 A 
HETATM    7  C   UNL     1       8.308  22.986  54.258  1.00  0.00     0.108 A 
HETATM    8  F   UNL     1       9.418  23.819  56.182  1.00  0.00    -0.202 F 
HETATM    9  C   UNL     1       7.300  23.135  53.303  1.00  0.00     0.043 A 
HETATM   10  C   UNL     1       6.418  24.209  53.376  1.00  0.00     0.046 A 
HETATM   11  C   UNL     1       6.549  25.147  54.398  1.00  0.00     0.135 A 
HETATM   12  F   UNL     1       5.677  26.164  54.404  1.00  0.00    -0.205 F 
BRANCH   7  13
HETATM   13  O   UNL     1       9.095  21.885  54.057  1.00  0.00    -0.348 OA
BRANCH  13  14
HETATM   14  C   UNL     1       8.482  20.601  54.161  1.00  0.00     0.171 C 
HETATM   15  C   UNL     1       8.336  20.278  55.637  1.00  0.00     0.034 C 
ENDBRANCH  13  14
ENDBRANCH   7  13
ENDBRANCH   1   5
BRANCH   2  16
HETATM   16  C   UNL     1       8.131  28.523  56.809  1.00  0.00     0.064 A 
HETATM   17  C   UNL     1       9.295  29.260  57.075  1.00  0.00     0.088 A 
HETATM   18  C   UNL     1       9.309  30.394  57.887  1.00  0.00     0.014 A 
HETATM   19  N   UNL     1      10.600  29.112  56.676  1.00  0.00    -0.275 N 
HETATM   20  C   UNL     1      10.657  30.818  57.900  1.00  0.00     0.152 A 
HETATM   21  C   UNL     1       8.115  30.845  58.474  1.00  0.00     0.015 A 
HETATM   22  N   UNL     1      11.449  30.038  57.164  1.00  0.00    -0.186 NA
HETATM   23  C   UNL     1       6.940  30.138  58.224  1.00  0.00     0.003 A 
HETATM   24  C   UNL     1       6.951  29.002  57.413  1.00  0.00     0.032 A 
HETATM   25  H   UNL     1      10.956  28.383  56.059  1.00  0.00     0.189 HD
ENDBRANCH   2  16
TORSDOF 4
ENDMDL
MODEL 7
REMARK VINA RESULT:      -8.3      1.355      1.435
REMARK  4 active torsions:
REMARK  status: ('A' for Active; 'I' for Inactive)
REMARK    1  A    between atoms: C_2  and  O_3 
REMARK    2  A    between atoms: O_3  and  C_4 
REMARK    3  A    between atoms: C_7  and  C_8 
REMARK       I    between atoms: C_8  and  N_9 
REMARK    4  A    between atoms: N_9  and  C_10 
ROOT
HETATM    1  C   UNL     1       6.525  25.906  56.621  1.00  0.00     0.262 C 
HETATM    2  N   UNL     1       7.309  25.536  55.541  1.00  0.00    -0.321 N 
HETATM    3  O   UNL     1       5.843  25.126  57.276  1.00  0.00    -0.267 OA
HETATM    4  H   UNL     1       7.794  26.277  55.048  1.00  0.00     0.169 HD
ENDROOT
BRANCH   1   5
HETATM    5  C   UNL     1       6.530  27.354  56.994  1.00  0.00     0.112 A 
HETATM    6  C   UNL     1       7.678  28.016  57.454  1.00  0.00     0.168 A 
HETATM    7  C   UNL     1       7.646  29.374  57.806  1.00  0.00     0.108 A 
HETATM    8  F   UNL     1       8.826  27.328  57.574  1.00  0.00    -0.202 F 
HETATM    9  C   UNL     1       6.443  30.075  57.708  1.00  0.00     0.043 A 
HETATM   10  C   UNL     1       5.295  29.437  57.247  1.00  0.00     0.046 A 
HETATM   11  C   UNL     1       5.343  28.091  56.893  1.00  0.00     0.135 A 
HETATM   12  F   UNL     1       4.201  27.533  56.470  1.00  0.00    -0.205 F 
BRANCH   7  13
HETATM   13  O   UNL     1       8.686  30.131  58.273  1.00  0.00    -0.348 OA
BRANCH  13  14
HETATM   14  C   UNL     1       8.699  30.459  59.661  1.00  0.00     0.171 C 
HETATM   15  C   UNL     1       9.393  31.801  59.811  1.00  0.00     0.034 C 
ENDBRANCH  13  14
ENDBRANCH   7  13
ENDBRANCH   1   5
BRANCH   2  16
HETATM   16  C   UNL     1       7.527  24.240  55.022  1.00  0.00     0.064 A 
HETATM   17  C   UNL     1       7.864  23.082  55.738  1.00  0.00     0.088 A 
HETATM   18  C   UNL     1       8.081  21.846  55.127  1.00  0.00     0.014 A 
HETATM   19  N   UNL     1       8.060  22.838  57.074  1.00  0.00    -0.275 N 
HETATM   20  C   UNL     1       8.402  20.966  56.185  1.00  0.00     0.152 A 
HETATM   21  C   UNL     1       7.956  21.726  53.733  1.00  0.00     0.015 A 
HETATM   22  N   UNL     1       8.392  21.568  57.376  1.00  0.00    -0.186 NA
HETATM   23  C   UNL     1       7.616  22.858  52.994  1.00  0.00     0.003 A 
HETATM   24  C   UNL     1       7.410  24.086  53.626  1.00  0.00     0.032 A 
HETATM   25  H   UNL     1       7.973  23.524  57.823  1.00  0.00     0.189 HD
ENDBRANCH   2  16
TORSDOF 4
ENDMDL
MODEL 8
REMARK VINA RESULT:      -8.2      2.848      7.403
REMARK  4 active torsions:
REMARK  status: ('A' for Active; 'I' for Inactive)
REMARK    1  A    between atoms: C_2  and  O_3 
REMARK    2  A    between atoms: O_3  and  C_4 
REMARK    3  A    between atoms: C_7  and  C_8 
REMARK       I    between atoms: C_8  and  N_9 
REMARK    4  A    between atoms: N_9  and  C_10 
ROOT
HETATM    1  C   UNL     1       8.003  26.863  57.083  1.00  0.00     0.262 C 
HETATM    2  N   UNL     1       8.528  28.021  56.536  1.00  0.00    -0.321 N 
HETATM    3  O   UNL     1       7.911  26.650  58.287  1.00  0.00    -0.267 OA
HETATM    4  H   UNL     1       8.595  28.064  55.525  1.00  0.00     0.169 HD
ENDROOT
BRANCH   1   5
HETATM    5  C   UNL     1       7.521  25.821  56.125  1.00  0.00     0.112 A 
HETATM    6  C   UNL     1       6.381  25.994  55.325  1.00  0.00     0.168 A 
HETATM    7  C   UNL     1       5.950  24.992  54.443  1.00  0.00     0.108 A 
HETATM    8  F   UNL     1       5.683  27.138  55.420  1.00  0.00    -0.202 F 
HETATM    9  C   UNL     1       6.664  23.794  54.371  1.00  0.00     0.043 A 
HETATM   10  C   UNL     1       7.800  23.607  55.151  1.00  0.00     0.046 A 
HETATM   11  C   UNL     1       8.222  24.613  56.017  1.00  0.00     0.135 A 
HETATM   12  F   UNL     1       9.316  24.365  56.750  1.00  0.00    -0.205 F 
BRANCH   7  13
HETATM   13  O   UNL     1       4.858  25.031  53.619  1.00  0.00    -0.348 OA
BRANCH  13  14
HETATM   14  C   UNL     1       5.071  24.836  52.222  1.00  0.00     0.171 C 
HETATM   15  C   UNL     1       5.398  26.188  51.612  1.00  0.00     0.034 C 
ENDBRANCH  13  14
ENDBRANCH   7  13
ENDBRANCH   1   5
BRANCH   2  16
HETATM   16  C   UNL     1       8.996  29.172  57.209  1.00  0.00     0.064 A 
HETATM   17  C   UNL     1       8.249  30.057  58.002  1.00  0.00     0.088 A 
HETATM   18  C   UNL     1       8.801  31.184  58.609  1.00  0.00     0.014 A 
HETATM   19  N   UNL     1       6.927  30.084  58.372  1.00  0.00    -0.275 N 
HETATM   20  C   UNL     1       7.725  31.795  59.293  1.00  0.00     0.152 A 
HETATM   21  C   UNL     1      10.166  31.469  58.442  1.00  0.00     0.015 A 
HETATM   22  N   UNL     1       6.580  31.128  59.150  1.00  0.00    -0.186 NA
HETATM   23  C   UNL     1      10.937  30.606  57.663  1.00  0.00     0.003 A 
HETATM   24  C   UNL     1      10.361  29.486  57.060  1.00  0.00     0.032 A 
HETATM   25  H   UNL     1       6.222  29.397  58.112  1.00  0.00     0.189 HD
ENDBRANCH   2  16
TORSDOF 4
ENDMDL
MODEL 9
REMARK VINA RESULT:      -8.1      1.578      2.328
REMARK  4 active torsions:
REMARK  status: ('A' for Active; 'I' for Inactive)
REMARK    1  A    between atoms: C_2  and  O_3 
REMARK    2  A    between atoms: O_3  and  C_4 
REMARK    3  A    between atoms: C_7  and  C_8 
REMARK       I    between atoms: C_8  and  N_9 
REMARK    4  A    between atoms: N_9  and  C_10 
ROOT
HETATM    1  C   UNL     1       7.235  25.215  55.904  1.00  0.00     0.262 C 
HETATM    2  N   UNL     1       8.305  24.339  55.957  1.00  0.00    -0.321 N 
HETATM    3  O   UNL     1       6.078  24.876  55.677  1.00  0.00    -0.267 OA
HETATM    4  H   UNL     1       9.224  24.742  56.107  1.00  0.00     0.169 HD
ENDROOT
BRANCH   1   5
HETATM    5  C   UNL     1       7.532  26.661  56.143  1.00  0.00     0.112 A 
HETATM    6  C   UNL     1       7.703  27.198  57.428  1.00  0.00     0.168 A 
HETATM    7  C   UNL     1       7.971  28.562  57.619  1.00  0.00     0.108 A 
HETATM    8  F   UNL     1       7.591  26.390  58.496  1.00  0.00    -0.202 F 
HETATM    9  C   UNL     1       8.057  29.402  56.506  1.00  0.00     0.043 A 
HETATM   10  C   UNL     1       7.898  28.885  55.224  1.00  0.00     0.046 A 
HETATM   11  C   UNL     1       7.640  27.528  55.049  1.00  0.00     0.135 A 
HETATM   12  F   UNL     1       7.483  27.097  53.790  1.00  0.00    -0.205 F 
BRANCH   7  13
HETATM   13  O   UNL     1       8.149  29.210  58.811  1.00  0.00    -0.348 OA
BRANCH  13  14
HETATM   14  C   UNL     1       8.943  30.395  58.812  1.00  0.00     0.171 C 
HETATM   15  C   UNL     1       8.233  31.424  59.673  1.00  0.00     0.034 C 
ENDBRANCH  13  14
ENDBRANCH   7  13
ENDBRANCH   1   5
BRANCH   2  16
HETATM   16  C   UNL     1       8.292  22.932  55.827  1.00  0.00     0.064 A 
HETATM   17  C   UNL     1       8.165  22.188  54.644  1.00  0.00     0.088 A 
HETATM   18  C   UNL     1       8.140  20.793  54.621  1.00  0.00     0.014 A 
HETATM   19  N   UNL     1       8.040  22.550  53.326  1.00  0.00    -0.275 N 
HETATM   20  C   UNL     1       7.991  20.452  53.258  1.00  0.00     0.152 A 
HETATM   21  C   UNL     1       8.252  20.075  55.823  1.00  0.00     0.015 A 
HETATM   22  N   UNL     1       7.928  21.521  52.464  1.00  0.00    -0.186 NA
HETATM   23  C   UNL     1       8.385  20.785  57.015  1.00  0.00     0.003 A 
HETATM   24  C   UNL     1       8.401  22.181  57.014  1.00  0.00     0.032 A 
HETATM   25  H   UNL     1       8.031  23.505  52.970  1.00  0.00     0.189 HD
ENDBRANCH   2  16
TORSDOF 4
ENDMDL
MODEL 10
REMARK VINA RESULT:      -8.1      4.135      7.232
REMARK  4 active torsions:
REMARK  status: ('A' for Active; 'I' for Inactive)
REMARK    1  A    between atoms: C_2  and  O_3 
REMARK    2  A    between atoms: O_3  and  C_4 
REMARK    3  A    between atoms: C_7  and  C_8 
REMARK       I    between atoms: C_8  and  N_9 
REMARK    4  A    between atoms: N_9  and  C_10 
ROOT
HETATM    1  C   UNL     1       5.566  25.439  53.251  1.00  0.00     0.262 C 
HETATM    2  N   UNL     1       6.121  26.561  52.660  1.00  0.00    -0.321 N 
HETATM    3  O   UNL     1       4.421  25.050  53.047  1.00  0.00    -0.267 OA
HETATM    4  H   UNL     1       7.063  26.811  52.941  1.00  0.00     0.169 HD
ENDROOT
BRANCH   1   5
HETATM    5  C   UNL     1       6.437  24.668  54.190  1.00  0.00     0.112 A 
HETATM    6  C   UNL     1       7.384  23.731  53.751  1.00  0.00     0.168 A 
HETATM    7  C   UNL     1       8.180  23.017  54.660  1.00  0.00     0.108 A 
HETATM    8  F   UNL     1       7.519  23.504  52.434  1.00  0.00    -0.202 F 
HETATM    9  C   UNL     1       8.014  23.236  56.029  1.00  0.00     0.043 A 
HETATM   10  C   UNL     1       7.084  24.166  56.483  1.00  0.00     0.046 A 
HETATM   11  C   UNL     1       6.307  24.874  55.569  1.00  0.00     0.135 A 
HETATM   12  F   UNL     1       5.422  25.746  56.071  1.00  0.00    -0.205 F 
BRANCH   7  13
HETATM   13  O   UNL     1       9.128  22.075  54.366  1.00  0.00    -0.348 OA
BRANCH  13  14
HETATM   14  C   UNL     1       8.720  20.709  54.328  1.00  0.00     0.171 C 
HETATM   15  C   UNL     1       8.473  20.341  52.876  1.00  0.00     0.034 C 
ENDBRANCH  13  14
ENDBRANCH   7  13
ENDBRANCH   1   5
BRANCH   2  16
HETATM   16  C   UNL     1       5.542  27.423  51.702  1.00  0.00     0.064 A 
HETATM   17  C   UNL     1       4.822  27.059  50.554  1.00  0.00     0.088 A 
HETATM   18  C   UNL     1       4.305  27.990  49.653  1.00  0.00     0.014 A 
HETATM   19  N   UNL     1       4.456  25.844  50.033  1.00  0.00    -0.275 N 
HETATM   20  C   UNL     1       3.673  27.219  48.652  1.00  0.00     0.152 A 
HETATM   21  C   UNL     1       4.494  29.363  49.885  1.00  0.00     0.015 A 
HETATM   22  N   UNL     1       3.764  25.908  48.879  1.00  0.00    -0.186 NA
HETATM   23  C   UNL     1       5.201  29.757  51.020  1.00  0.00     0.003 A 
HETATM   24  C   UNL     1       5.714  28.807  51.905  1.00  0.00     0.032 A 
HETATM   25  H   UNL     1       4.661  24.934  50.443  1.00  0.00     0.189 HD
ENDBRANCH   2  16
TORSDOF 4
ENDMDL
