MODEL 1
REMARK VINA RESULT:      -9.9      0.000      0.000
REMARK  7 active torsions:
REMARK  status: ('A' for Active; 'I' for Inactive)
REMARK    1  A    between atoms: C_6  and  N_7 
REMARK       I    between atoms: N_7  and  C_8 
REMARK       I    between atoms: C_8  and  N_9 
REMARK    2  A    between atoms: N_9  and  C_10 
REMARK    3  A    between atoms: C_10  and  C_11 
REMARK    4  A    between atoms: C_11  and  C_12 
REMARK    5  A    between atoms: C_12  and  C_13 
REMARK    6  A    between atoms: C_13  and  O_14 
REMARK    7  A    between atoms: O_14  and  C_15 
ROOT
HETATM    1  C   UNL     1       8.794  29.642  56.942  1.00  0.00     0.219 C 
ENDROOT
BRANCH   1   2
HETATM    2  N   UNL     1       8.867  30.273  58.232  1.00  0.00    -0.332 N 
HETATM    3  C   UNL     1       9.812  31.219  58.477  1.00  0.00     0.321 C 
HETATM    4  N   UNL     1       9.810  31.807  59.704  1.00  0.00    -0.309 N 
HETATM    5  O   UNL     1      10.686  31.524  57.667  1.00  0.00    -0.247 OA
HETATM    6  H   UNL     1      10.679  32.297  59.877  1.00  0.00     0.170 HD
HETATM    7  H   UNL     1       8.526  29.763  59.033  1.00  0.00     0.165 HD
BRANCH   4   8
HETATM    8  C   UNL     1       8.785  32.011  60.644  1.00  0.00     0.036 A 
HETATM    9  C   UNL     1       7.490  32.414  60.316  1.00  0.00     0.037 A 
HETATM   10  C   UNL     1       6.531  32.674  61.315  1.00  0.00    -0.054 A 
HETATM   11  C   UNL     1       6.877  32.503  62.668  1.00  0.00    -0.056 A 
HETATM   12  C   UNL     1       5.151  33.111  60.903  1.00  0.00     0.049 C 
HETATM   13  C   UNL     1       5.896  32.774  63.774  1.00  0.00     0.049 C 
HETATM   14  C   UNL     1       8.185  32.121  62.992  1.00  0.00     0.009 A 
HETATM   15  C   UNL     1       9.130  31.885  61.992  1.00  0.00     0.030 A 
ENDBRANCH   4   8
ENDBRANCH   1   2
BRANCH   1  16
HETATM   16  C   UNL     1       8.553  28.145  57.057  1.00  0.00    -0.085 C 
BRANCH  16  17
HETATM   17  C   UNL     1       8.347  26.862  57.157  1.00  0.00    -0.078 C 
BRANCH  17  18
HETATM   18  C   UNL     1       8.107  25.365  57.274  1.00  0.00     0.269 C 
BRANCH  18  19
HETATM   19  O   UNL     1       7.024  25.007  56.424  1.00  0.00    -0.337 OA
BRANCH  19  20
HETATM   20  C   UNL     1       7.329  24.487  55.183  1.00  0.00     0.099 A 
HETATM   21  C   UNL     1       7.573  23.136  54.852  1.00  0.00     0.100 A 
HETATM   22  C   UNL     1       7.875  22.849  53.498  1.00  0.00    -0.005 A 
HETATM   23  N   UNL     1       7.531  22.128  55.760  1.00  0.00    -0.257 NA
HETATM   24  C   UNL     1       8.127  21.521  53.124  1.00  0.00     0.015 A 
HETATM   25  C   UNL     1       7.926  23.866  52.532  1.00  0.00     0.014 A 
HETATM   26  C   UNL     1       8.078  20.508  54.069  1.00  0.00     0.020 A 
HETATM   27  C   UNL     1       7.778  20.860  55.365  1.00  0.00     0.117 A 
HETATM   28  C   UNL     1       7.681  25.187  52.883  1.00  0.00     0.004 A 
HETATM   29  C   UNL     1       7.384  25.493  54.203  1.00  0.00     0.039 A 
ENDBRANCH  19  20
ENDBRANCH  18  19
ENDBRANCH  17  18
ENDBRANCH  16  17
ENDBRANCH   1  16
TORSDOF 7
ENDMDL
MODEL 2
REMARK VINA RESULT:      -9.3      1.965      2.516
REMARK  7 active torsions:
REMARK  status: ('A' for Active; 'I' for Inactive)
REMARK    1  A    between atoms: C_6  and  N_7 
REMARK       I    between atoms: N_7  and  C_8 
REMARK       I    between atoms: C_8  and  N_9 
REMARK    2  A    between atoms: N_9  and  C_10 
REMARK    3  A    between atoms: C_10  and  C_11 
REMARK    4  A    between atoms: C_11  and  C_12 
REMARK    5  A    between atoms: C_12  and  C_13 
REMARK    6  A    between atoms: C_13  and  O_14 
REMARK    7  A    between atoms: O_14  and  C_15 
ROOT
HETATM    1  C   UNL     1       5.146  29.069  57.409  1.00  0.00     0.219 C 
ENDROOT
BRANCH   1   2
HETATM    2  N   UNL     1       5.705  30.217  58.069  1.00  0.00    -0.332 N 
HETATM    3  C   UNL     1       5.239  31.463  57.783  1.00  0.00     0.321 C 
HETATM    4  N   UNL     1       5.782  32.507  58.464  1.00  0.00    -0.309 N 
HETATM    5  O   UNL     1       4.398  31.685  56.914  1.00  0.00    -0.247 OA
HETATM    6  H   UNL     1       5.563  33.389  58.018  1.00  0.00     0.170 HD
HETATM    7  H   UNL     1       6.655  30.160  58.403  1.00  0.00     0.165 HD
BRANCH   4   8
HETATM    8  C   UNL     1       6.393  32.587  59.729  1.00  0.00     0.036 A 
HETATM    9  C   UNL     1       7.707  32.196  59.989  1.00  0.00     0.037 A 
HETATM   10  C   UNL     1       8.233  32.232  61.295  1.00  0.00    -0.054 A 
HETATM   11  C   UNL     1       7.428  32.691  62.355  1.00  0.00    -0.056 A 
HETATM   12  C   UNL     1       9.656  31.794  61.519  1.00  0.00     0.049 C 
HETATM   13  C   UNL     1       7.937  32.741  63.768  1.00  0.00     0.049 C 
HETATM   14  C   UNL     1       6.103  33.059  62.090  1.00  0.00     0.009 A 
HETATM   15  C   UNL     1       5.590  33.001  60.793  1.00  0.00     0.030 A 
ENDBRANCH   4   8
ENDBRANCH   1   2
BRANCH   1  16
HETATM   16  C   UNL     1       6.164  27.951  57.258  1.00  0.00    -0.085 C 
BRANCH  16  17
HETATM   17  C   UNL     1       7.039  26.993  57.129  1.00  0.00    -0.078 C 
BRANCH  17  18
HETATM   18  C   UNL     1       8.058  25.874  56.978  1.00  0.00     0.269 C 
BRANCH  18  19
HETATM   19  O   UNL     1       7.380  24.686  56.588  1.00  0.00    -0.337 OA
BRANCH  19  20
HETATM   20  C   UNL     1       7.548  24.250  55.290  1.00  0.00     0.099 A 
HETATM   21  C   UNL     1       7.725  22.921  54.844  1.00  0.00     0.100 A 
HETATM   22  C   UNL     1       7.884  22.725  53.450  1.00  0.00    -0.005 A 
HETATM   23  N   UNL     1       7.749  21.853  55.681  1.00  0.00    -0.257 NA
HETATM   24  C   UNL     1       8.066  21.422  52.963  1.00  0.00     0.015 A 
HETATM   25  C   UNL     1       7.863  23.807  52.556  1.00  0.00     0.014 A 
HETATM   26  C   UNL     1       8.087  20.347  53.837  1.00  0.00     0.020 A 
HETATM   27  C   UNL     1       7.926  20.611  55.177  1.00  0.00     0.117 A 
HETATM   28  C   UNL     1       7.686  25.103  53.019  1.00  0.00     0.004 A 
HETATM   29  C   UNL     1       7.530  25.321  54.380  1.00  0.00     0.039 A 
ENDBRANCH  19  20
ENDBRANCH  18  19
ENDBRANCH  17  18
ENDBRANCH  16  17
ENDBRANCH   1  16
TORSDOF 7
ENDMDL
MODEL 3
REMARK VINA RESULT:      -9.3      1.930     10.822
REMARK  7 active torsions:
REMARK  status: ('A' for Active; 'I' for Inactive)
REMARK    1  A    between atoms: C_6  and  N_7 
REMARK       I    between atoms: N_7  and  C_8 
REMARK       I    between atoms: C_8  and  N_9 
REMARK    2  A    between atoms: N_9  and  C_10 
REMARK    3  A    between atoms: C_10  and  C_11 
REMARK    4  A    between atoms: C_11  and  C_12 
REMARK    5  A    between atoms: C_12  and  C_13 
REMARK    6  A    between atoms: C_13  and  O_14 
REMARK    7  A    between atoms: O_14  and  C_15 
ROOT
HETATM    1  C   UNL     1       7.986  28.243  54.417  1.00  0.00     0.219 C 
ENDROOT
BRANCH   1   2
HETATM    2  N   UNL     1       7.580  26.882  54.635  1.00  0.00    -0.332 N 
HETATM    3  C   UNL     1       6.259  26.566  54.704  1.00  0.00     0.321 C 
HETATM    4  N   UNL     1       5.935  25.256  54.877  1.00  0.00    -0.309 N 
HETATM    5  O   UNL     1       5.363  27.407  54.669  1.00  0.00    -0.247 OA
HETATM    6  H   UNL     1       4.969  25.153  55.165  1.00  0.00     0.170 HD
HETATM    7  H   UNL     1       8.214  26.267  55.124  1.00  0.00     0.165 HD
BRANCH   4   8
HETATM    8  C   UNL     1       6.614  24.070  54.548  1.00  0.00     0.036 A 
HETATM    9  C   UNL     1       7.096  23.158  55.488  1.00  0.00     0.037 A 
HETATM   10  C   UNL     1       7.836  22.025  55.092  1.00  0.00    -0.054 A 
HETATM   11  C   UNL     1       8.075  21.797  53.724  1.00  0.00    -0.056 A 
HETATM   12  C   UNL     1       8.336  21.077  56.149  1.00  0.00     0.049 C 
HETATM   13  C   UNL     1       8.865  20.610  53.248  1.00  0.00     0.049 C 
HETATM   14  C   UNL     1       7.608  22.728  52.788  1.00  0.00     0.009 A 
HETATM   15  C   UNL     1       6.893  23.856  53.197  1.00  0.00     0.030 A 
ENDBRANCH   4   8
ENDBRANCH   1   2
BRANCH   1  16
HETATM   16  C   UNL     1       8.404  28.924  55.711  1.00  0.00    -0.085 C 
BRANCH  16  17
HETATM   17  C   UNL     1       8.762  29.508  56.820  1.00  0.00    -0.078 C 
BRANCH  17  18
HETATM   18  C   UNL     1       9.181  30.189  58.113  1.00  0.00     0.269 C 
BRANCH  18  19
HETATM   19  O   UNL     1       8.202  31.164  58.455  1.00  0.00    -0.337 OA
BRANCH  19  20
HETATM   20  C   UNL     1       8.164  31.600  59.763  1.00  0.00     0.099 A 
HETATM   21  C   UNL     1       7.131  32.322  60.400  1.00  0.00     0.100 A 
HETATM   22  C   UNL     1       7.326  32.664  61.760  1.00  0.00    -0.005 A 
HETATM   23  N   UNL     1       5.986  32.693  59.771  1.00  0.00    -0.257 NA
HETATM   24  C   UNL     1       6.327  33.384  62.432  1.00  0.00     0.015 A 
HETATM   25  C   UNL     1       8.497  32.296  62.442  1.00  0.00     0.014 A 
HETATM   26  C   UNL     1       5.167  33.752  61.769  1.00  0.00     0.020 A 
HETATM   27  C   UNL     1       5.044  33.386  60.449  1.00  0.00     0.117 A 
HETATM   28  C   UNL     1       9.498  31.584  61.795  1.00  0.00     0.004 A 
HETATM   29  C   UNL     1       9.329  31.239  60.461  1.00  0.00     0.039 A 
ENDBRANCH  19  20
ENDBRANCH  18  19
ENDBRANCH  17  18
ENDBRANCH  16  17
ENDBRANCH   1  16
TORSDOF 7
ENDMDL
MODEL 4
REMARK VINA RESULT:      -9.1      2.322      9.868
REMARK  7 active torsions:
REMARK  status: ('A' for Active; 'I' for Inactive)
REMARK    1  A    between atoms: C_6  and  N_7 
REMARK       I    between atoms: N_7  and  C_8 
REMARK       I    between atoms: C_8  and  N_9 
REMARK    2  A    between atoms: N_9  and  C_10 
REMARK    3  A    between atoms: C_10  and  C_11 
REMARK    4  A    between atoms: C_11  and  C_12 
REMARK    5  A    between atoms: C_12  and  C_13 
REMARK    6  A    between atoms: C_13  and  O_14 
REMARK    7  A    between atoms: O_14  and  C_15 
ROOT
HETATM    1  C   UNL     1       4.607  26.471  53.170  1.00  0.00     0.219 C 
ENDROOT
BRANCH   1   2
HETATM    2  N   UNL     1       5.463  25.316  53.163  1.00  0.00    -0.332 N 
HETATM    3  C   UNL     1       6.493  25.235  52.278  1.00  0.00     0.321 C 
HETATM    4  N   UNL     1       7.290  24.135  52.342  1.00  0.00    -0.309 N 
HETATM    5  O   UNL     1       6.700  26.077  51.406  1.00  0.00    -0.247 OA
HETATM    6  H   UNL     1       7.855  24.043  51.507  1.00  0.00     0.170 HD
HETATM    7  H   UNL     1       5.085  24.440  53.492  1.00  0.00     0.165 HD
BRANCH   4   8
HETATM    8  C   UNL     1       7.598  23.259  53.398  1.00  0.00     0.036 A 
HETATM    9  C   UNL     1       7.840  23.669  54.710  1.00  0.00     0.037 A 
HETATM   10  C   UNL     1       8.217  22.745  55.705  1.00  0.00    -0.054 A 
HETATM   11  C   UNL     1       8.332  21.381  55.377  1.00  0.00    -0.056 A 
HETATM   12  C   UNL     1       8.471  23.243  57.102  1.00  0.00     0.049 C 
HETATM   13  C   UNL     1       8.739  20.355  56.397  1.00  0.00     0.049 C 
HETATM   14  C   UNL     1       8.110  20.980  54.053  1.00  0.00     0.009 A 
HETATM   15  C   UNL     1       7.755  21.910  53.074  1.00  0.00     0.030 A 
ENDBRANCH   4   8
ENDBRANCH   1   2
BRANCH   1  16
HETATM   16  C   UNL     1       5.124  27.553  54.104  1.00  0.00    -0.085 C 
BRANCH  16  17
HETATM   17  C   UNL     1       5.569  28.481  54.905  1.00  0.00    -0.078 C 
BRANCH  17  18
HETATM   18  C   UNL     1       6.088  29.563  55.838  1.00  0.00     0.269 C 
BRANCH  18  19
HETATM   19  O   UNL     1       6.883  28.954  56.849  1.00  0.00    -0.337 OA
BRANCH  19  20
HETATM   20  C   UNL     1       8.072  29.568  57.184  1.00  0.00     0.099 A 
HETATM   21  C   UNL     1       8.303  30.479  58.239  1.00  0.00     0.100 A 
HETATM   22  C   UNL     1       9.619  30.982  58.379  1.00  0.00    -0.005 A 
HETATM   23  N   UNL     1       7.334  30.880  59.101  1.00  0.00    -0.257 NA
HETATM   24  C   UNL     1       9.894  31.892  59.411  1.00  0.00     0.015 A 
HETATM   25  C   UNL     1      10.646  30.589  57.507  1.00  0.00     0.014 A 
HETATM   26  C   UNL     1       8.888  32.287  60.279  1.00  0.00     0.020 A 
HETATM   27  C   UNL     1       7.634  31.757  60.084  1.00  0.00     0.117 A 
HETATM   28  C   UNL     1      10.394  29.691  56.478  1.00  0.00     0.004 A 
HETATM   29  C   UNL     1       9.112  29.185  56.320  1.00  0.00     0.039 A 
ENDBRANCH  19  20
ENDBRANCH  18  19
ENDBRANCH  17  18
ENDBRANCH  16  17
ENDBRANCH   1  16
TORSDOF 7
ENDMDL
MODEL 5
REMARK VINA RESULT:      -9.0      2.538      9.474
REMARK  7 active torsions:
REMARK  status: ('A' for Active; 'I' for Inactive)
REMARK    1  A    between atoms: C_6  and  N_7 
REMARK       I    between atoms: N_7  and  C_8 
REMARK       I    between atoms: C_8  and  N_9 
REMARK    2  A    between atoms: N_9  and  C_10 
REMARK    3  A    between atoms: C_10  and  C_11 
REMARK    4  A    between atoms: C_11  and  C_12 
REMARK    5  A    between atoms: C_12  and  C_13 
REMARK    6  A    between atoms: C_13  and  O_14 
REMARK    7  A    between atoms: O_14  and  C_15 
ROOT
HETATM    1  C   UNL     1       4.582  27.301  53.555  1.00  0.00     0.219 C 
ENDROOT
BRANCH   1   2
HETATM    2  N   UNL     1       5.615  26.304  53.500  1.00  0.00    -0.332 N 
HETATM    3  C   UNL     1       6.913  26.674  53.323  1.00  0.00     0.321 C 
HETATM    4  N   UNL     1       7.851  25.689  53.313  1.00  0.00    -0.309 N 
HETATM    5  O   UNL     1       7.260  27.837  53.125  1.00  0.00    -0.247 OA
HETATM    6  H   UNL     1       8.728  26.022  52.933  1.00  0.00     0.170 HD
HETATM    7  H   UNL     1       5.368  25.376  53.188  1.00  0.00     0.165 HD
BRANCH   4   8
HETATM    8  C   UNL     1       7.874  24.410  53.897  1.00  0.00     0.036 A 
HETATM    9  C   UNL     1       7.907  23.219  53.170  1.00  0.00     0.037 A 
HETATM   10  C   UNL     1       7.853  21.968  53.816  1.00  0.00    -0.054 A 
HETATM   11  C   UNL     1       7.786  21.916  55.221  1.00  0.00    -0.056 A 
HETATM   12  C   UNL     1       7.887  20.715  52.983  1.00  0.00     0.049 C 
HETATM   13  C   UNL     1       7.717  20.610  55.961  1.00  0.00     0.049 C 
HETATM   14  C   UNL     1       7.730  23.116  55.943  1.00  0.00     0.009 A 
HETATM   15  C   UNL     1       7.766  24.347  55.287  1.00  0.00     0.030 A 
ENDBRANCH   4   8
ENDBRANCH   1   2
BRANCH   1  16
HETATM   16  C   UNL     1       4.807  28.286  54.691  1.00  0.00    -0.085 C 
BRANCH  16  17
HETATM   17  C   UNL     1       5.000  29.131  55.665  1.00  0.00    -0.078 C 
BRANCH  17  18
HETATM   18  C   UNL     1       5.225  30.117  56.800  1.00  0.00     0.269 C 
BRANCH  18  19
HETATM   19  O   UNL     1       6.075  29.514  57.770  1.00  0.00    -0.337 OA
BRANCH  19  20
HETATM   20  C   UNL     1       7.161  30.242  58.209  1.00  0.00     0.099 A 
HETATM   21  C   UNL     1       8.509  30.099  57.815  1.00  0.00     0.100 A 
HETATM   22  C   UNL     1       9.453  30.967  58.417  1.00  0.00    -0.005 A 
HETATM   23  N   UNL     1       8.925  29.182  56.903  1.00  0.00    -0.257 NA
HETATM   24  C   UNL     1      10.805  30.858  58.057  1.00  0.00     0.015 A 
HETATM   25  C   UNL     1       9.059  31.927  59.363  1.00  0.00     0.014 A 
HETATM   26  C   UNL     1      11.205  29.915  57.124  1.00  0.00     0.020 A 
HETATM   27  C   UNL     1      10.235  29.106  56.579  1.00  0.00     0.117 A 
HETATM   28  C   UNL     1       7.727  32.049  59.733  1.00  0.00     0.004 A 
HETATM   29  C   UNL     1       6.784  31.208  59.158  1.00  0.00     0.039 A 
ENDBRANCH  19  20
ENDBRANCH  18  19
ENDBRANCH  17  18
ENDBRANCH  16  17
ENDBRANCH   1  16
TORSDOF 7
ENDMDL
MODEL 6
REMARK VINA RESULT:      -8.9      2.064     10.447
REMARK  7 active torsions:
REMARK  status: ('A' for Active; 'I' for Inactive)
REMARK    1  A    between atoms: C_6  and  N_7 
REMARK       I    between atoms: N_7  and  C_8 
REMARK       I    between atoms: C_8  and  N_9 
REMARK    2  A    between atoms: N_9  and  C_10 
REMARK    3  A    between atoms: C_10  and  C_11 
REMARK    4  A    between atoms: C_11  and  C_12 
REMARK    5  A    between atoms: C_12  and  C_13 
REMARK    6  A    between atoms: C_13  and  O_14 
REMARK    7  A    between atoms: O_14  and  C_15 
ROOT
HETATM    1  C   UNL     1       5.050  26.160  57.186  1.00  0.00     0.219 C 
ENDROOT
BRANCH   1   2
HETATM    2  N   UNL     1       6.133  25.455  56.555  1.00  0.00    -0.332 N 
HETATM    3  C   UNL     1       7.366  25.441  57.131  1.00  0.00     0.321 C 
HETATM    4  N   UNL     1       8.342  24.729  56.507  1.00  0.00    -0.309 N 
HETATM    5  O   UNL     1       7.642  26.076  58.147  1.00  0.00    -0.247 OA
HETATM    6  H   UNL     1       9.259  24.978  56.858  1.00  0.00     0.170 HD
HETATM    7  H   UNL     1       6.105  25.334  55.554  1.00  0.00     0.165 HD
BRANCH   4   8
HETATM    8  C   UNL     1       8.289  23.619  55.645  1.00  0.00     0.036 A 
HETATM    9  C   UNL     1       8.390  22.293  56.069  1.00  0.00     0.037 A 
HETATM   10  C   UNL     1       8.405  21.231  55.144  1.00  0.00    -0.054 A 
HETATM   11  C   UNL     1       8.293  21.507  53.769  1.00  0.00    -0.056 A 
HETATM   12  C   UNL     1       8.521  19.820  55.657  1.00  0.00     0.049 C 
HETATM   13  C   UNL     1       8.312  20.413  52.739  1.00  0.00     0.049 C 
HETATM   14  C   UNL     1       8.216  22.841  53.348  1.00  0.00     0.009 A 
HETATM   15  C   UNL     1       8.221  23.885  54.276  1.00  0.00     0.030 A 
ENDBRANCH   4   8
ENDBRANCH   1   2
BRANCH   1  16
HETATM   16  C   UNL     1       5.216  27.667  57.077  1.00  0.00    -0.085 C 
BRANCH  16  17
HETATM   17  C   UNL     1       5.358  28.960  56.982  1.00  0.00    -0.078 C 
BRANCH  17  18
HETATM   18  C   UNL     1       5.521  30.467  56.873  1.00  0.00     0.269 C 
BRANCH  18  19
HETATM   19  O   UNL     1       6.704  30.851  57.564  1.00  0.00    -0.337 OA
BRANCH  19  20
HETATM   20  C   UNL     1       6.557  31.545  58.747  1.00  0.00     0.099 A 
HETATM   21  C   UNL     1       7.374  31.470  59.897  1.00  0.00     0.100 A 
HETATM   22  C   UNL     1       7.013  32.283  60.999  1.00  0.00    -0.005 A 
HETATM   23  N   UNL     1       8.465  30.666  59.983  1.00  0.00    -0.257 NA
HETATM   24  C   UNL     1       7.794  32.238  62.163  1.00  0.00     0.015 A 
HETATM   25  C   UNL     1       5.892  33.126  60.945  1.00  0.00     0.014 A 
HETATM   26  C   UNL     1       8.904  31.410  62.227  1.00  0.00     0.020 A 
HETATM   27  C   UNL     1       9.196  30.649  61.120  1.00  0.00     0.117 A 
HETATM   28  C   UNL     1       5.105  33.183  59.803  1.00  0.00     0.004 A 
HETATM   29  C   UNL     1       5.438  32.395  58.710  1.00  0.00     0.039 A 
ENDBRANCH  19  20
ENDBRANCH  18  19
ENDBRANCH  17  18
ENDBRANCH  16  17
ENDBRANCH   1  16
TORSDOF 7
ENDMDL
MODEL 7
REMARK VINA RESULT:      -8.8      2.767     11.246
REMARK  7 active torsions:
REMARK  status: ('A' for Active; 'I' for Inactive)
REMARK    1  A    between atoms: C_6  and  N_7 
REMARK       I    between atoms: N_7  and  C_8 
REMARK       I    between atoms: C_8  and  N_9 
REMARK    2  A    between atoms: N_9  and  C_10 
REMARK    3  A    between atoms: C_10  and  C_11 
REMARK    4  A    between atoms: C_11  and  C_12 
REMARK    5  A    between atoms: C_12  and  C_13 
REMARK    6  A    between atoms: C_13  and  O_14 
REMARK    7  A    between atoms: O_14  and  C_15 
ROOT
HETATM    1  C   UNL     1       6.167  30.017  56.050  1.00  0.00     0.219 C 
ENDROOT
BRANCH   1   2
HETATM    2  N   UNL     1       6.111  28.581  56.008  1.00  0.00    -0.332 N 
HETATM    3  C   UNL     1       4.909  27.945  55.969  1.00  0.00     0.321 C 
HETATM    4  N   UNL     1       4.919  26.587  55.894  1.00  0.00    -0.309 N 
HETATM    5  O   UNL     1       3.832  28.534  56.048  1.00  0.00    -0.247 OA
HETATM    6  H   UNL     1       4.011  26.201  56.121  1.00  0.00     0.170 HD
HETATM    7  H   UNL     1       6.880  28.061  56.404  1.00  0.00     0.165 HD
BRANCH   4   8
HETATM    8  C   UNL     1       5.869  25.682  55.386  1.00  0.00     0.036 A 
HETATM    9  C   UNL     1       6.329  25.688  54.069  1.00  0.00     0.037 A 
HETATM   10  C   UNL     1       7.226  24.706  53.605  1.00  0.00    -0.054 A 
HETATM   11  C   UNL     1       7.684  23.712  54.490  1.00  0.00    -0.056 A 
HETATM   12  C   UNL     1       7.686  24.757  52.173  1.00  0.00     0.049 C 
HETATM   13  C   UNL     1       8.633  22.635  54.046  1.00  0.00     0.049 C 
HETATM   14  C   UNL     1       7.199  23.698  55.805  1.00  0.00     0.009 A 
HETATM   15  C   UNL     1       6.297  24.668  56.244  1.00  0.00     0.030 A 
ENDBRANCH   4   8
ENDBRANCH   1   2
BRANCH   1  16
HETATM   16  C   UNL     1       6.590  30.526  57.418  1.00  0.00    -0.085 C 
BRANCH  16  17
HETATM   17  C   UNL     1       6.953  30.963  58.592  1.00  0.00    -0.078 C 
BRANCH  17  18
HETATM   18  C   UNL     1       7.375  31.474  59.960  1.00  0.00     0.269 C 
BRANCH  18  19
HETATM   19  O   UNL     1       6.260  32.104  60.579  1.00  0.00    -0.337 OA
BRANCH  19  20
HETATM   20  C   UNL     1       6.407  32.529  61.884  1.00  0.00     0.099 A 
HETATM   21  C   UNL     1       5.430  33.129  62.708  1.00  0.00     0.100 A 
HETATM   22  C   UNL     1       5.826  33.485  64.021  1.00  0.00    -0.005 A 
HETATM   23  N   UNL     1       4.159  33.373  62.300  1.00  0.00    -0.257 NA
HETATM   24  C   UNL     1       4.890  34.088  64.875  1.00  0.00     0.015 A 
HETATM   25  C   UNL     1       7.132  33.248  64.477  1.00  0.00     0.014 A 
HETATM   26  C   UNL     1       3.597  34.327  64.435  1.00  0.00     0.020 A 
HETATM   27  C   UNL     1       3.282  33.954  63.149  1.00  0.00     0.117 A 
HETATM   28  C   UNL     1       8.074  32.655  63.647  1.00  0.00     0.004 A 
HETATM   29  C   UNL     1       7.710  32.298  62.357  1.00  0.00     0.039 A 
ENDBRANCH  19  20
ENDBRANCH  18  19
ENDBRANCH  17  18
ENDBRANCH  16  17
ENDBRANCH   1  16
TORSDOF 7
ENDMDL
MODEL 8
REMARK VINA RESULT:      -8.6      5.046      9.373
REMARK  7 active torsions:
REMARK  status: ('A' for Active; 'I' for Inactive)
REMARK    1  A    between atoms: C_6  and  N_7 
REMARK       I    between atoms: N_7  and  C_8 
REMARK       I    between atoms: C_8  and  N_9 
REMARK    2  A    between atoms: N_9  and  C_10 
REMARK    3  A    between atoms: C_10  and  C_11 
REMARK    4  A    between atoms: C_11  and  C_12 
REMARK    5  A    between atoms: C_12  and  C_13 
REMARK    6  A    between atoms: C_13  and  O_14 
REMARK    7  A    between atoms: O_14  and  C_15 
ROOT
HETATM    1  C   UNL     1       5.326  27.244  56.588  1.00  0.00     0.219 C 
ENDROOT
BRANCH   1   2
HETATM    2  N   UNL     1       6.319  26.279  56.200  1.00  0.00    -0.332 N 
HETATM    3  C   UNL     1       7.406  26.064  56.988  1.00  0.00     0.321 C 
HETATM    4  N   UNL     1       8.294  25.115  56.588  1.00  0.00    -0.309 N 
HETATM    5  O   UNL     1       7.642  26.717  58.003  1.00  0.00    -0.247 OA
HETATM    6  H   UNL     1       9.172  25.201  57.085  1.00  0.00     0.170 HD
HETATM    7  H   UNL     1       6.431  26.077  55.217  1.00  0.00     0.165 HD
BRANCH   4   8
HETATM    8  C   UNL     1       8.144  23.967  55.790  1.00  0.00     0.036 A 
HETATM    9  C   UNL     1       8.097  22.665  56.291  1.00  0.00     0.037 A 
HETATM   10  C   UNL     1       8.021  21.554  55.429  1.00  0.00    -0.054 A 
HETATM   11  C   UNL     1       7.969  21.758  54.038  1.00  0.00    -0.056 A 
HETATM   12  C   UNL     1       7.978  20.172  56.024  1.00  0.00     0.049 C 
HETATM   13  C   UNL     1       7.896  20.608  53.072  1.00  0.00     0.049 C 
HETATM   14  C   UNL     1       8.040  23.065  53.540  1.00  0.00     0.009 A 
HETATM   15  C   UNL     1       8.135  24.156  54.406  1.00  0.00     0.030 A 
ENDBRANCH   4   8
ENDBRANCH   1   2
BRANCH   1  16
HETATM   16  C   UNL     1       4.692  27.919  55.382  1.00  0.00    -0.085 C 
BRANCH  16  17
HETATM   17  C   UNL     1       4.148  28.499  54.348  1.00  0.00    -0.078 C 
BRANCH  17  18
HETATM   18  C   UNL     1       3.512  29.174  53.144  1.00  0.00     0.269 C 
BRANCH  18  19
HETATM   19  O   UNL     1       4.468  29.228  52.091  1.00  0.00    -0.337 OA
BRANCH  19  20
HETATM   20  C   UNL     1       4.307  28.353  51.036  1.00  0.00     0.099 A 
HETATM   21  C   UNL     1       3.538  28.545  49.868  1.00  0.00     0.100 A 
HETATM   22  C   UNL     1       3.526  27.489  48.923  1.00  0.00    -0.005 A 
HETATM   23  N   UNL     1       2.826  29.675  49.623  1.00  0.00    -0.257 NA
HETATM   24  C   UNL     1       2.771  27.635  47.749  1.00  0.00     0.015 A 
HETATM   25  C   UNL     1       4.250  26.307  49.143  1.00  0.00     0.014 A 
HETATM   26  C   UNL     1       2.053  28.798  47.522  1.00  0.00     0.020 A 
HETATM   27  C   UNL     1       2.111  29.781  48.481  1.00  0.00     0.117 A 
HETATM   28  C   UNL     1       5.000  26.143  50.300  1.00  0.00     0.004 A 
HETATM   29  C   UNL     1       5.027  27.163  51.240  1.00  0.00     0.039 A 
ENDBRANCH  19  20
ENDBRANCH  18  19
ENDBRANCH  17  18
ENDBRANCH  16  17
ENDBRANCH   1  16
TORSDOF 7
ENDMDL
MODEL 9
REMARK VINA RESULT:      -8.5      2.103     10.706
REMARK  7 active torsions:
REMARK  status: ('A' for Active; 'I' for Inactive)
REMARK    1  A    between atoms: C_6  and  N_7 
REMARK       I    between atoms: N_7  and  C_8 
REMARK       I    between atoms: C_8  and  N_9 
REMARK    2  A    between atoms: N_9  and  C_10 
REMARK    3  A    between atoms: C_10  and  C_11 
REMARK    4  A    between atoms: C_11  and  C_12 
REMARK    5  A    between atoms: C_12  and  C_13 
REMARK    6  A    between atoms: C_13  and  O_14 
REMARK    7  A    between atoms: O_14  and  C_15 
ROOT
HETATM    1  C   UNL     1       9.043  28.569  57.020  1.00  0.00     0.219 C 
ENDROOT
BRANCH   1   2
HETATM    2  N   UNL     1       8.420  27.347  56.588  1.00  0.00    -0.332 N 
HETATM    3  C   UNL     1       7.600  27.346  55.503  1.00  0.00     0.321 C 
HETATM    4  N   UNL     1       7.067  26.154  55.120  1.00  0.00    -0.309 N 
HETATM    5  O   UNL     1       7.284  28.367  54.896  1.00  0.00    -0.247 OA
HETATM    6  H   UNL     1       6.293  26.287  54.482  1.00  0.00     0.170 HD
HETATM    7  H   UNL     1       8.257  26.625  57.274  1.00  0.00     0.165 HD
BRANCH   4   8
HETATM    8  C   UNL     1       7.511  24.830  55.289  1.00  0.00     0.036 A 
HETATM    9  C   UNL     1       7.668  23.918  54.245  1.00  0.00     0.037 A 
HETATM   10  C   UNL     1       8.044  22.583  54.494  1.00  0.00    -0.054 A 
HETATM   11  C   UNL     1       8.288  22.166  55.816  1.00  0.00    -0.056 A 
HETATM   12  C   UNL     1       8.194  21.640  53.330  1.00  0.00     0.049 C 
HETATM   13  C   UNL     1       8.683  20.752  56.138  1.00  0.00     0.049 C 
HETATM   14  C   UNL     1       8.106  23.081  56.861  1.00  0.00     0.009 A 
HETATM   15  C   UNL     1       7.714  24.395  56.600  1.00  0.00     0.030 A 
ENDBRANCH   4   8
ENDBRANCH   1   2
BRANCH   1  16
HETATM   16  C   UNL     1       8.029  29.551  57.585  1.00  0.00    -0.085 C 
BRANCH  16  17
HETATM   17  C   UNL     1       7.160  30.393  58.071  1.00  0.00    -0.078 C 
BRANCH  17  18
HETATM   18  C   UNL     1       6.148  31.376  58.637  1.00  0.00     0.269 C 
BRANCH  18  19
HETATM   19  O   UNL     1       6.845  32.501  59.161  1.00  0.00    -0.337 OA
BRANCH  19  20
HETATM   20  C   UNL     1       7.200  32.469  60.494  1.00  0.00     0.099 A 
HETATM   21  C   UNL     1       6.395  32.798  61.607  1.00  0.00     0.100 A 
HETATM   22  C   UNL     1       6.991  32.691  62.887  1.00  0.00    -0.005 A 
HETATM   23  N   UNL     1       5.104  33.203  61.497  1.00  0.00    -0.257 NA
HETATM   24  C   UNL     1       6.230  33.011  64.021  1.00  0.00     0.015 A 
HETATM   25  C   UNL     1       8.324  32.275  63.038  1.00  0.00     0.014 A 
HETATM   26  C   UNL     1       4.914  33.423  63.885  1.00  0.00     0.020 A 
HETATM   27  C   UNL     1       4.400  33.503  62.611  1.00  0.00     0.117 A 
HETATM   28  C   UNL     1       9.094  31.956  61.928  1.00  0.00     0.004 A 
HETATM   29  C   UNL     1       8.532  32.054  60.663  1.00  0.00     0.039 A 
ENDBRANCH  19  20
ENDBRANCH  18  19
ENDBRANCH  17  18
ENDBRANCH  16  17
ENDBRANCH   1  16
TORSDOF 7
ENDMDL
MODEL 10
REMARK VINA RESULT:      -8.5      2.757     10.700
REMARK  7 active torsions:
REMARK  status: ('A' for Active; 'I' for Inactive)
REMARK    1  A    between atoms: C_6  and  N_7 
REMARK       I    between atoms: N_7  and  C_8 
REMARK       I    between atoms: C_8  and  N_9 
REMARK    2  A    between atoms: N_9  and  C_10 
REMARK    3  A    between atoms: C_10  and  C_11 
REMARK    4  A    between atoms: C_11  and  C_12 
REMARK    5  A    between atoms: C_12  and  C_13 
REMARK    6  A    between atoms: C_13  and  O_14 
REMARK    7  A    between atoms: O_14  and  C_15 
ROOT
HETATM    1  C   UNL     1       4.805  29.572  55.229  1.00  0.00     0.219 C 
ENDROOT
BRANCH   1   2
HETATM    2  N   UNL     1       4.898  28.154  55.010  1.00  0.00    -0.332 N 
HETATM    3  C   UNL     1       4.328  27.594  53.909  1.00  0.00     0.321 C 
HETATM    4  N   UNL     1       4.479  26.254  53.737  1.00  0.00    -0.309 N 
HETATM    5  O   UNL     1       3.650  28.231  53.104  1.00  0.00    -0.247 OA
HETATM    6  H   UNL     1       3.826  25.897  53.050  1.00  0.00     0.170 HD
HETATM    7  H   UNL     1       5.006  27.553  55.813  1.00  0.00     0.165 HD
BRANCH   4   8
HETATM    8  C   UNL     1       5.469  25.357  54.176  1.00  0.00     0.036 A 
HETATM    9  C   UNL     1       6.180  24.502  53.333  1.00  0.00     0.037 A 
HETATM   10  C   UNL     1       7.106  23.574  53.848  1.00  0.00    -0.054 A 
HETATM   11  C   UNL     1       7.336  23.521  55.236  1.00  0.00    -0.056 A 
HETATM   12  C   UNL     1       7.843  22.673  52.894  1.00  0.00     0.049 C 
HETATM   13  C   UNL     1       8.306  22.544  55.840  1.00  0.00     0.049 C 
HETATM   14  C   UNL     1       6.601  24.365  56.079  1.00  0.00     0.009 A 
HETATM   15  C   UNL     1       5.673  25.267  55.554  1.00  0.00     0.030 A 
ENDBRANCH   4   8
ENDBRANCH   1   2
BRANCH   1  16
HETATM   16  C   UNL     1       5.793  30.048  56.281  1.00  0.00    -0.085 C 
BRANCH  16  17
HETATM   17  C   UNL     1       6.641  30.457  57.184  1.00  0.00    -0.078 C 
BRANCH  17  18
HETATM   18  C   UNL     1       7.630  30.933  58.235  1.00  0.00     0.269 C 
BRANCH  18  19
HETATM   19  O   UNL     1       7.056  32.023  58.946  1.00  0.00    -0.337 OA
BRANCH  19  20
HETATM   20  C   UNL     1       7.356  32.143  60.287  1.00  0.00     0.099 A 
HETATM   21  C   UNL     1       6.475  32.474  61.340  1.00  0.00     0.100 A 
HETATM   22  C   UNL     1       7.025  32.540  62.644  1.00  0.00    -0.005 A 
HETATM   23  N   UNL     1       5.154  32.726  61.154  1.00  0.00    -0.257 NA
HETATM   24  C   UNL     1       6.188  32.870  63.720  1.00  0.00     0.015 A 
HETATM   25  C   UNL     1       8.387  32.286  62.874  1.00  0.00     0.014 A 
HETATM   26  C   UNL     1       4.842  33.123  63.505  1.00  0.00     0.020 A 
HETATM   27  C   UNL     1       4.376  33.039  62.214  1.00  0.00     0.117 A 
HETATM   28  C   UNL     1       9.232  31.960  61.821  1.00  0.00     0.004 A 
HETATM   29  C   UNL     1       8.716  31.890  60.535  1.00  0.00     0.039 A 
ENDBRANCH  19  20
ENDBRANCH  18  19
ENDBRANCH  17  18
ENDBRANCH  16  17
ENDBRANCH   1  16
TORSDOF 7
ENDMDL
