MODEL 1
REMARK VINA RESULT:      -8.7      0.000      0.000
REMARK  7 active torsions:
REMARK  status: ('A' for Active; 'I' for Inactive)
REMARK    1  A    between atoms: C_4  and  C_5 
REMARK    2  A    between atoms: C_5  and  O_6 
REMARK    3  A    between atoms: C_5  and  C_7 
REMARK    4  A    between atoms: C_7  and  N_8 
REMARK       I    between atoms: N_8  and  C_9 
REMARK    5  A    between atoms: N_8  and  C_20 
REMARK    6  A    between atoms: C_9  and  C_10 
REMARK    7  A    between atoms: C_14  and  C_15 
ROOT
HETATM    1  N   UNL     1       7.793  24.343  54.743  1.00  0.00    -0.339 N 
HETATM    2  C   UNL     1       7.742  25.171  53.596  1.00  0.00     0.274 C 
HETATM    3  O   UNL     1       8.135  24.754  52.503  1.00  0.00    -0.266 OA
ENDROOT
BRANCH   1   4
HETATM    4  C   UNL     1       7.234  24.739  56.058  1.00  0.00     0.163 C 
BRANCH   4   5
HETATM    5  C   UNL     1       8.200  25.542  56.959  1.00  0.00     0.169 C 
BRANCH   5   6
HETATM    6  C   UNL     1       7.717  26.969  57.137  1.00  0.00    -0.028 A 
HETATM    7  C   UNL     1       8.639  28.025  57.181  1.00  0.00     0.010 A 
HETATM    8  C   UNL     1       8.204  29.345  57.317  1.00  0.00     0.001 A 
HETATM    9  C   UNL     1       6.842  29.626  57.408  1.00  0.00     0.000 A 
HETATM   10  C   UNL     1       5.914  28.588  57.367  1.00  0.00     0.001 A 
HETATM   11  C   UNL     1       6.348  27.269  57.231  1.00  0.00     0.010 A 
ENDBRANCH   5   6
BRANCH   5  12
HETATM   12  O   UNL     1       8.275  24.951  58.262  1.00  0.00    -0.389 OA
HETATM   13  H   UNL     1       8.988  24.291  58.214  1.00  0.00     0.210 HD
ENDBRANCH   5  12
ENDBRANCH   4   5
ENDBRANCH   1   4
BRANCH   1  14
HETATM   14  C   UNL     1       8.392  22.998  54.554  1.00  0.00     0.087 C 
HETATM   15  C   UNL     1       7.740  22.111  53.478  1.00  0.00     0.025 C 
HETATM   16  C   UNL     1       8.499  20.796  53.300  1.00  0.00     0.002 C 
HETATM   17  C   UNL     1       8.626  20.040  54.618  1.00  0.00     0.000 C 
HETATM   18  C   UNL     1       9.259  20.906  55.703  1.00  0.00     0.002 C 
HETATM   19  C   UNL     1       8.512  22.227  55.884  1.00  0.00     0.025 C 
ENDBRANCH   1  14
BRANCH   2  20
HETATM   20  C   UNL     1       7.170  26.536  53.666  1.00  0.00     0.146 A 
HETATM   21  N   UNL     1       7.884  27.679  53.735  1.00  0.00    -0.169 NA
HETATM   22  N   UNL     1       6.956  28.651  53.783  1.00  0.00    -0.281 N 
HETATM   23  H   UNL     1       7.265  29.614  53.862  1.00  0.00     0.189 HD
HETATM   24  C   UNL     1       5.677  28.191  53.720  1.00  0.00     0.034 A 
HETATM   25  C   UNL     1       5.775  26.828  53.611  1.00  0.00     0.066 A 
BRANCH  24  26
HETATM   26  C   UNL     1       4.396  28.990  53.766  1.00  0.00     0.037 A 
HETATM   27  C   UNL     1       4.084  29.919  52.613  1.00  0.00     0.011 A 
HETATM   28  C   UNL     1       3.293  28.668  52.781  1.00  0.00     0.011 A 
ENDBRANCH  24  26
ENDBRANCH   2  20
TORSDOF 7
ENDMDL
MODEL 2
REMARK VINA RESULT:      -8.3      2.953      5.998
REMARK  7 active torsions:
REMARK  status: ('A' for Active; 'I' for Inactive)
REMARK    1  A    between atoms: C_4  and  C_5 
REMARK    2  A    between atoms: C_5  and  O_6 
REMARK    3  A    between atoms: C_5  and  C_7 
REMARK    4  A    between atoms: C_7  and  N_8 
REMARK       I    between atoms: N_8  and  C_9 
REMARK    5  A    between atoms: N_8  and  C_20 
REMARK    6  A    between atoms: C_9  and  C_10 
REMARK    7  A    between atoms: C_14  and  C_15 
ROOT
HETATM    1  N   UNL     1       6.189  26.844  53.701  1.00  0.00    -0.339 N 
HETATM    2  C   UNL     1       5.694  27.608  52.618  1.00  0.00     0.274 C 
HETATM    3  O   UNL     1       5.752  28.840  52.640  1.00  0.00    -0.266 OA
ENDROOT
BRANCH   1   4
HETATM    4  C   UNL     1       6.254  25.363  53.690  1.00  0.00     0.163 C 
BRANCH   4   5
HETATM    5  C   UNL     1       7.627  24.777  53.289  1.00  0.00     0.169 C 
BRANCH   5   6
HETATM    6  C   UNL     1       7.771  23.347  53.778  1.00  0.00    -0.028 A 
HETATM    7  C   UNL     1       7.668  23.057  55.147  1.00  0.00     0.010 A 
HETATM    8  C   UNL     1       7.772  21.742  55.604  1.00  0.00     0.001 A 
HETATM    9  C   UNL     1       7.977  20.701  54.701  1.00  0.00     0.000 A 
HETATM   10  C   UNL     1       8.083  20.974  53.339  1.00  0.00     0.001 A 
HETATM   11  C   UNL     1       7.979  22.288  52.880  1.00  0.00     0.010 A 
ENDBRANCH   5   6
BRANCH   5  12
HETATM   12  O   UNL     1       7.764  24.756  51.863  1.00  0.00    -0.389 OA
HETATM   13  H   UNL     1       8.487  24.135  51.675  1.00  0.00     0.210 HD
ENDBRANCH   5  12
ENDBRANCH   4   5
ENDBRANCH   1   4
BRANCH   1  14
HETATM   14  C   UNL     1       6.714  27.612  54.859  1.00  0.00     0.087 C 
HETATM   15  C   UNL     1       8.121  28.212  54.691  1.00  0.00     0.025 C 
HETATM   16  C   UNL     1       8.514  29.063  55.898  1.00  0.00     0.002 C 
HETATM   17  C   UNL     1       8.417  28.271  57.198  1.00  0.00     0.000 C 
HETATM   18  C   UNL     1       7.033  27.656  57.377  1.00  0.00     0.002 C 
HETATM   19  C   UNL     1       6.625  26.809  56.172  1.00  0.00     0.025 C 
ENDBRANCH   1  14
BRANCH   2  20
HETATM   20  C   UNL     1       5.141  26.950  51.410  1.00  0.00     0.146 A 
HETATM   21  N   UNL     1       4.625  25.705  51.367  1.00  0.00    -0.169 NA
HETATM   22  N   UNL     1       4.257  25.539  50.084  1.00  0.00    -0.281 N 
HETATM   23  H   UNL     1       3.856  24.651  49.805  1.00  0.00     0.189 HD
HETATM   24  C   UNL     1       4.487  26.629  49.304  1.00  0.00     0.034 A 
HETATM   25  C   UNL     1       5.029  27.576  50.133  1.00  0.00     0.066 A 
BRANCH  24  26
HETATM   26  C   UNL     1       4.219  26.791  47.825  1.00  0.00     0.037 A 
HETATM   27  C   UNL     1       2.912  26.267  47.268  1.00  0.00     0.011 A 
HETATM   28  C   UNL     1       3.126  27.738  47.376  1.00  0.00     0.011 A 
ENDBRANCH  24  26
ENDBRANCH   2  20
TORSDOF 7
ENDMDL
MODEL 3
REMARK VINA RESULT:      -8.2      1.882      6.838
REMARK  7 active torsions:
REMARK  status: ('A' for Active; 'I' for Inactive)
REMARK    1  A    between atoms: C_4  and  C_5 
REMARK    2  A    between atoms: C_5  and  O_6 
REMARK    3  A    between atoms: C_5  and  C_7 
REMARK    4  A    between atoms: C_7  and  N_8 
REMARK       I    between atoms: N_8  and  C_9 
REMARK    5  A    between atoms: N_8  and  C_20 
REMARK    6  A    between atoms: C_9  and  C_10 
REMARK    7  A    between atoms: C_14  and  C_15 
ROOT
HETATM    1  N   UNL     1       8.020  27.069  56.512  1.00  0.00    -0.339 N 
HETATM    2  C   UNL     1       8.109  25.782  57.097  1.00  0.00     0.274 C 
HETATM    3  O   UNL     1       8.329  25.655  58.304  1.00  0.00    -0.266 OA
ENDROOT
BRANCH   1   4
HETATM    4  C   UNL     1       7.645  27.295  55.096  1.00  0.00     0.163 C 
BRANCH   4   5
HETATM    5  C   UNL     1       6.129  27.463  54.845  1.00  0.00     0.169 C 
BRANCH   5   6
HETATM    6  C   UNL     1       5.736  26.895  53.494  1.00  0.00    -0.028 A 
HETATM    7  C   UNL     1       5.807  27.697  52.345  1.00  0.00     0.010 A 
HETATM    8  C   UNL     1       5.474  27.177  51.093  1.00  0.00     0.001 A 
HETATM    9  C   UNL     1       5.068  25.849  50.973  1.00  0.00     0.000 A 
HETATM   10  C   UNL     1       4.992  25.041  52.105  1.00  0.00     0.001 A 
HETATM   11  C   UNL     1       5.325  25.560  53.356  1.00  0.00     0.010 A 
ENDBRANCH   5   6
BRANCH   5  12
HETATM   12  O   UNL     1       5.377  26.758  55.840  1.00  0.00    -0.389 OA
HETATM   13  H   UNL     1       5.492  25.814  55.640  1.00  0.00     0.210 HD
ENDBRANCH   5  12
ENDBRANCH   4   5
ENDBRANCH   1   4
BRANCH   1  14
HETATM   14  C   UNL     1       8.265  28.219  57.420  1.00  0.00     0.087 C 
HETATM   15  C   UNL     1       7.080  29.177  57.633  1.00  0.00     0.025 C 
HETATM   16  C   UNL     1       7.413  30.260  58.659  1.00  0.00     0.002 C 
HETATM   17  C   UNL     1       8.670  31.032  58.272  1.00  0.00     0.000 C 
HETATM   18  C   UNL     1       9.854  30.098  58.043  1.00  0.00     0.002 C 
HETATM   19  C   UNL     1       9.530  29.007  57.023  1.00  0.00     0.025 C 
ENDBRANCH   1  14
BRANCH   2  20
HETATM   20  C   UNL     1       7.889  24.560  56.288  1.00  0.00     0.146 A 
HETATM   21  N   UNL     1       6.689  24.003  56.027  1.00  0.00    -0.169 NA
HETATM   22  N   UNL     1       6.976  22.927  55.273  1.00  0.00    -0.281 N 
HETATM   23  H   UNL     1       6.214  22.330  54.969  1.00  0.00     0.189 HD
HETATM   24  C   UNL     1       8.303  22.780  55.012  1.00  0.00     0.034 A 
HETATM   25  C   UNL     1       8.924  23.837  55.626  1.00  0.00     0.066 A 
BRANCH  24  26
HETATM   26  C   UNL     1       8.981  21.687  54.220  1.00  0.00     0.037 A 
HETATM   27  C   UNL     1       8.702  20.247  54.593  1.00  0.00     0.011 A 
HETATM   28  C   UNL     1       8.144  20.798  53.326  1.00  0.00     0.011 A 
ENDBRANCH  24  26
ENDBRANCH   2  20
TORSDOF 7
ENDMDL
MODEL 4
REMARK VINA RESULT:      -8.0      2.677      3.487
REMARK  7 active torsions:
REMARK  status: ('A' for Active; 'I' for Inactive)
REMARK    1  A    between atoms: C_4  and  C_5 
REMARK    2  A    between atoms: C_5  and  O_6 
REMARK    3  A    between atoms: C_5  and  C_7 
REMARK    4  A    between atoms: C_7  and  N_8 
REMARK       I    between atoms: N_8  and  C_9 
REMARK    5  A    between atoms: N_8  and  C_20 
REMARK    6  A    between atoms: C_9  and  C_10 
REMARK    7  A    between atoms: C_14  and  C_15 
ROOT
HETATM    1  N   UNL     1       6.590  25.369  52.994  1.00  0.00    -0.339 N 
HETATM    2  C   UNL     1       5.398  25.439  52.235  1.00  0.00     0.274 C 
HETATM    3  O   UNL     1       4.623  24.479  52.192  1.00  0.00    -0.266 OA
ENDROOT
BRANCH   1   4
HETATM    4  C   UNL     1       7.504  26.521  53.182  1.00  0.00     0.163 C 
BRANCH   4   5
HETATM    5  C   UNL     1       6.895  27.714  53.952  1.00  0.00     0.169 C 
BRANCH   5   6
HETATM    6  C   UNL     1       7.791  28.131  55.103  1.00  0.00    -0.028 A 
HETATM    7  C   UNL     1       8.889  28.975  54.872  1.00  0.00     0.010 A 
HETATM    8  C   UNL     1       9.704  29.387  55.928  1.00  0.00     0.001 A 
HETATM    9  C   UNL     1       9.432  28.964  57.227  1.00  0.00     0.000 A 
HETATM   10  C   UNL     1       8.347  28.126  57.472  1.00  0.00     0.001 A 
HETATM   11  C   UNL     1       7.531  27.713  56.418  1.00  0.00     0.010 A 
ENDBRANCH   5   6
BRANCH   5  12
HETATM   12  O   UNL     1       6.754  28.847  53.088  1.00  0.00    -0.389 OA
HETATM   13  H   UNL     1       6.055  29.396  53.481  1.00  0.00     0.210 HD
ENDBRANCH   5  12
ENDBRANCH   4   5
ENDBRANCH   1   4
BRANCH   1  14
HETATM   14  C   UNL     1       6.864  24.073  53.666  1.00  0.00     0.087 C 
HETATM   15  C   UNL     1       7.383  24.157  55.113  1.00  0.00     0.025 C 
HETATM   16  C   UNL     1       7.531  22.769  55.736  1.00  0.00     0.002 C 
HETATM   17  C   UNL     1       8.426  21.868  54.892  1.00  0.00     0.000 C 
HETATM   18  C   UNL     1       7.936  21.782  53.450  1.00  0.00     0.002 C 
HETATM   19  C   UNL     1       7.777  23.165  52.819  1.00  0.00     0.025 C 
ENDBRANCH   1  14
BRANCH   2  20
HETATM   20  C   UNL     1       5.022  26.679  51.516  1.00  0.00     0.146 A 
HETATM   21  N   UNL     1       4.302  27.694  52.035  1.00  0.00    -0.169 NA
HETATM   22  N   UNL     1       4.209  28.586  51.032  1.00  0.00    -0.281 N 
HETATM   23  H   UNL     1       3.682  29.438  51.188  1.00  0.00     0.189 HD
HETATM   24  C   UNL     1       4.860  28.205  49.900  1.00  0.00     0.034 A 
HETATM   25  C   UNL     1       5.426  26.990  50.184  1.00  0.00     0.066 A 
BRANCH  24  26
HETATM   26  C   UNL     1       4.951  28.944  48.585  1.00  0.00     0.037 A 
HETATM   27  C   UNL     1       3.865  28.718  47.554  1.00  0.00     0.011 A 
HETATM   28  C   UNL     1       3.933  30.020  48.274  1.00  0.00     0.011 A 
ENDBRANCH  24  26
ENDBRANCH   2  20
TORSDOF 7
ENDMDL
MODEL 5
REMARK VINA RESULT:      -8.0      1.361      1.982
REMARK  7 active torsions:
REMARK  status: ('A' for Active; 'I' for Inactive)
REMARK    1  A    between atoms: C_4  and  C_5 
REMARK    2  A    between atoms: C_5  and  O_6 
REMARK    3  A    between atoms: C_5  and  C_7 
REMARK    4  A    between atoms: C_7  and  N_8 
REMARK       I    between atoms: N_8  and  C_9 
REMARK    5  A    between atoms: N_8  and  C_20 
REMARK    6  A    between atoms: C_9  and  C_10 
REMARK    7  A    between atoms: C_14  and  C_15 
ROOT
HETATM    1  N   UNL     1       6.927  24.688  54.329  1.00  0.00    -0.339 N 
HETATM    2  C   UNL     1       6.049  25.196  53.342  1.00  0.00     0.274 C 
HETATM    3  O   UNL     1       5.466  24.433  52.567  1.00  0.00    -0.266 OA
ENDROOT
BRANCH   1   4
HETATM    4  C   UNL     1       7.569  25.536  55.362  1.00  0.00     0.163 C 
BRANCH   4   5
HETATM    5  C   UNL     1       6.730  25.744  56.643  1.00  0.00     0.169 C 
BRANCH   5   6
HETATM    6  C   UNL     1       6.748  27.200  57.072  1.00  0.00    -0.028 A 
HETATM    7  C   UNL     1       5.604  27.996  56.910  1.00  0.00     0.010 A 
HETATM    8  C   UNL     1       5.600  29.329  57.327  1.00  0.00     0.001 A 
HETATM    9  C   UNL     1       6.738  29.881  57.911  1.00  0.00     0.000 A 
HETATM   10  C   UNL     1       7.881  29.104  58.077  1.00  0.00     0.001 A 
HETATM   11  C   UNL     1       7.886  27.772  57.662  1.00  0.00     0.010 A 
ENDBRANCH   5   6
BRANCH   5  12
HETATM   12  O   UNL     1       5.363  25.384  56.409  1.00  0.00    -0.389 OA
HETATM   13  H   UNL     1       5.155  24.695  57.061  1.00  0.00     0.210 HD
ENDBRANCH   5  12
ENDBRANCH   4   5
ENDBRANCH   1   4
BRANCH   1  14
HETATM   14  C   UNL     1       7.137  23.217  54.325  1.00  0.00     0.087 C 
HETATM   15  C   UNL     1       7.615  22.598  55.650  1.00  0.00     0.025 C 
HETATM   16  C   UNL     1       7.698  21.075  55.559  1.00  0.00     0.002 C 
HETATM   17  C   UNL     1       8.588  20.630  54.403  1.00  0.00     0.000 C 
HETATM   18  C   UNL     1       8.139  21.244  53.081  1.00  0.00     0.002 C 
HETATM   19  C   UNL     1       8.045  22.767  53.163  1.00  0.00     0.025 C 
ENDBRANCH   1  14
BRANCH   2  20
HETATM   20  C   UNL     1       5.767  26.647  53.247  1.00  0.00     0.146 A 
HETATM   21  N   UNL     1       6.669  27.599  52.932  1.00  0.00    -0.169 NA
HETATM   22  N   UNL     1       5.972  28.748  52.970  1.00  0.00    -0.281 N 
HETATM   23  H   UNL     1       6.459  29.618  52.784  1.00  0.00     0.189 HD
HETATM   24  C   UNL     1       4.655  28.579  53.268  1.00  0.00     0.034 A 
HETATM   25  C   UNL     1       4.476  27.229  53.422  1.00  0.00     0.066 A 
BRANCH  24  26
HETATM   26  C   UNL     1       3.589  29.640  53.412  1.00  0.00     0.037 A 
HETATM   27  C   UNL     1       3.672  30.591  54.587  1.00  0.00     0.011 A 
HETATM   28  C   UNL     1       3.965  31.093  53.215  1.00  0.00     0.011 A 
ENDBRANCH  24  26
ENDBRANCH   2  20
TORSDOF 7
ENDMDL
MODEL 6
REMARK VINA RESULT:      -8.0      2.214      5.085
REMARK  7 active torsions:
REMARK  status: ('A' for Active; 'I' for Inactive)
REMARK    1  A    between atoms: C_4  and  C_5 
REMARK    2  A    between atoms: C_5  and  O_6 
REMARK    3  A    between atoms: C_5  and  C_7 
REMARK    4  A    between atoms: C_7  and  N_8 
REMARK       I    between atoms: N_8  and  C_9 
REMARK    5  A    between atoms: N_8  and  C_20 
REMARK    6  A    between atoms: C_9  and  C_10 
REMARK    7  A    between atoms: C_14  and  C_15 
ROOT
HETATM    1  N   UNL     1       7.247  25.649  55.426  1.00  0.00    -0.339 N 
HETATM    2  C   UNL     1       7.788  26.194  56.615  1.00  0.00     0.274 C 
HETATM    3  O   UNL     1       8.698  25.615  57.214  1.00  0.00    -0.266 OA
ENDROOT
BRANCH   1   4
HETATM    4  C   UNL     1       6.236  26.348  54.597  1.00  0.00     0.163 C 
BRANCH   4   5
HETATM    5  C   UNL     1       6.807  27.428  53.650  1.00  0.00     0.169 C 
BRANCH   5   6
HETATM    6  C   UNL     1       6.052  27.450  52.334  1.00  0.00    -0.028 A 
HETATM    7  C   UNL     1       5.782  26.251  51.656  1.00  0.00     0.010 A 
HETATM    8  C   UNL     1       5.064  26.258  50.458  1.00  0.00     0.001 A 
HETATM    9  C   UNL     1       4.606  27.461  49.924  1.00  0.00     0.000 A 
HETATM   10  C   UNL     1       4.868  28.658  50.584  1.00  0.00     0.001 A 
HETATM   11  C   UNL     1       5.585  28.653  51.782  1.00  0.00     0.010 A 
ENDBRANCH   5   6
BRANCH   5  12
HETATM   12  O   UNL     1       6.677  28.728  54.238  1.00  0.00    -0.389 OA
HETATM   13  H   UNL     1       5.845  29.093  53.894  1.00  0.00     0.210 HD
ENDBRANCH   5  12
ENDBRANCH   4   5
ENDBRANCH   1   4
BRANCH   1  14
HETATM   14  C   UNL     1       7.797  24.338  54.997  1.00  0.00     0.087 C 
HETATM   15  C   UNL     1       7.804  24.070  53.481  1.00  0.00     0.025 C 
HETATM   16  C   UNL     1       8.482  22.741  53.150  1.00  0.00     0.002 C 
HETATM   17  C   UNL     1       7.838  21.581  53.901  1.00  0.00     0.000 C 
HETATM   18  C   UNL     1       7.809  21.833  55.405  1.00  0.00     0.002 C 
HETATM   19  C   UNL     1       7.140  23.163  55.747  1.00  0.00     0.025 C 
ENDBRANCH   1  14
BRANCH   2  20
HETATM   20  C   UNL     1       7.313  27.495  57.143  1.00  0.00     0.146 A 
HETATM   21  N   UNL     1       6.021  27.852  57.294  1.00  0.00    -0.169 NA
HETATM   22  N   UNL     1       6.074  29.099  57.793  1.00  0.00    -0.281 N 
HETATM   23  H   UNL     1       5.203  29.588  57.971  1.00  0.00     0.189 HD
HETATM   24  C   UNL     1       7.340  29.553  57.998  1.00  0.00     0.034 A 
HETATM   25  C   UNL     1       8.170  28.531  57.619  1.00  0.00     0.066 A 
BRANCH  24  26
HETATM   26  C   UNL     1       7.772  30.902  58.525  1.00  0.00     0.037 A 
HETATM   27  C   UNL     1       8.205  31.005  59.972  1.00  0.00     0.011 A 
HETATM   28  C   UNL     1       9.225  31.116  58.892  1.00  0.00     0.011 A 
ENDBRANCH  24  26
ENDBRANCH   2  20
TORSDOF 7
ENDMDL
MODEL 7
REMARK VINA RESULT:      -7.8      2.270      7.087
REMARK  7 active torsions:
REMARK  status: ('A' for Active; 'I' for Inactive)
REMARK    1  A    between atoms: C_4  and  C_5 
REMARK    2  A    between atoms: C_5  and  O_6 
REMARK    3  A    between atoms: C_5  and  C_7 
REMARK    4  A    between atoms: C_7  and  N_8 
REMARK       I    between atoms: N_8  and  C_9 
REMARK    5  A    between atoms: N_8  and  C_20 
REMARK    6  A    between atoms: C_9  and  C_10 
REMARK    7  A    between atoms: C_14  and  C_15 
ROOT
HETATM    1  N   UNL     1       6.411  26.972  55.116  1.00  0.00    -0.339 N 
HETATM    2  C   UNL     1       7.342  25.934  55.356  1.00  0.00     0.274 C 
HETATM    3  O   UNL     1       7.952  25.873  56.428  1.00  0.00    -0.266 OA
ENDROOT
BRANCH   1   4
HETATM    4  C   UNL     1       5.563  27.040  53.901  1.00  0.00     0.163 C 
BRANCH   4   5
HETATM    5  C   UNL     1       6.067  28.012  52.811  1.00  0.00     0.169 C 
BRANCH   5   6
HETATM    6  C   UNL     1       5.529  27.623  51.446  1.00  0.00    -0.028 A 
HETATM    7  C   UNL     1       5.387  28.592  50.442  1.00  0.00     0.010 A 
HETATM    8  C   UNL     1       4.918  28.240  49.175  1.00  0.00     0.001 A 
HETATM    9  C   UNL     1       4.589  26.916  48.894  1.00  0.00     0.000 A 
HETATM   10  C   UNL     1       4.723  25.942  49.881  1.00  0.00     0.001 A 
HETATM   11  C   UNL     1       5.192  26.293  51.148  1.00  0.00     0.010 A 
ENDBRANCH   5   6
BRANCH   5  12
HETATM   12  O   UNL     1       5.618  29.345  53.083  1.00  0.00    -0.389 OA
HETATM   13  H   UNL     1       6.400  29.829  53.396  1.00  0.00     0.210 HD
ENDBRANCH   5  12
ENDBRANCH   4   5
ENDBRANCH   1   4
BRANCH   1  14
HETATM   14  C   UNL     1       6.270  27.988  56.190  1.00  0.00     0.087 C 
HETATM   15  C   UNL     1       4.877  28.625  56.342  1.00  0.00     0.025 C 
HETATM   16  C   UNL     1       4.822  29.575  57.537  1.00  0.00     0.002 C 
HETATM   17  C   UNL     1       5.901  30.650  57.449  1.00  0.00     0.000 C 
HETATM   18  C   UNL     1       7.289  30.040  57.284  1.00  0.00     0.002 C 
HETATM   19  C   UNL     1       7.353  29.081  56.096  1.00  0.00     0.025 C 
ENDBRANCH   1  14
BRANCH   2  20
HETATM   20  C   UNL     1       7.570  24.867  54.354  1.00  0.00     0.146 A 
HETATM   21  N   UNL     1       8.054  25.055  53.109  1.00  0.00    -0.169 NA
HETATM   22  N   UNL     1       8.086  23.823  52.572  1.00  0.00    -0.281 N 
HETATM   23  H   UNL     1       8.401  23.719  51.613  1.00  0.00     0.189 HD
HETATM   24  C   UNL     1       7.670  22.845  53.421  1.00  0.00     0.034 A 
HETATM   25  C   UNL     1       7.359  23.477  54.596  1.00  0.00     0.066 A 
BRANCH  24  26
HETATM   26  C   UNL     1       7.558  21.362  53.151  1.00  0.00     0.037 A 
HETATM   27  C   UNL     1       8.831  20.568  52.949  1.00  0.00     0.011 A 
HETATM   28  C   UNL     1       8.044  20.386  54.201  1.00  0.00     0.011 A 
ENDBRANCH  24  26
ENDBRANCH   2  20
TORSDOF 7
ENDMDL
MODEL 8
REMARK VINA RESULT:      -7.7      3.095      6.278
REMARK  7 active torsions:
REMARK  status: ('A' for Active; 'I' for Inactive)
REMARK    1  A    between atoms: C_4  and  C_5 
REMARK    2  A    between atoms: C_5  and  O_6 
REMARK    3  A    between atoms: C_5  and  C_7 
REMARK    4  A    between atoms: C_7  and  N_8 
REMARK       I    between atoms: N_8  and  C_9 
REMARK    5  A    between atoms: N_8  and  C_20 
REMARK    6  A    between atoms: C_9  and  C_10 
REMARK    7  A    between atoms: C_14  and  C_15 
ROOT
HETATM    1  N   UNL     1       5.059  28.029  53.202  1.00  0.00    -0.339 N 
HETATM    2  C   UNL     1       4.617  28.998  52.270  1.00  0.00     0.274 C 
HETATM    3  O   UNL     1       4.679  30.201  52.537  1.00  0.00    -0.266 OA
ENDROOT
BRANCH   1   4
HETATM    4  C   UNL     1       5.120  26.578  52.902  1.00  0.00     0.163 C 
BRANCH   4   5
HETATM    5  C   UNL     1       6.484  26.083  52.371  1.00  0.00     0.169 C 
BRANCH   5   6
HETATM    6  C   UNL     1       6.953  24.860  53.137  1.00  0.00    -0.028 A 
HETATM    7  C   UNL     1       7.721  23.877  52.495  1.00  0.00     0.010 A 
HETATM    8  C   UNL     1       8.181  22.762  53.198  1.00  0.00     0.001 A 
HETATM    9  C   UNL     1       7.880  22.615  54.550  1.00  0.00     0.000 A 
HETATM   10  C   UNL     1       7.117  23.581  55.201  1.00  0.00     0.001 A 
HETATM   11  C   UNL     1       6.658  24.697  54.500  1.00  0.00     0.010 A 
ENDBRANCH   5   6
BRANCH   5  12
HETATM   12  O   UNL     1       6.377  25.708  50.992  1.00  0.00    -0.389 OA
HETATM   13  H   UNL     1       6.851  24.863  50.909  1.00  0.00     0.210 HD
ENDBRANCH   5  12
ENDBRANCH   4   5
ENDBRANCH   1   4
BRANCH   1  14
HETATM   14  C   UNL     1       5.531  28.547  54.512  1.00  0.00     0.087 C 
HETATM   15  C   UNL     1       7.047  28.466  54.765  1.00  0.00     0.025 C 
HETATM   16  C   UNL     1       7.428  29.118  56.094  1.00  0.00     0.002 C 
HETATM   17  C   UNL     1       6.652  28.512  57.259  1.00  0.00     0.000 C 
HETATM   18  C   UNL     1       5.147  28.570  57.021  1.00  0.00     0.002 C 
HETATM   19  C   UNL     1       4.754  27.928  55.691  1.00  0.00     0.025 C 
ENDBRANCH   1  14
BRANCH   2  20
HETATM   20  C   UNL     1       4.120  28.598  50.932  1.00  0.00     0.146 A 
HETATM   21  N   UNL     1       4.887  28.163  49.912  1.00  0.00    -0.169 NA
HETATM   22  N   UNL     1       4.016  27.927  48.915  1.00  0.00    -0.281 N 
HETATM   23  H   UNL     1       4.376  27.605  48.022  1.00  0.00     0.189 HD
HETATM   24  C   UNL     1       2.720  28.163  49.253  1.00  0.00     0.034 A 
HETATM   25  C   UNL     1       2.743  28.568  50.562  1.00  0.00     0.066 A 
BRANCH  24  26
HETATM   26  C   UNL     1       1.490  28.023  48.387  1.00  0.00     0.037 A 
HETATM   27  C   UNL     1       1.478  28.706  47.036  1.00  0.00     0.011 A 
HETATM   28  C   UNL     1       1.581  27.221  47.106  1.00  0.00     0.011 A 
ENDBRANCH  24  26
ENDBRANCH   2  20
TORSDOF 7
ENDMDL
MODEL 9
REMARK VINA RESULT:      -7.7      7.528     11.473
REMARK  7 active torsions:
REMARK  status: ('A' for Active; 'I' for Inactive)
REMARK    1  A    between atoms: C_4  and  C_5 
REMARK    2  A    between atoms: C_5  and  O_6 
REMARK    3  A    between atoms: C_5  and  C_7 
REMARK    4  A    between atoms: C_7  and  N_8 
REMARK       I    between atoms: N_8  and  C_9 
REMARK    5  A    between atoms: N_8  and  C_20 
REMARK    6  A    between atoms: C_9  and  C_10 
REMARK    7  A    between atoms: C_14  and  C_15 
ROOT
HETATM    1  N   UNL     1       4.818  33.946  60.963  1.00  0.00    -0.339 N 
HETATM    2  C   UNL     1       3.983  33.680  59.851  1.00  0.00     0.274 C 
HETATM    3  O   UNL     1       3.278  34.571  59.368  1.00  0.00    -0.266 OA
ENDROOT
BRANCH   1   4
HETATM    4  C   UNL     1       5.772  32.957  61.519  1.00  0.00     0.163 C 
BRANCH   4   5
HETATM    5  C   UNL     1       5.248  32.163  62.738  1.00  0.00     0.169 C 
BRANCH   5   6
HETATM    6  C   UNL     1       5.583  32.876  64.035  1.00  0.00    -0.028 A 
HETATM    7  C   UNL     1       6.922  33.101  64.390  1.00  0.00     0.010 A 
HETATM    8  C   UNL     1       7.241  33.779  65.568  1.00  0.00     0.001 A 
HETATM    9  C   UNL     1       6.227  34.243  66.404  1.00  0.00     0.000 A 
HETATM   10  C   UNL     1       4.894  34.026  66.065  1.00  0.00     0.001 A 
HETATM   11  C   UNL     1       4.574  33.349  64.888  1.00  0.00     0.010 A 
ENDBRANCH   5   6
BRANCH   5  12
HETATM   12  O   UNL     1       3.822  32.037  62.676  1.00  0.00    -0.389 OA
HETATM   13  H   UNL     1       3.509  32.115  63.592  1.00  0.00     0.210 HD
ENDBRANCH   5  12
ENDBRANCH   4   5
ENDBRANCH   1   4
BRANCH   1  14
HETATM   14  C   UNL     1       4.740  35.317  61.528  1.00  0.00     0.087 C 
HETATM   15  C   UNL     1       6.008  35.834  62.231  1.00  0.00     0.025 C 
HETATM   16  C   UNL     1       5.848  37.285  62.680  1.00  0.00     0.002 C 
HETATM   17  C   UNL     1       4.625  37.464  63.574  1.00  0.00     0.000 C 
HETATM   18  C   UNL     1       3.358  36.946  62.901  1.00  0.00     0.002 C 
HETATM   19  C   UNL     1       3.510  35.497  62.440  1.00  0.00     0.025 C 
ENDBRANCH   1  14
BRANCH   2  20
HETATM   20  C   UNL     1       3.973  32.346  59.207  1.00  0.00     0.146 A 
HETATM   21  N   UNL     1       3.128  31.339  59.511  1.00  0.00    -0.169 NA
HETATM   22  N   UNL     1       3.488  30.340  58.686  1.00  0.00    -0.281 N 
HETATM   23  H   UNL     1       2.995  29.455  58.751  1.00  0.00     0.189 HD
HETATM   24  C   UNL     1       4.507  30.663  57.846  1.00  0.00     0.034 A 
HETATM   25  C   UNL     1       4.828  31.965  58.131  1.00  0.00     0.066 A 
BRANCH  24  26
HETATM   26  C   UNL     1       5.174  29.790  56.810  1.00  0.00     0.037 A 
HETATM   27  C   UNL     1       6.430  29.039  57.199  1.00  0.00     0.011 A 
HETATM   28  C   UNL     1       5.160  28.287  56.995  1.00  0.00     0.011 A 
ENDBRANCH  24  26
ENDBRANCH   2  20
TORSDOF 7
ENDMDL
MODEL 10
REMARK VINA RESULT:      -7.5      1.596      6.826
REMARK  7 active torsions:
REMARK  status: ('A' for Active; 'I' for Inactive)
REMARK    1  A    between atoms: C_4  and  C_5 
REMARK    2  A    between atoms: C_5  and  O_6 
REMARK    3  A    between atoms: C_5  and  C_7 
REMARK    4  A    between atoms: C_7  and  N_8 
REMARK       I    between atoms: N_8  and  C_9 
REMARK    5  A    between atoms: N_8  and  C_20 
REMARK    6  A    between atoms: C_9  and  C_10 
REMARK    7  A    between atoms: C_14  and  C_15 
ROOT
HETATM    1  N   UNL     1       6.995  26.381  55.651  1.00  0.00    -0.339 N 
HETATM    2  C   UNL     1       7.521  25.398  56.523  1.00  0.00     0.274 C 
HETATM    3  O   UNL     1       7.507  25.571  57.745  1.00  0.00    -0.266 OA
ENDROOT
BRANCH   1   4
HETATM    4  C   UNL     1       6.877  26.189  54.186  1.00  0.00     0.163 C 
BRANCH   4   5
HETATM    5  C   UNL     1       5.468  25.782  53.697  1.00  0.00     0.169 C 
BRANCH   5   6
HETATM    6  C   UNL     1       4.873  26.855  52.804  1.00  0.00    -0.028 A 
HETATM    7  C   UNL     1       3.947  27.772  53.324  1.00  0.00     0.010 A 
HETATM    8  C   UNL     1       3.414  28.780  52.517  1.00  0.00     0.001 A 
HETATM    9  C   UNL     1       3.800  28.885  51.183  1.00  0.00     0.000 A 
HETATM   10  C   UNL     1       4.717  27.981  50.652  1.00  0.00     0.001 A 
HETATM   11  C   UNL     1       5.251  26.974  51.457  1.00  0.00     0.010 A 
ENDBRANCH   5   6
BRANCH   5  12
HETATM   12  O   UNL     1       5.535  24.575  52.928  1.00  0.00    -0.389 OA
HETATM   13  H   UNL     1       4.630  24.223  52.908  1.00  0.00     0.210 HD
ENDBRANCH   5  12
ENDBRANCH   4   5
ENDBRANCH   1   4
BRANCH   1  14
HETATM   14  C   UNL     1       6.495  27.624  56.291  1.00  0.00     0.087 C 
HETATM   15  C   UNL     1       5.000  27.645  56.654  1.00  0.00     0.025 C 
HETATM   16  C   UNL     1       4.621  28.927  57.396  1.00  0.00     0.002 C 
HETATM   17  C   UNL     1       5.000  30.169  56.597  1.00  0.00     0.000 C 
HETATM   18  C   UNL     1       6.476  30.162  56.215  1.00  0.00     0.002 C 
HETATM   19  C   UNL     1       6.868  28.881  55.479  1.00  0.00     0.025 C 
ENDBRANCH   1  14
BRANCH   2  20
HETATM   20  C   UNL     1       8.054  24.119  55.999  1.00  0.00     0.146 A 
HETATM   21  N   UNL     1       9.356  23.770  55.967  1.00  0.00    -0.169 NA
HETATM   22  N   UNL     1       9.361  22.545  55.412  1.00  0.00    -0.281 N 
HETATM   23  H   UNL     1      10.252  22.082  55.264  1.00  0.00     0.189 HD
HETATM   24  C   UNL     1       8.121  22.076  55.109  1.00  0.00     0.034 A 
HETATM   25  C   UNL     1       7.245  23.053  55.504  1.00  0.00     0.066 A 
BRANCH  24  26
HETATM   26  C   UNL     1       7.753  20.759  54.466  1.00  0.00     0.037 A 
HETATM   27  C   UNL     1       7.858  20.638  52.960  1.00  0.00     0.011 A 
HETATM   28  C   UNL     1       8.841  19.926  53.823  1.00  0.00     0.011 A 
ENDBRANCH  24  26
ENDBRANCH   2  20
TORSDOF 7
ENDMDL
