MODEL 1
REMARK VINA RESULT:      -9.2      0.000      0.000
REMARK  5 active torsions:
REMARK  status: ('A' for Active; 'I' for Inactive)
REMARK    1  A    between atoms: C_2  and  N_3 
REMARK       I    between atoms: N_3  and  C_4 
REMARK       I    between atoms: C_4  and  N_5 
REMARK    2  A    between atoms: C_7  and  C_8 
REMARK    3  A    between atoms: C_13  and  N_14 
REMARK       I    between atoms: N_14  and  C_15 
REMARK    4  A    between atoms: C_15  and  C_16 
REMARK    5  A    between atoms: C_19  and  O_20 
ROOT
HETATM    1  C   UNL     1       5.658  28.610  54.468  1.00  0.00     0.088 A 
HETATM    2  N   UNL     1       4.804  29.552  54.020  1.00  0.00    -0.177 NA
HETATM    3  N   UNL     1       3.827  28.866  53.415  1.00  0.00    -0.287 N 
HETATM    4  H   UNL     1       3.072  29.389  52.985  1.00  0.00     0.188 HD
HETATM    5  C   UNL     1       3.975  27.516  53.497  1.00  0.00     0.141 A 
HETATM    6  C   UNL     1       5.195  27.310  54.094  1.00  0.00     0.079 A 
ENDROOT
BRANCH   1   7
HETATM    7  C   UNL     1       6.776  29.007  55.417  1.00  0.00     0.060 C 
HETATM    8  C   UNL     1       6.676  28.384  56.816  1.00  0.00     0.138 C 
HETATM    9  N   UNL     1       7.778  28.817  57.683  1.00  0.00    -0.334 N 
HETATM   10  C   UNL     1       7.542  29.879  58.547  1.00  0.00     0.318 C 
HETATM   11  C   UNL     1       9.102  28.466  57.179  1.00  0.00     0.127 C 
HETATM   12  N   UNL     1       8.575  30.129  59.418  1.00  0.00    -0.339 N 
HETATM   13  O   UNL     1       6.498  30.526  58.557  1.00  0.00    -0.247 OA
HETATM   14  H   UNL     1       9.094  29.300  59.663  1.00  0.00     0.164 HD
HETATM   15  C   UNL     1       9.309  29.101  55.807  1.00  0.00     0.021 C 
HETATM   16  C   UNL     1       8.187  28.711  54.841  1.00  0.00     0.014 C 
BRANCH  12  17
HETATM   17  C   UNL     1       8.449  31.133  60.466  1.00  0.00     0.078 C 
HETATM   18  C   UNL     1       9.148  32.419  60.036  1.00  0.00     0.032 C 
HETATM   19  C   UNL     1       9.031  30.621  61.784  1.00  0.00     0.032 C 
ENDBRANCH  12  17
ENDBRANCH   1   7
BRANCH   6  20
HETATM   20  N   UNL     1       5.729  26.053  54.312  1.00  0.00    -0.320 N 
HETATM   21  C   UNL     1       6.672  25.548  53.429  1.00  0.00     0.256 C 
HETATM   22  O   UNL     1       7.074  26.104  52.412  1.00  0.00    -0.267 OA
HETATM   23  H   UNL     1       5.076  25.348  54.635  1.00  0.00     0.169 HD
BRANCH  21  24
HETATM   24  C   UNL     1       7.154  24.182  53.753  1.00  0.00     0.032 A 
HETATM   25  C   UNL     1       7.135  23.753  55.081  1.00  0.00     0.020 A 
HETATM   26  C   UNL     1       7.559  22.461  55.396  1.00  0.00     0.038 A 
HETATM   27  C   UNL     1       7.971  21.583  54.389  1.00  0.00     0.068 A 
HETATM   28  C   UNL     1       7.990  22.016  53.061  1.00  0.00     0.038 A 
HETATM   29  C   UNL     1       7.578  23.314  52.740  1.00  0.00     0.020 A 
BRANCH  27  30
HETATM   30  O   UNL     1       8.340  20.340  54.824  1.00  0.00    -0.356 OA
HETATM   31  C   UNL     1       8.324  20.142  56.234  1.00  0.00     0.210 C 
ENDBRANCH  27  30
ENDBRANCH  21  24
ENDBRANCH   6  20
TORSDOF 5
ENDMDL
MODEL 2
REMARK VINA RESULT:      -8.8      2.484      6.336
REMARK  5 active torsions:
REMARK  status: ('A' for Active; 'I' for Inactive)
REMARK    1  A    between atoms: C_2  and  N_3 
REMARK       I    between atoms: N_3  and  C_4 
REMARK       I    between atoms: C_4  and  N_5 
REMARK    2  A    between atoms: C_7  and  C_8 
REMARK    3  A    between atoms: C_13  and  N_14 
REMARK       I    between atoms: N_14  and  C_15 
REMARK    4  A    between atoms: C_15  and  C_16 
REMARK    5  A    between atoms: C_19  and  O_20 
ROOT
HETATM    1  C   UNL     1       5.722  28.846  55.854  1.00  0.00     0.088 A 
HETATM    2  N   UNL     1       5.472  29.813  56.759  1.00  0.00    -0.177 NA
HETATM    3  N   UNL     1       6.261  29.517  57.799  1.00  0.00    -0.287 N 
HETATM    4  H   UNL     1       6.221  30.119  58.614  1.00  0.00     0.188 HD
HETATM    5  C   UNL     1       7.057  28.434  57.592  1.00  0.00     0.141 A 
HETATM    6  C   UNL     1       6.674  27.916  56.378  1.00  0.00     0.079 A 
ENDROOT
BRANCH   1   7
HETATM    7  C   UNL     1       5.177  28.986  54.443  1.00  0.00     0.060 C 
HETATM    8  C   UNL     1       4.387  27.770  53.940  1.00  0.00     0.138 C 
HETATM    9  N   UNL     1       3.901  27.967  52.570  1.00  0.00    -0.334 N 
HETATM   10  C   UNL     1       4.657  27.436  51.532  1.00  0.00     0.318 C 
HETATM   11  C   UNL     1       3.014  29.116  52.414  1.00  0.00     0.127 C 
HETATM   12  N   UNL     1       4.063  27.542  50.298  1.00  0.00    -0.339 N 
HETATM   13  O   UNL     1       5.747  26.894  51.697  1.00  0.00    -0.247 OA
HETATM   14  H   UNL     1       3.055  27.515  50.341  1.00  0.00     0.164 HD
HETATM   15  C   UNL     1       3.747  30.385  52.838  1.00  0.00     0.021 C 
HETATM   16  C   UNL     1       4.303  30.257  54.259  1.00  0.00     0.014 C 
BRANCH  12  17
HETATM   17  C   UNL     1       4.665  26.937  49.118  1.00  0.00     0.078 C 
HETATM   18  C   UNL     1       5.156  28.028  48.171  1.00  0.00     0.032 C 
HETATM   19  C   UNL     1       3.670  26.018  48.408  1.00  0.00     0.032 C 
ENDBRANCH  12  17
ENDBRANCH   1   7
BRANCH   6  20
HETATM   20  N   UNL     1       7.225  26.770  55.835  1.00  0.00    -0.320 N 
HETATM   21  C   UNL     1       6.569  25.558  55.988  1.00  0.00     0.256 C 
HETATM   22  O   UNL     1       5.528  25.377  56.610  1.00  0.00    -0.267 OA
HETATM   23  H   UNL     1       8.232  26.685  55.917  1.00  0.00     0.169 HD
BRANCH  21  24
HETATM   24  C   UNL     1       7.268  24.395  55.384  1.00  0.00     0.032 A 
HETATM   25  C   UNL     1       6.936  24.005  54.085  1.00  0.00     0.020 A 
HETATM   26  C   UNL     1       7.605  22.932  53.493  1.00  0.00     0.038 A 
HETATM   27  C   UNL     1       8.626  22.267  54.179  1.00  0.00     0.068 A 
HETATM   28  C   UNL     1       8.954  22.659  55.478  1.00  0.00     0.038 A 
HETATM   29  C   UNL     1       8.279  23.726  56.082  1.00  0.00     0.020 A 
BRANCH  27  30
HETATM   30  O   UNL     1       9.219  21.249  53.483  1.00  0.00    -0.356 OA
HETATM   31  C   UNL     1       8.336  20.355  52.813  1.00  0.00     0.210 C 
ENDBRANCH  27  30
ENDBRANCH  21  24
ENDBRANCH   6  20
TORSDOF 5
ENDMDL
MODEL 3
REMARK VINA RESULT:      -8.5      2.519      2.866
REMARK  5 active torsions:
REMARK  status: ('A' for Active; 'I' for Inactive)
REMARK    1  A    between atoms: C_2  and  N_3 
REMARK       I    between atoms: N_3  and  C_4 
REMARK       I    between atoms: C_4  and  N_5 
REMARK    2  A    between atoms: C_7  and  C_8 
REMARK    3  A    between atoms: C_13  and  N_14 
REMARK       I    between atoms: N_14  and  C_15 
REMARK    4  A    between atoms: C_15  and  C_16 
REMARK    5  A    between atoms: C_19  and  O_20 
ROOT
HETATM    1  C   UNL     1       5.655  27.845  52.455  1.00  0.00     0.088 A 
HETATM    2  N   UNL     1       5.254  28.651  51.452  1.00  0.00    -0.177 NA
HETATM    3  N   UNL     1       4.990  27.822  50.435  1.00  0.00    -0.287 N 
HETATM    4  H   UNL     1       4.681  28.227  49.558  1.00  0.00     0.188 HD
HETATM    5  C   UNL     1       5.145  26.507  50.746  1.00  0.00     0.141 A 
HETATM    6  C   UNL     1       5.662  26.483  52.019  1.00  0.00     0.079 A 
ENDROOT
BRANCH   1   7
HETATM    7  C   UNL     1       5.815  28.418  53.853  1.00  0.00     0.060 C 
HETATM    8  C   UNL     1       4.768  27.932  54.865  1.00  0.00     0.138 C 
HETATM    9  N   UNL     1       4.973  28.531  56.188  1.00  0.00    -0.334 N 
HETATM   10  C   UNL     1       4.223  29.654  56.514  1.00  0.00     0.318 C 
HETATM   11  C   UNL     1       6.273  28.231  56.780  1.00  0.00     0.127 C 
HETATM   12  N   UNL     1       4.372  30.066  57.816  1.00  0.00    -0.339 N 
HETATM   13  O   UNL     1       3.471  30.219  55.724  1.00  0.00    -0.247 OA
HETATM   14  H   UNL     1       4.566  29.307  58.451  1.00  0.00     0.164 HD
HETATM   15  C   UNL     1       7.380  28.738  55.860  1.00  0.00     0.021 C 
HETATM   16  C   UNL     1       7.229  28.171  54.446  1.00  0.00     0.014 C 
BRANCH  12  17
HETATM   17  C   UNL     1       3.573  31.158  58.357  1.00  0.00     0.078 C 
HETATM   18  C   UNL     1       4.376  32.454  58.316  1.00  0.00     0.032 C 
HETATM   19  C   UNL     1       3.124  30.850  59.785  1.00  0.00     0.032 C 
ENDBRANCH  12  17
ENDBRANCH   1   7
BRANCH   6  20
HETATM   20  N   UNL     1       6.005  25.315  52.675  1.00  0.00    -0.320 N 
HETATM   21  C   UNL     1       7.323  24.885  52.662  1.00  0.00     0.256 C 
HETATM   22  O   UNL     1       8.251  25.431  52.074  1.00  0.00    -0.267 OA
HETATM   23  H   UNL     1       5.342  24.553  52.592  1.00  0.00     0.169 HD
BRANCH  21  24
HETATM   24  C   UNL     1       7.565  23.609  53.379  1.00  0.00     0.032 A 
HETATM   25  C   UNL     1       7.404  23.569  54.766  1.00  0.00     0.020 A 
HETATM   26  C   UNL     1       7.600  22.368  55.450  1.00  0.00     0.038 A 
HETATM   27  C   UNL     1       7.925  21.200  54.755  1.00  0.00     0.068 A 
HETATM   28  C   UNL     1       8.086  21.243  53.369  1.00  0.00     0.038 A 
HETATM   29  C   UNL     1       7.903  22.446  52.678  1.00  0.00     0.020 A 
BRANCH  27  30
HETATM   30  O   UNL     1       8.069  20.086  55.537  1.00  0.00    -0.356 OA
HETATM   31  C   UNL     1       9.088  20.147  56.528  1.00  0.00     0.210 C 
ENDBRANCH  27  30
ENDBRANCH  21  24
ENDBRANCH   6  20
TORSDOF 5
ENDMDL
MODEL 4
REMARK VINA RESULT:      -8.3      1.998      7.921
REMARK  5 active torsions:
REMARK  status: ('A' for Active; 'I' for Inactive)
REMARK    1  A    between atoms: C_2  and  N_3 
REMARK       I    between atoms: N_3  and  C_4 
REMARK       I    between atoms: C_4  and  N_5 
REMARK    2  A    between atoms: C_7  and  C_8 
REMARK    3  A    between atoms: C_13  and  N_14 
REMARK       I    between atoms: N_14  and  C_15 
REMARK    4  A    between atoms: C_15  and  C_16 
REMARK    5  A    between atoms: C_19  and  O_20 
ROOT
HETATM    1  C   UNL     1       4.697  27.871  54.525  1.00  0.00     0.088 A 
HETATM    2  N   UNL     1       3.787  27.810  53.534  1.00  0.00    -0.177 NA
HETATM    3  N   UNL     1       3.691  29.067  53.083  1.00  0.00    -0.287 N 
HETATM    4  H   UNL     1       3.037  29.255  52.331  1.00  0.00     0.188 HD
HETATM    5  C   UNL     1       4.541  29.934  53.696  1.00  0.00     0.141 A 
HETATM    6  C   UNL     1       5.147  29.217  54.699  1.00  0.00     0.079 A 
ENDROOT
BRANCH   1   7
HETATM    7  C   UNL     1       5.240  26.582  55.119  1.00  0.00     0.060 C 
HETATM    8  C   UNL     1       6.698  26.274  54.748  1.00  0.00     0.138 C 
HETATM    9  N   UNL     1       7.154  25.013  55.343  1.00  0.00    -0.334 N 
HETATM   10  C   UNL     1       7.103  23.869  54.555  1.00  0.00     0.318 C 
HETATM   11  C   UNL     1       7.097  24.990  56.801  1.00  0.00     0.127 C 
HETATM   12  N   UNL     1       7.677  22.764  55.137  1.00  0.00    -0.339 N 
HETATM   13  O   UNL     1       6.615  23.844  53.428  1.00  0.00    -0.247 OA
HETATM   14  H   UNL     1       8.438  22.995  55.757  1.00  0.00     0.164 HD
HETATM   15  C   UNL     1       5.660  25.230  57.257  1.00  0.00     0.021 C 
HETATM   16  C   UNL     1       5.099  26.525  56.664  1.00  0.00     0.014 C 
BRANCH  12  17
HETATM   17  C   UNL     1       7.811  21.512  54.406  1.00  0.00     0.078 C 
HETATM   18  C   UNL     1       7.868  20.345  55.386  1.00  0.00     0.032 C 
HETATM   19  C   UNL     1       9.056  21.529  53.519  1.00  0.00     0.032 C 
ENDBRANCH  12  17
ENDBRANCH   1   7
BRANCH   6  20
HETATM   20  N   UNL     1       6.054  29.771  55.585  1.00  0.00    -0.320 N 
HETATM   21  C   UNL     1       5.658  30.046  56.885  1.00  0.00     0.256 C 
HETATM   22  O   UNL     1       4.533  29.878  57.345  1.00  0.00    -0.267 OA
HETATM   23  H   UNL     1       6.664  30.483  55.200  1.00  0.00     0.169 HD
BRANCH  21  24
HETATM   24  C   UNL     1       6.709  30.659  57.735  1.00  0.00     0.032 A 
HETATM   25  C   UNL     1       6.349  31.655  58.645  1.00  0.00     0.020 A 
HETATM   26  C   UNL     1       7.322  32.220  59.472  1.00  0.00     0.038 A 
HETATM   27  C   UNL     1       8.646  31.774  59.418  1.00  0.00     0.068 A 
HETATM   28  C   UNL     1       9.002  30.778  58.506  1.00  0.00     0.038 A 
HETATM   29  C   UNL     1       8.035  30.216  57.666  1.00  0.00     0.020 A 
BRANCH  27  30
HETATM   30  O   UNL     1       9.497  32.391  60.293  1.00  0.00    -0.356 OA
HETATM   31  C   UNL     1       9.531  31.856  61.611  1.00  0.00     0.210 C 
ENDBRANCH  27  30
ENDBRANCH  21  24
ENDBRANCH   6  20
TORSDOF 5
ENDMDL
MODEL 5
REMARK VINA RESULT:      -8.3      3.539      7.434
REMARK  5 active torsions:
REMARK  status: ('A' for Active; 'I' for Inactive)
REMARK    1  A    between atoms: C_2  and  N_3 
REMARK       I    between atoms: N_3  and  C_4 
REMARK       I    between atoms: C_4  and  N_5 
REMARK    2  A    between atoms: C_7  and  C_8 
REMARK    3  A    between atoms: C_13  and  N_14 
REMARK       I    between atoms: N_14  and  C_15 
REMARK    4  A    between atoms: C_15  and  C_16 
REMARK    5  A    between atoms: C_19  and  O_20 
ROOT
HETATM    1  C   UNL     1       4.729  28.349  53.290  1.00  0.00     0.088 A 
HETATM    2  N   UNL     1       4.590  29.639  53.653  1.00  0.00    -0.177 NA
HETATM    3  N   UNL     1       5.234  29.734  54.823  1.00  0.00    -0.287 N 
HETATM    4  H   UNL     1       5.243  30.634  55.291  1.00  0.00     0.188 HD
HETATM    5  C   UNL     1       5.837  28.578  55.211  1.00  0.00     0.141 A 
HETATM    6  C   UNL     1       5.459  27.633  54.289  1.00  0.00     0.079 A 
ENDROOT
BRANCH   1   7
HETATM    7  C   UNL     1       4.324  27.922  51.889  1.00  0.00     0.060 C 
HETATM    8  C   UNL     1       4.262  29.065  50.866  1.00  0.00     0.138 C 
HETATM    9  N   UNL     1       3.855  28.585  49.541  1.00  0.00    -0.334 N 
HETATM   10  C   UNL     1       2.514  28.702  49.194  1.00  0.00     0.318 C 
HETATM   11  C   UNL     1       4.750  27.584  48.971  1.00  0.00     0.127 C 
HETATM   12  N   UNL     1       2.243  28.361  47.891  1.00  0.00    -0.339 N 
HETATM   13  O   UNL     1       1.646  29.097  49.968  1.00  0.00    -0.247 OA
HETATM   14  H   UNL     1       3.011  28.550  47.266  1.00  0.00     0.164 HD
HETATM   15  C   UNL     1       4.823  26.377  49.903  1.00  0.00     0.021 C 
HETATM   16  C   UNL     1       5.228  26.795  51.320  1.00  0.00     0.014 C 
BRANCH  12  17
HETATM   17  C   UNL     1       0.910  28.533  47.330  1.00  0.00     0.078 C 
HETATM   18  C   UNL     1       0.554  27.326  46.467  1.00  0.00     0.032 C 
HETATM   19  C   UNL     1       0.824  29.821  46.511  1.00  0.00     0.032 C 
ENDBRANCH  12  17
ENDBRANCH   1   7
BRANCH   6  20
HETATM   20  N   UNL     1       5.835  26.304  54.368  1.00  0.00    -0.320 N 
HETATM   21  C   UNL     1       7.096  25.923  53.935  1.00  0.00     0.256 C 
HETATM   22  O   UNL     1       7.937  26.662  53.433  1.00  0.00    -0.267 OA
HETATM   23  H   UNL     1       5.117  25.629  54.130  1.00  0.00     0.169 HD
BRANCH  21  24
HETATM   24  C   UNL     1       7.377  24.470  54.048  1.00  0.00     0.032 A 
HETATM   25  C   UNL     1       7.365  23.873  55.310  1.00  0.00     0.020 A 
HETATM   26  C   UNL     1       7.599  22.502  55.428  1.00  0.00     0.038 A 
HETATM   27  C   UNL     1       7.813  21.718  54.290  1.00  0.00     0.068 A 
HETATM   28  C   UNL     1       7.825  22.318  53.030  1.00  0.00     0.038 A 
HETATM   29  C   UNL     1       7.604  23.694  52.905  1.00  0.00     0.020 A 
BRANCH  27  30
HETATM   30  O   UNL     1       8.007  20.386  54.537  1.00  0.00    -0.356 OA
HETATM   31  C   UNL     1       8.590  20.064  55.795  1.00  0.00     0.210 C 
ENDBRANCH  27  30
ENDBRANCH  21  24
ENDBRANCH   6  20
TORSDOF 5
ENDMDL
MODEL 6
REMARK VINA RESULT:      -8.1      3.121      5.679
REMARK  5 active torsions:
REMARK  status: ('A' for Active; 'I' for Inactive)
REMARK    1  A    between atoms: C_2  and  N_3 
REMARK       I    between atoms: N_3  and  C_4 
REMARK       I    between atoms: C_4  and  N_5 
REMARK    2  A    between atoms: C_7  and  C_8 
REMARK    3  A    between atoms: C_13  and  N_14 
REMARK       I    between atoms: N_14  and  C_15 
REMARK    4  A    between atoms: C_15  and  C_16 
REMARK    5  A    between atoms: C_19  and  O_20 
ROOT
HETATM    1  C   UNL     1       7.200  25.266  54.722  1.00  0.00     0.088 A 
HETATM    2  N   UNL     1       7.761  24.226  55.371  1.00  0.00    -0.177 NA
HETATM    3  N   UNL     1       8.184  23.408  54.399  1.00  0.00    -0.287 N 
HETATM    4  H   UNL     1       8.633  22.539  54.669  1.00  0.00     0.188 HD
HETATM    5  C   UNL     1       7.977  23.894  53.146  1.00  0.00     0.141 A 
HETATM    6  C   UNL     1       7.261  25.055  53.309  1.00  0.00     0.079 A 
ENDROOT
BRANCH   1   7
HETATM    7  C   UNL     1       6.817  26.512  55.502  1.00  0.00     0.060 C 
HETATM    8  C   UNL     1       7.722  27.726  55.250  1.00  0.00     0.138 C 
HETATM    9  N   UNL     1       7.304  28.888  56.041  1.00  0.00    -0.334 N 
HETATM   10  C   UNL     1       7.957  29.121  57.246  1.00  0.00     0.318 C 
HETATM   11  C   UNL     1       5.944  29.337  55.763  1.00  0.00     0.127 C 
HETATM   12  N   UNL     1       7.605  30.302  57.853  1.00  0.00    -0.339 N 
HETATM   13  O   UNL     1       8.796  28.358  57.720  1.00  0.00    -0.247 OA
HETATM   14  H   UNL     1       7.348  31.022  57.196  1.00  0.00     0.164 HD
HETATM   15  C   UNL     1       4.965  28.201  56.048  1.00  0.00     0.021 C 
HETATM   16  C   UNL     1       5.341  26.937  55.270  1.00  0.00     0.014 C 
BRANCH  12  17
HETATM   17  C   UNL     1       8.275  30.756  59.063  1.00  0.00     0.078 C 
HETATM   18  C   UNL     1       7.332  31.636  59.877  1.00  0.00     0.032 C 
HETATM   19  C   UNL     1       9.559  31.514  58.725  1.00  0.00     0.032 C 
ENDBRANCH  12  17
ENDBRANCH   1   7
BRANCH   6  20
HETATM   20  N   UNL     1       6.813  25.824  52.250  1.00  0.00    -0.320 N 
HETATM   21  C   UNL     1       5.511  25.673  51.799  1.00  0.00     0.256 C 
HETATM   22  O   UNL     1       4.689  24.871  52.230  1.00  0.00    -0.267 OA
HETATM   23  H   UNL     1       7.477  25.964  51.497  1.00  0.00     0.169 HD
BRANCH  21  24
HETATM   24  C   UNL     1       5.152  26.534  50.644  1.00  0.00     0.032 A 
HETATM   25  C   UNL     1       5.417  27.903  50.711  1.00  0.00     0.020 A 
HETATM   26  C   UNL     1       5.112  28.721  49.621  1.00  0.00     0.038 A 
HETATM   27  C   UNL     1       4.573  28.174  48.453  1.00  0.00     0.068 A 
HETATM   28  C   UNL     1       4.308  26.804  48.390  1.00  0.00     0.038 A 
HETATM   29  C   UNL     1       4.600  25.981  49.483  1.00  0.00     0.020 A 
BRANCH  27  30
HETATM   30  O   UNL     1       4.340  29.075  47.450  1.00  0.00    -0.356 OA
HETATM   31  C   UNL     1       2.975  29.398  47.207  1.00  0.00     0.210 C 
ENDBRANCH  27  30
ENDBRANCH  21  24
ENDBRANCH   6  20
TORSDOF 5
ENDMDL
MODEL 7
REMARK VINA RESULT:      -7.8      1.450      2.080
REMARK  5 active torsions:
REMARK  status: ('A' for Active; 'I' for Inactive)
REMARK    1  A    between atoms: C_2  and  N_3 
REMARK       I    between atoms: N_3  and  C_4 
REMARK       I    between atoms: C_4  and  N_5 
REMARK    2  A    between atoms: C_7  and  C_8 
REMARK    3  A    between atoms: C_13  and  N_14 
REMARK       I    between atoms: N_14  and  C_15 
REMARK    4  A    between atoms: C_15  and  C_16 
REMARK    5  A    between atoms: C_19  and  O_20 
ROOT
HETATM    1  C   UNL     1       5.364  28.292  53.488  1.00  0.00     0.088 A 
HETATM    2  N   UNL     1       4.832  29.257  52.713  1.00  0.00    -0.177 NA
HETATM    3  N   UNL     1       4.528  28.641  51.564  1.00  0.00    -0.287 N 
HETATM    4  H   UNL     1       4.122  29.196  50.818  1.00  0.00     0.188 HD
HETATM    5  C   UNL     1       4.784  27.306  51.575  1.00  0.00     0.141 A 
HETATM    6  C   UNL     1       5.409  27.055  52.772  1.00  0.00     0.079 A 
ENDROOT
BRANCH   1   7
HETATM    7  C   UNL     1       5.612  28.570  54.961  1.00  0.00     0.060 C 
HETATM    8  C   UNL     1       6.093  29.996  55.268  1.00  0.00     0.138 C 
HETATM    9  N   UNL     1       6.324  30.193  56.704  1.00  0.00    -0.334 N 
HETATM   10  C   UNL     1       7.623  30.053  57.176  1.00  0.00     0.318 C 
HETATM   11  C   UNL     1       5.140  29.981  57.530  1.00  0.00     0.127 C 
HETATM   12  N   UNL     1       7.776  30.391  58.498  1.00  0.00    -0.339 N 
HETATM   13  O   UNL     1       8.563  29.687  56.474  1.00  0.00    -0.247 OA
HETATM   14  H   UNL     1       7.135  31.109  58.799  1.00  0.00     0.164 HD
HETATM   15  C   UNL     1       4.628  28.557  57.330  1.00  0.00     0.021 C 
HETATM   16  C   UNL     1       4.376  28.262  55.848  1.00  0.00     0.014 C 
BRANCH  12  17
HETATM   17  C   UNL     1       9.092  30.411  59.123  1.00  0.00     0.078 C 
HETATM   18  C   UNL     1       8.942  30.503  60.639  1.00  0.00     0.032 C 
HETATM   19  C   UNL     1       9.929  31.576  58.595  1.00  0.00     0.032 C 
ENDBRANCH  12  17
ENDBRANCH   1   7
BRANCH   6  20
HETATM   20  N   UNL     1       5.874  25.804  53.137  1.00  0.00    -0.320 N 
HETATM   21  C   UNL     1       7.228  25.618  53.367  1.00  0.00     0.256 C 
HETATM   22  O   UNL     1       8.102  26.469  53.240  1.00  0.00    -0.267 OA
HETATM   23  H   UNL     1       5.444  25.020  52.660  1.00  0.00     0.169 HD
BRANCH  21  24
HETATM   24  C   UNL     1       7.610  24.230  53.729  1.00  0.00     0.032 A 
HETATM   25  C   UNL     1       7.910  23.935  55.060  1.00  0.00     0.020 A 
HETATM   26  C   UNL     1       8.242  22.628  55.421  1.00  0.00     0.038 A 
HETATM   27  C   UNL     1       8.245  21.607  54.466  1.00  0.00     0.068 A 
HETATM   28  C   UNL     1       7.944  21.906  53.135  1.00  0.00     0.038 A 
HETATM   29  C   UNL     1       7.623  23.216  52.765  1.00  0.00     0.020 A 
BRANCH  27  30
HETATM   30  O   UNL     1       8.564  20.367  54.949  1.00  0.00    -0.356 OA
HETATM   31  C   UNL     1       9.230  20.341  56.206  1.00  0.00     0.210 C 
ENDBRANCH  27  30
ENDBRANCH  21  24
ENDBRANCH   6  20
TORSDOF 5
ENDMDL
MODEL 8
REMARK VINA RESULT:      -7.8      2.709      7.762
REMARK  5 active torsions:
REMARK  status: ('A' for Active; 'I' for Inactive)
REMARK    1  A    between atoms: C_2  and  N_3 
REMARK       I    between atoms: N_3  and  C_4 
REMARK       I    between atoms: C_4  and  N_5 
REMARK    2  A    between atoms: C_7  and  C_8 
REMARK    3  A    between atoms: C_13  and  N_14 
REMARK       I    between atoms: N_14  and  C_15 
REMARK    4  A    between atoms: C_15  and  C_16 
REMARK    5  A    between atoms: C_19  and  O_20 
ROOT
HETATM    1  C   UNL     1       7.346  24.645  55.068  1.00  0.00     0.088 A 
HETATM    2  N   UNL     1       7.566  23.317  55.019  1.00  0.00    -0.177 NA
HETATM    3  N   UNL     1       8.174  23.030  56.176  1.00  0.00    -0.287 N 
HETATM    4  H   UNL     1       8.448  22.068  56.345  1.00  0.00     0.188 HD
HETATM    5  C   UNL     1       8.308  24.100  57.004  1.00  0.00     0.141 A 
HETATM    6  C   UNL     1       7.865  25.185  56.287  1.00  0.00     0.079 A 
ENDROOT
BRANCH   1   7
HETATM    7  C   UNL     1       6.456  25.294  54.021  1.00  0.00     0.060 C 
HETATM    8  C   UNL     1       7.138  26.399  53.202  1.00  0.00     0.138 C 
HETATM    9  N   UNL     1       6.222  26.989  52.219  1.00  0.00    -0.334 N 
HETATM   10  C   UNL     1       5.569  28.166  52.567  1.00  0.00     0.318 C 
HETATM   11  C   UNL     1       5.698  26.034  51.248  1.00  0.00     0.127 C 
HETATM   12  N   UNL     1       4.842  28.724  51.544  1.00  0.00    -0.339 N 
HETATM   13  O   UNL     1       5.649  28.681  53.680  1.00  0.00    -0.247 OA
HETATM   14  H   UNL     1       5.235  28.539  50.634  1.00  0.00     0.164 HD
HETATM   15  C   UNL     1       4.947  24.925  51.980  1.00  0.00     0.021 C 
HETATM   16  C   UNL     1       5.832  24.264  53.041  1.00  0.00     0.014 C 
BRANCH  12  17
HETATM   17  C   UNL     1       4.189  30.016  51.703  1.00  0.00     0.078 C 
HETATM   18  C   UNL     1       2.760  29.941  51.173  1.00  0.00     0.032 C 
HETATM   19  C   UNL     1       4.971  31.115  50.983  1.00  0.00     0.032 C 
ENDBRANCH  12  17
ENDBRANCH   1   7
BRANCH   6  20
HETATM   20  N   UNL     1       7.888  26.478  56.777  1.00  0.00    -0.320 N 
HETATM   21  C   UNL     1       6.700  27.092  57.143  1.00  0.00     0.256 C 
HETATM   22  O   UNL     1       5.578  26.605  57.041  1.00  0.00    -0.267 OA
HETATM   23  H   UNL     1       8.531  27.111  56.316  1.00  0.00     0.169 HD
BRANCH  21  24
HETATM   24  C   UNL     1       6.847  28.485  57.632  1.00  0.00     0.032 A 
HETATM   25  C   UNL     1       8.006  28.842  58.325  1.00  0.00     0.020 A 
HETATM   26  C   UNL     1       8.172  30.156  58.765  1.00  0.00     0.038 A 
HETATM   27  C   UNL     1       7.202  31.125  58.489  1.00  0.00     0.068 A 
HETATM   28  C   UNL     1       6.044  30.765  57.797  1.00  0.00     0.038 A 
HETATM   29  C   UNL     1       5.866  29.446  57.364  1.00  0.00     0.020 A 
BRANCH  27  30
HETATM   30  O   UNL     1       7.492  32.378  58.954  1.00  0.00    -0.356 OA
HETATM   31  C   UNL     1       8.026  32.447  60.271  1.00  0.00     0.210 C 
ENDBRANCH  27  30
ENDBRANCH  21  24
ENDBRANCH   6  20
TORSDOF 5
ENDMDL
MODEL 9
REMARK VINA RESULT:      -7.8      2.809      8.613
REMARK  5 active torsions:
REMARK  status: ('A' for Active; 'I' for Inactive)
REMARK    1  A    between atoms: C_2  and  N_3 
REMARK       I    between atoms: N_3  and  C_4 
REMARK       I    between atoms: C_4  and  N_5 
REMARK    2  A    between atoms: C_7  and  C_8 
REMARK    3  A    between atoms: C_13  and  N_14 
REMARK       I    between atoms: N_14  and  C_15 
REMARK    4  A    between atoms: C_15  and  C_16 
REMARK    5  A    between atoms: C_19  and  O_20 
ROOT
HETATM    1  C   UNL     1       7.501  25.788  55.569  1.00  0.00     0.088 A 
HETATM    2  N   UNL     1       7.721  24.471  55.387  1.00  0.00    -0.177 NA
HETATM    3  N   UNL     1       8.267  24.056  56.537  1.00  0.00    -0.287 N 
HETATM    4  H   UNL     1       8.531  23.079  56.614  1.00  0.00     0.188 HD
HETATM    5  C   UNL     1       8.360  25.029  57.482  1.00  0.00     0.141 A 
HETATM    6  C   UNL     1       7.956  26.188  56.864  1.00  0.00     0.079 A 
ENDROOT
BRANCH   1   7
HETATM    7  C   UNL     1       6.669  26.552  54.553  1.00  0.00     0.060 C 
HETATM    8  C   UNL     1       5.582  25.717  53.862  1.00  0.00     0.138 C 
HETATM    9  N   UNL     1       4.825  26.512  52.888  1.00  0.00    -0.334 N 
HETATM   10  C   UNL     1       5.207  26.435  51.554  1.00  0.00     0.318 C 
HETATM   11  C   UNL     1       4.141  27.664  53.465  1.00  0.00     0.127 C 
HETATM   12  N   UNL     1       4.364  27.096  50.693  1.00  0.00    -0.339 N 
HETATM   13  O   UNL     1       6.194  25.814  51.166  1.00  0.00    -0.247 OA
HETATM   14  H   UNL     1       3.407  27.110  51.012  1.00  0.00     0.164 HD
HETATM   15  C   UNL     1       5.164  28.584  54.126  1.00  0.00     0.021 C 
HETATM   16  C   UNL     1       6.011  27.826  55.151  1.00  0.00     0.014 C 
BRANCH  12  17
HETATM   17  C   UNL     1       4.552  27.023  49.251  1.00  0.00     0.078 C 
HETATM   18  C   UNL     1       4.260  28.382  48.623  1.00  0.00     0.032 C 
HETATM   19  C   UNL     1       3.659  25.945  48.637  1.00  0.00     0.032 C 
ENDBRANCH  12  17
ENDBRANCH   1   7
BRANCH   6  20
HETATM   20  N   UNL     1       7.956  27.421  57.492  1.00  0.00    -0.320 N 
HETATM   21  C   UNL     1       8.959  28.334  57.206  1.00  0.00     0.256 C 
HETATM   22  O   UNL     1       9.909  28.146  56.452  1.00  0.00    -0.267 OA
HETATM   23  H   UNL     1       7.698  27.414  58.472  1.00  0.00     0.169 HD
BRANCH  21  24
HETATM   24  C   UNL     1       8.867  29.611  57.957  1.00  0.00     0.032 A 
HETATM   25  C   UNL     1       7.678  29.924  58.619  1.00  0.00     0.020 A 
HETATM   26  C   UNL     1       7.587  31.108  59.354  1.00  0.00     0.038 A 
HETATM   27  C   UNL     1       8.686  31.965  59.458  1.00  0.00     0.068 A 
HETATM   28  C   UNL     1       9.873  31.649  58.794  1.00  0.00     0.038 A 
HETATM   29  C   UNL     1       9.968  30.471  58.046  1.00  0.00     0.020 A 
BRANCH  27  30
HETATM   30  O   UNL     1       8.476  33.079  60.223  1.00  0.00    -0.356 OA
HETATM   31  C   UNL     1       7.494  32.957  61.246  1.00  0.00     0.210 C 
ENDBRANCH  27  30
ENDBRANCH  21  24
ENDBRANCH   6  20
TORSDOF 5
ENDMDL
MODEL 10
REMARK VINA RESULT:      -7.7      3.424      7.073
REMARK  5 active torsions:
REMARK  status: ('A' for Active; 'I' for Inactive)
REMARK    1  A    between atoms: C_2  and  N_3 
REMARK       I    between atoms: N_3  and  C_4 
REMARK       I    between atoms: C_4  and  N_5 
REMARK    2  A    between atoms: C_7  and  C_8 
REMARK    3  A    between atoms: C_13  and  N_14 
REMARK       I    between atoms: N_14  and  C_15 
REMARK    4  A    between atoms: C_15  and  C_16 
REMARK    5  A    between atoms: C_19  and  O_20 
ROOT
HETATM    1  C   UNL     1       5.451  28.932  55.070  1.00  0.00     0.088 A 
HETATM    2  N   UNL     1       5.774  29.872  55.980  1.00  0.00    -0.177 NA
HETATM    3  N   UNL     1       5.184  30.990  55.539  1.00  0.00    -0.287 N 
HETATM    4  H   UNL     1       5.312  31.841  56.076  1.00  0.00     0.188 HD
HETATM    5  C   UNL     1       4.443  30.809  54.413  1.00  0.00     0.141 A 
HETATM    6  C   UNL     1       4.662  29.509  54.027  1.00  0.00     0.079 A 
ENDROOT
BRANCH   1   7
HETATM    7  C   UNL     1       5.752  27.473  55.366  1.00  0.00     0.060 C 
HETATM    8  C   UNL     1       7.238  27.161  55.591  1.00  0.00     0.138 C 
HETATM    9  N   UNL     1       7.459  25.736  55.860  1.00  0.00    -0.334 N 
HETATM   10  C   UNL     1       7.834  24.926  54.795  1.00  0.00     0.318 C 
HETATM   11  C   UNL     1       6.760  25.239  57.042  1.00  0.00     0.127 C 
HETATM   12  N   UNL     1       8.156  23.641  55.156  1.00  0.00    -0.339 N 
HETATM   13  O   UNL     1       7.901  25.322  53.634  1.00  0.00    -0.247 OA
HETATM   14  H   UNL     1       8.546  23.578  56.085  1.00  0.00     0.164 HD
HETATM   15  C   UNL     1       5.259  25.457  56.873  1.00  0.00     0.021 C 
HETATM   16  C   UNL     1       4.941  26.924  56.572  1.00  0.00     0.014 C 
BRANCH  12  17
HETATM   17  C   UNL     1       8.678  22.693  54.182  1.00  0.00     0.078 C 
HETATM   18  C   UNL     1       7.524  21.998  53.466  1.00  0.00     0.032 C 
HETATM   19  C   UNL     1       9.589  21.665  54.855  1.00  0.00     0.032 C 
ENDBRANCH  12  17
ENDBRANCH   1   7
BRANCH   6  20
HETATM   20  N   UNL     1       4.112  28.956  52.885  1.00  0.00    -0.320 N 
HETATM   21  C   UNL     1       4.906  28.774  51.762  1.00  0.00     0.256 C 
HETATM   22  O   UNL     1       6.084  29.099  51.655  1.00  0.00    -0.267 OA
HETATM   23  H   UNL     1       3.173  29.262  52.657  1.00  0.00     0.169 HD
BRANCH  21  24
HETATM   24  C   UNL     1       4.200  28.194  50.592  1.00  0.00     0.032 A 
HETATM   25  C   UNL     1       4.705  27.033  50.004  1.00  0.00     0.020 A 
HETATM   26  C   UNL     1       4.035  26.460  48.921  1.00  0.00     0.038 A 
HETATM   27  C   UNL     1       2.848  27.022  48.442  1.00  0.00     0.068 A 
HETATM   28  C   UNL     1       2.347  28.184  49.033  1.00  0.00     0.038 A 
HETATM   29  C   UNL     1       3.019  28.770  50.111  1.00  0.00     0.020 A 
BRANCH  27  30
HETATM   30  O   UNL     1       2.277  26.355  47.393  1.00  0.00    -0.356 OA
HETATM   31  C   UNL     1       1.171  26.999  46.772  1.00  0.00     0.210 C 
ENDBRANCH  27  30
ENDBRANCH  21  24
ENDBRANCH   6  20
TORSDOF 5
ENDMDL
