MODEL 1
REMARK VINA RESULT:      -9.2      0.000      0.000
REMARK  7 active torsions:
REMARK  status: ('A' for Active; 'I' for Inactive)
REMARK    1  A    between atoms: CG_4  and  CB_5 
REMARK    2  A    between atoms: CB_5  and  CA_6 
REMARK    3  A    between atoms: CA_6  and  N_7 
REMARK    4  A    between atoms: CA_6  and  C_8 
REMARK       I    between atoms: N_7  and  C_14 
REMARK    5  A    between atoms: C_8  and  O_9 
REMARK       I    between atoms: C_14  and  N_15 
REMARK    6  A    between atoms: N_15  and  C_16 
REMARK    7  A    between atoms: C_22  and  C_23 
ROOT
ATOM      1  N   PHE A   1       6.384  26.086  54.586  1.00  0.00    -0.336 N 
ATOM      2  H   PHE A   1       5.796  25.521  55.179  1.00  0.00     0.164 HD
HETATM    3  C   UNK A   0       6.702  27.358  55.002  1.00  0.00     0.321 C 
HETATM    4  N   UNK A   0       6.480  27.517  56.348  1.00  0.00    -0.309 N 
HETATM    5  O   UNK A   0       7.123  28.194  54.213  1.00  0.00    -0.247 OA
HETATM    6  H   UNK A   0       6.162  26.698  56.842  1.00  0.00     0.170 HD
ENDROOT
BRANCH   1   7
ATOM      7  CA  PHE A   1       6.605  25.628  53.206  1.00  0.00     0.113 C 
BRANCH   7   8
ATOM      8  CB  PHE A   1       7.938  24.856  53.098  1.00  0.00     0.065 C 
BRANCH   8   9
ATOM      9  CG  PHE A   1       7.884  23.455  53.667  1.00  0.00    -0.056 A 
ATOM     10  CD1 PHE A   1       7.948  22.341  52.818  1.00  0.00     0.007 A 
ATOM     11  CE1 PHE A   1       7.898  21.047  53.343  1.00  0.00     0.001 A 
ATOM     12  CZ  PHE A   1       7.789  20.855  54.718  1.00  0.00     0.000 A 
ATOM     13  CE2 PHE A   1       7.735  21.953  55.572  1.00  0.00     0.001 A 
ATOM     14  CD2 PHE A   1       7.787  23.248  55.050  1.00  0.00     0.007 A 
ENDBRANCH   8   9
ENDBRANCH   7   8
BRANCH   7  15
ATOM     15  C   PHE A   1       5.443  24.738  52.718  1.00  0.00     0.189 C 
BRANCH  15  16
ATOM     16  O   PHE A   1       4.179  25.159  53.224  1.00  0.00    -0.399 OA
ATOM     17  H   PHE A   1       3.974  26.041  52.841  1.00  0.00     0.209 HD
ENDBRANCH  15  16
ENDBRANCH   7  15
ENDBRANCH   1   7
BRANCH   4  18
HETATM   18  C   UNK A   0       6.733  28.661  57.136  1.00  0.00     0.038 A 
HETATM   19  C   UNK A   0       7.753  28.735  58.092  1.00  0.00     0.063 A 
HETATM   20  C   UNK A   0       7.896  29.910  58.849  1.00  0.00     0.087 A 
HETATM   21  C   UNK A   0       7.037  30.978  58.623  1.00  0.00     0.063 A 
HETATM   22  N   UNK A   0       8.792  30.209  59.847  1.00  0.00    -0.228 NA
HETATM   23  N   UNK A   0       7.442  31.937  59.515  1.00  0.00    -0.338 N 
HETATM   24  C   UNK A   0       6.020  30.951  57.671  1.00  0.00     0.034 A 
HETATM   25  H   UNK A   0       7.036  32.854  59.634  1.00  0.00     0.167 HD
HETATM   26  C   UNK A   0       8.494  31.435  60.241  1.00  0.00     0.170 A 
HETATM   27  C   UNK A   0       5.886  29.765  56.936  1.00  0.00     0.032 A 
BRANCH  26  28
HETATM   28  C   UNK A   0       9.138  32.239  61.310  1.00  0.00     0.422 C 
HETATM   29  F   UNK A   0       8.658  31.881  62.534  1.00  0.00    -0.206 F 
HETATM   30  F   UNK A   0      10.477  31.990  61.357  1.00  0.00    -0.206 F 
ENDBRANCH  26  28
ENDBRANCH   4  18
TORSDOF 7
ENDMDL
MODEL 2
REMARK VINA RESULT:      -9.1      6.155      8.644
REMARK  7 active torsions:
REMARK  status: ('A' for Active; 'I' for Inactive)
REMARK    1  A    between atoms: CG_4  and  CB_5 
REMARK    2  A    between atoms: CB_5  and  CA_6 
REMARK    3  A    between atoms: CA_6  and  N_7 
REMARK    4  A    between atoms: CA_6  and  C_8 
REMARK       I    between atoms: N_7  and  C_14 
REMARK    5  A    between atoms: C_8  and  O_9 
REMARK       I    between atoms: C_14  and  N_15 
REMARK    6  A    between atoms: N_15  and  C_16 
REMARK    7  A    between atoms: C_22  and  C_23 
ROOT
ATOM      1  N   PHE A   1       7.322  25.935  55.094  1.00  0.00    -0.336 N 
ATOM      2  H   PHE A   1       7.975  26.703  55.098  1.00  0.00     0.164 HD
HETATM    3  C   UNK A   0       6.274  25.974  54.204  1.00  0.00     0.321 C 
HETATM    4  N   UNK A   0       6.505  26.875  53.193  1.00  0.00    -0.309 N 
HETATM    5  O   UNK A   0       5.287  25.265  54.358  1.00  0.00    -0.247 OA
HETATM    6  H   UNK A   0       7.396  27.343  53.216  1.00  0.00     0.170 HD
ENDROOT
BRANCH   1   7
ATOM      7  CA  PHE A   1       7.364  24.995  56.223  1.00  0.00     0.113 C 
BRANCH   7   8
ATOM      8  CB  PHE A   1       8.578  24.050  56.098  1.00  0.00     0.065 C 
BRANCH   8   9
ATOM      9  CG  PHE A   1       8.319  22.827  55.246  1.00  0.00    -0.056 A 
ATOM     10  CD1 PHE A   1       8.086  21.581  55.843  1.00  0.00     0.007 A 
ATOM     11  CE1 PHE A   1       7.848  20.451  55.056  1.00  0.00     0.001 A 
ATOM     12  CZ  PHE A   1       7.836  20.557  53.667  1.00  0.00     0.000 A 
ATOM     13  CE2 PHE A   1       8.056  21.791  53.062  1.00  0.00     0.001 A 
ATOM     14  CD2 PHE A   1       8.292  22.923  53.847  1.00  0.00     0.007 A 
ENDBRANCH   8   9
ENDBRANCH   7   8
BRANCH   7  15
ATOM     15  C   PHE A   1       7.419  25.743  57.573  1.00  0.00     0.189 C 
BRANCH  15  16
ATOM     16  O   PHE A   1       8.348  25.162  58.484  1.00  0.00    -0.399 OA
ATOM     17  H   PHE A   1       8.100  25.439  59.393  1.00  0.00     0.209 HD
ENDBRANCH  15  16
ENDBRANCH   7  15
ENDBRANCH   1   7
BRANCH   4  18
HETATM   18  C   UNK A   0       5.683  27.153  52.079  1.00  0.00     0.038 A 
HETATM   19  C   UNK A   0       5.308  26.193  51.132  1.00  0.00     0.063 A 
HETATM   20  C   UNK A   0       4.515  26.584  50.040  1.00  0.00     0.087 A 
HETATM   21  C   UNK A   0       4.107  27.907  49.930  1.00  0.00     0.063 A 
HETATM   22  N   UNK A   0       4.046  25.840  48.983  1.00  0.00    -0.228 NA
HETATM   23  N   UNK A   0       3.372  27.942  48.773  1.00  0.00    -0.338 N 
HETATM   24  C   UNK A   0       4.445  28.889  50.858  1.00  0.00     0.034 A 
HETATM   25  H   UNK A   0       2.918  28.753  48.376  1.00  0.00     0.167 HD
HETATM   26  C   UNK A   0       3.365  26.683  48.226  1.00  0.00     0.170 A 
HETATM   27  C   UNK A   0       5.247  28.481  51.933  1.00  0.00     0.032 A 
BRANCH  26  28
HETATM   28  C   UNK A   0       2.664  26.409  46.947  1.00  0.00     0.422 C 
HETATM   29  F   UNK A   0       2.788  25.096  46.604  1.00  0.00    -0.206 F 
HETATM   30  F   UNK A   0       1.324  26.625  47.079  1.00  0.00    -0.206 F 
ENDBRANCH  26  28
ENDBRANCH   4  18
TORSDOF 7
ENDMDL
MODEL 3
REMARK VINA RESULT:      -9.1      1.109      1.512
REMARK  7 active torsions:
REMARK  status: ('A' for Active; 'I' for Inactive)
REMARK    1  A    between atoms: CG_4  and  CB_5 
REMARK    2  A    between atoms: CB_5  and  CA_6 
REMARK    3  A    between atoms: CA_6  and  N_7 
REMARK    4  A    between atoms: CA_6  and  C_8 
REMARK       I    between atoms: N_7  and  C_14 
REMARK    5  A    between atoms: C_8  and  O_9 
REMARK       I    between atoms: C_14  and  N_15 
REMARK    6  A    between atoms: N_15  and  C_16 
REMARK    7  A    between atoms: C_22  and  C_23 
ROOT
ATOM      1  N   PHE A   1       7.144  26.827  53.636  1.00  0.00    -0.336 N 
ATOM      2  H   PHE A   1       8.110  26.938  53.374  1.00  0.00     0.164 HD
HETATM    3  C   UNK A   0       6.721  27.377  54.824  1.00  0.00     0.321 C 
HETATM    4  N   UNK A   0       7.604  28.326  55.280  1.00  0.00    -0.309 N 
HETATM    5  O   UNK A   0       5.678  27.016  55.352  1.00  0.00    -0.247 OA
HETATM    6  H   UNK A   0       8.395  28.513  54.686  1.00  0.00     0.170 HD
ENDROOT
BRANCH   1   7
ATOM      7  CA  PHE A   1       6.341  25.845  52.892  1.00  0.00     0.113 C 
BRANCH   7   8
ATOM      8  CB  PHE A   1       5.964  24.654  53.799  1.00  0.00     0.065 C 
BRANCH   8   9
ATOM      9  CG  PHE A   1       7.123  23.734  54.118  1.00  0.00    -0.056 A 
ATOM     10  CD1 PHE A   1       7.652  23.681  55.415  1.00  0.00     0.007 A 
ATOM     11  CE1 PHE A   1       8.722  22.832  55.709  1.00  0.00     0.001 A 
ATOM     12  CZ  PHE A   1       9.269  22.026  54.714  1.00  0.00     0.000 A 
ATOM     13  CE2 PHE A   1       8.744  22.061  53.424  1.00  0.00     0.001 A 
ATOM     14  CD2 PHE A   1       7.673  22.908  53.128  1.00  0.00     0.007 A 
ENDBRANCH   8   9
ENDBRANCH   7   8
BRANCH   7  15
ATOM     15  C   PHE A   1       5.062  26.489  52.315  1.00  0.00     0.189 C 
BRANCH  15  16
ATOM     16  O   PHE A   1       3.911  26.232  53.115  1.00  0.00    -0.399 OA
ATOM     17  H   PHE A   1       4.171  25.625  53.842  1.00  0.00     0.209 HD
ENDBRANCH  15  16
ENDBRANCH   7  15
ENDBRANCH   1   7
BRANCH   4  18
HETATM   18  C   UNK A   0       7.485  29.132  56.433  1.00  0.00     0.038 A 
HETATM   19  C   UNK A   0       8.382  29.088  57.507  1.00  0.00     0.063 A 
HETATM   20  C   UNK A   0       8.151  29.909  58.624  1.00  0.00     0.087 A 
HETATM   21  C   UNK A   0       7.051  30.757  58.634  1.00  0.00     0.063 A 
HETATM   22  N   UNK A   0       8.865  30.023  59.793  1.00  0.00    -0.228 NA
HETATM   23  N   UNK A   0       7.122  31.393  59.846  1.00  0.00    -0.338 N 
HETATM   24  C   UNK A   0       6.145  30.843  57.580  1.00  0.00     0.034 A 
HETATM   25  H   UNK A   0       6.475  32.086  60.198  1.00  0.00     0.167 HD
HETATM   26  C   UNK A   0       8.220  30.919  60.520  1.00  0.00     0.170 A 
HETATM   27  C   UNK A   0       6.385  30.007  56.481  1.00  0.00     0.032 A 
BRANCH  26  28
HETATM   28  C   UNK A   0       8.550  31.407  61.883  1.00  0.00     0.422 C 
HETATM   29  F   UNK A   0       8.551  30.377  62.774  1.00  0.00    -0.206 F 
HETATM   30  F   UNK A   0       9.814  31.918  61.917  1.00  0.00    -0.206 F 
ENDBRANCH  26  28
ENDBRANCH   4  18
TORSDOF 7
ENDMDL
MODEL 4
REMARK VINA RESULT:      -8.8      7.021     10.021
REMARK  7 active torsions:
REMARK  status: ('A' for Active; 'I' for Inactive)
REMARK    1  A    between atoms: CG_4  and  CB_5 
REMARK    2  A    between atoms: CB_5  and  CA_6 
REMARK    3  A    between atoms: CA_6  and  N_7 
REMARK    4  A    between atoms: CA_6  and  C_8 
REMARK       I    between atoms: N_7  and  C_14 
REMARK    5  A    between atoms: C_8  and  O_9 
REMARK       I    between atoms: C_14  and  N_15 
REMARK    6  A    between atoms: N_15  and  C_16 
REMARK    7  A    between atoms: C_22  and  C_23 
ROOT
ATOM      1  N   PHE A   1       6.482  25.742  51.899  1.00  0.00    -0.336 N 
ATOM      2  H   PHE A   1       7.214  26.326  51.528  1.00  0.00     0.164 HD
HETATM    3  C   UNK A   0       5.246  25.780  51.295  1.00  0.00     0.321 C 
HETATM    4  N   UNK A   0       5.319  26.326  50.037  1.00  0.00    -0.309 N 
HETATM    5  O   UNK A   0       4.249  25.363  51.869  1.00  0.00    -0.247 OA
HETATM    6  H   UNK A   0       6.240  26.581  49.719  1.00  0.00     0.170 HD
ENDROOT
BRANCH   1   7
ATOM      7  CA  PHE A   1       6.696  25.131  53.219  1.00  0.00     0.113 C 
BRANCH   7   8
ATOM      8  CB  PHE A   1       8.094  24.481  53.295  1.00  0.00     0.065 C 
BRANCH   8   9
ATOM      9  CG  PHE A   1       8.078  23.039  53.756  1.00  0.00    -0.056 A 
ATOM     10  CD1 PHE A   1       8.079  22.730  55.123  1.00  0.00     0.007 A 
ATOM     11  CE1 PHE A   1       8.064  21.399  55.548  1.00  0.00     0.001 A 
ATOM     12  CZ  PHE A   1       8.044  20.367  54.613  1.00  0.00     0.000 A 
ATOM     13  CE2 PHE A   1       8.032  20.662  53.252  1.00  0.00     0.001 A 
ATOM     14  CD2 PHE A   1       8.044  21.991  52.825  1.00  0.00     0.007 A 
ENDBRANCH   8   9
ENDBRANCH   7   8
BRANCH   7  15
ATOM     15  C   PHE A   1       6.539  26.170  54.350  1.00  0.00     0.189 C 
BRANCH  15  16
ATOM     16  O   PHE A   1       5.187  26.317  54.775  1.00  0.00    -0.399 OA
ATOM     17  H   PHE A   1       4.713  25.477  54.588  1.00  0.00     0.209 HD
ENDBRANCH  15  16
ENDBRANCH   7  15
ENDBRANCH   1   7
BRANCH   4  18
HETATM   18  C   UNK A   0       4.272  26.485  49.103  1.00  0.00     0.038 A 
HETATM   19  C   UNK A   0       3.503  27.650  48.989  1.00  0.00     0.063 A 
HETATM   20  C   UNK A   0       2.460  27.690  48.049  1.00  0.00     0.087 A 
HETATM   21  C   UNK A   0       2.222  26.584  47.242  1.00  0.00     0.063 A 
HETATM   22  N   UNK A   0       1.565  28.697  47.771  1.00  0.00    -0.228 NA
HETATM   23  N   UNK A   0       1.155  26.953  46.464  1.00  0.00    -0.338 N 
HETATM   24  C   UNK A   0       2.973  25.413  47.313  1.00  0.00     0.034 A 
HETATM   25  H   UNK A   0       0.706  26.388  45.756  1.00  0.00     0.167 HD
HETATM   26  C   UNK A   0       0.782  28.227  46.817  1.00  0.00     0.170 A 
HETATM   27  C   UNK A   0       4.000  25.388  48.266  1.00  0.00     0.032 A 
BRANCH  26  28
HETATM   28  C   UNK A   0      -0.369  28.895  46.159  1.00  0.00     0.422 C 
HETATM   29  F   UNK A   0      -1.482  28.113  46.229  1.00  0.00    -0.206 F 
HETATM   30  F   UNK A   0      -0.693  30.047  46.814  1.00  0.00    -0.206 F 
ENDBRANCH  26  28
ENDBRANCH   4  18
TORSDOF 7
ENDMDL
MODEL 5
REMARK VINA RESULT:      -8.8      1.541      1.979
REMARK  7 active torsions:
REMARK  status: ('A' for Active; 'I' for Inactive)
REMARK    1  A    between atoms: CG_4  and  CB_5 
REMARK    2  A    between atoms: CB_5  and  CA_6 
REMARK    3  A    between atoms: CA_6  and  N_7 
REMARK    4  A    between atoms: CA_6  and  C_8 
REMARK       I    between atoms: N_7  and  C_14 
REMARK    5  A    between atoms: C_8  and  O_9 
REMARK       I    between atoms: C_14  and  N_15 
REMARK    6  A    between atoms: N_15  and  C_16 
REMARK    7  A    between atoms: C_22  and  C_23 
ROOT
ATOM      1  N   PHE A   1       5.956  27.679  53.275  1.00  0.00    -0.336 N 
ATOM      2  H   PHE A   1       5.174  28.313  53.261  1.00  0.00     0.164 HD
HETATM    3  C   UNK A   0       7.011  27.960  54.111  1.00  0.00     0.321 C 
HETATM    4  N   UNK A   0       6.655  28.863  55.084  1.00  0.00    -0.309 N 
HETATM    5  O   UNK A   0       8.105  27.435  53.948  1.00  0.00    -0.247 OA
HETATM    6  H   UNK A   0       5.692  29.159  55.078  1.00  0.00     0.170 HD
ENDROOT
BRANCH   1   7
ATOM      7  CA  PHE A   1       6.047  26.681  52.198  1.00  0.00     0.113 C 
BRANCH   7   8
ATOM      8  CB  PHE A   1       5.441  25.336  52.653  1.00  0.00     0.065 C 
BRANCH   8   9
ATOM      9  CG  PHE A   1       6.423  24.428  53.362  1.00  0.00    -0.056 A 
ATOM     10  CD1 PHE A   1       7.367  23.693  52.631  1.00  0.00     0.007 A 
ATOM     11  CE1 PHE A   1       8.272  22.855  53.285  1.00  0.00     0.001 A 
ATOM     12  CZ  PHE A   1       8.246  22.746  54.673  1.00  0.00     0.000 A 
ATOM     13  CE2 PHE A   1       7.320  23.479  55.411  1.00  0.00     0.001 A 
ATOM     14  CD2 PHE A   1       6.416  24.320  54.760  1.00  0.00     0.007 A 
ENDBRANCH   8   9
ENDBRANCH   7   8
BRANCH   7  15
ATOM     15  C   PHE A   1       5.335  27.171  50.919  1.00  0.00     0.189 C 
BRANCH  15  16
ATOM     16  O   PHE A   1       4.376  26.236  50.434  1.00  0.00    -0.399 OA
ATOM     17  H   PHE A   1       4.436  25.422  50.981  1.00  0.00     0.209 HD
ENDBRANCH  15  16
ENDBRANCH   7  15
ENDBRANCH   1   7
BRANCH   4  18
HETATM   18  C   UNK A   0       7.451  29.352  56.142  1.00  0.00     0.038 A 
HETATM   19  C   UNK A   0       6.927  29.864  57.335  1.00  0.00     0.063 A 
HETATM   20  C   UNK A   0       7.809  30.358  58.311  1.00  0.00     0.087 A 
HETATM   21  C   UNK A   0       9.179  30.316  58.082  1.00  0.00     0.063 A 
HETATM   22  N   UNK A   0       7.538  30.924  59.535  1.00  0.00    -0.228 NA
HETATM   23  N   UNK A   0       9.730  30.871  59.207  1.00  0.00    -0.338 N 
HETATM   24  C   UNK A   0       9.740  29.800  56.916  1.00  0.00     0.034 A 
HETATM   25  H   UNK A   0      10.716  31.005  59.387  1.00  0.00     0.167 HD
HETATM   26  C   UNK A   0       8.713  31.234  60.054  1.00  0.00     0.170 A 
HETATM   27  C   UNK A   0       8.843  29.324  55.950  1.00  0.00     0.032 A 
BRANCH  26  28
HETATM   28  C   UNK A   0       8.999  31.889  61.356  1.00  0.00     0.422 C 
HETATM   29  F   UNK A   0       8.610  31.091  62.389  1.00  0.00    -0.206 F 
HETATM   30  F   UNK A   0      10.341  32.064  61.518  1.00  0.00    -0.206 F 
ENDBRANCH  26  28
ENDBRANCH   4  18
TORSDOF 7
ENDMDL
MODEL 6
REMARK VINA RESULT:      -8.8      4.408      9.370
REMARK  7 active torsions:
REMARK  status: ('A' for Active; 'I' for Inactive)
REMARK    1  A    between atoms: CG_4  and  CB_5 
REMARK    2  A    between atoms: CB_5  and  CA_6 
REMARK    3  A    between atoms: CA_6  and  N_7 
REMARK    4  A    between atoms: CA_6  and  C_8 
REMARK       I    between atoms: N_7  and  C_14 
REMARK    5  A    between atoms: C_8  and  O_9 
REMARK       I    between atoms: C_14  and  N_15 
REMARK    6  A    between atoms: N_15  and  C_16 
REMARK    7  A    between atoms: C_22  and  C_23 
ROOT
ATOM      1  N   PHE A   1       7.176  29.396  56.619  1.00  0.00    -0.336 N 
ATOM      2  H   PHE A   1       7.387  30.020  55.857  1.00  0.00     0.164 HD
HETATM    3  C   UNK A   0       6.996  28.061  56.340  1.00  0.00     0.321 C 
HETATM    4  N   UNK A   0       7.515  27.729  55.112  1.00  0.00    -0.309 N 
HETATM    5  O   UNK A   0       6.431  27.319  57.133  1.00  0.00    -0.247 OA
HETATM    6  H   UNK A   0       7.977  28.473  54.614  1.00  0.00     0.170 HD
ENDROOT
BRANCH   1   7
ATOM      7  CA  PHE A   1       6.784  29.992  57.904  1.00  0.00     0.113 C 
BRANCH   7   8
ATOM      8  CB  PHE A   1       7.729  31.156  58.273  1.00  0.00     0.065 C 
BRANCH   8   9
ATOM      9  CG  PHE A   1       7.951  31.320  59.761  1.00  0.00    -0.056 A 
ATOM     10  CD1 PHE A   1       8.882  30.518  60.434  1.00  0.00     0.007 A 
ATOM     11  CE1 PHE A   1       9.086  30.670  61.807  1.00  0.00     0.001 A 
ATOM     12  CZ  PHE A   1       8.366  31.627  62.519  1.00  0.00     0.000 A 
ATOM     13  CE2 PHE A   1       7.446  32.437  61.860  1.00  0.00     0.001 A 
ATOM     14  CD2 PHE A   1       7.241  32.289  60.486  1.00  0.00     0.007 A 
ENDBRANCH   8   9
ENDBRANCH   7   8
BRANCH   7  15
ATOM     15  C   PHE A   1       5.324  30.495  57.867  1.00  0.00     0.189 C 
BRANCH  15  16
ATOM     16  O   PHE A   1       4.380  29.453  58.093  1.00  0.00    -0.399 OA
ATOM     17  H   PHE A   1       3.557  29.856  58.447  1.00  0.00     0.209 HD
ENDBRANCH  15  16
ENDBRANCH   7  15
ENDBRANCH   1   7
BRANCH   4  18
HETATM   18  C   UNK A   0       7.561  26.453  54.509  1.00  0.00     0.038 A 
HETATM   19  C   UNK A   0       7.566  25.253  55.231  1.00  0.00     0.063 A 
HETATM   20  C   UNK A   0       7.650  24.037  54.533  1.00  0.00     0.087 A 
HETATM   21  C   UNK A   0       7.709  24.047  53.145  1.00  0.00     0.063 A 
HETATM   22  N   UNK A   0       7.695  22.749  55.013  1.00  0.00    -0.228 NA
HETATM   23  N   UNK A   0       7.789  22.724  52.797  1.00  0.00    -0.338 N 
HETATM   24  C   UNK A   0       7.690  25.217  52.390  1.00  0.00     0.034 A 
HETATM   25  H   UNK A   0       7.849  22.353  51.859  1.00  0.00     0.167 HD
HETATM   26  C   UNK A   0       7.787  21.973  53.947  1.00  0.00     0.170 A 
HETATM   27  C   UNK A   0       7.620  26.420  53.105  1.00  0.00     0.032 A 
BRANCH  26  28
HETATM   28  C   UNK A   0       7.887  20.493  53.894  1.00  0.00     0.422 C 
HETATM   29  F   UNK A   0       8.523  20.097  52.756  1.00  0.00    -0.206 F 
HETATM   30  F   UNK A   0       8.655  20.027  54.920  1.00  0.00    -0.206 F 
ENDBRANCH  26  28
ENDBRANCH   4  18
TORSDOF 7
ENDMDL
MODEL 7
REMARK VINA RESULT:      -8.7      4.767     10.065
REMARK  7 active torsions:
REMARK  status: ('A' for Active; 'I' for Inactive)
REMARK    1  A    between atoms: CG_4  and  CB_5 
REMARK    2  A    between atoms: CB_5  and  CA_6 
REMARK    3  A    between atoms: CA_6  and  N_7 
REMARK    4  A    between atoms: CA_6  and  C_8 
REMARK       I    between atoms: N_7  and  C_14 
REMARK    5  A    between atoms: C_8  and  O_9 
REMARK       I    between atoms: C_14  and  N_15 
REMARK    6  A    between atoms: N_15  and  C_16 
REMARK    7  A    between atoms: C_22  and  C_23 
ROOT
ATOM      1  N   PHE A   1       8.385  30.094  59.637  1.00  0.00    -0.336 N 
ATOM      2  H   PHE A   1       9.105  29.425  59.860  1.00  0.00     0.164 HD
HETATM    3  C   UNK A   0       7.611  29.872  58.521  1.00  0.00     0.321 C 
HETATM    4  N   UNK A   0       7.693  28.566  58.103  1.00  0.00    -0.309 N 
HETATM    5  O   UNK A   0       6.959  30.776  58.015  1.00  0.00    -0.247 OA
HETATM    6  H   UNK A   0       8.258  27.957  58.673  1.00  0.00     0.170 HD
ENDROOT
BRANCH   1   7
ATOM      7  CA  PHE A   1       8.412  31.388  60.334  1.00  0.00     0.113 C 
BRANCH   7   8
ATOM      8  CB  PHE A   1       8.196  31.192  61.850  1.00  0.00     0.065 C 
BRANCH   8   9
ATOM      9  CG  PHE A   1       7.576  32.386  62.542  1.00  0.00    -0.056 A 
ATOM     10  CD1 PHE A   1       7.866  32.659  63.886  1.00  0.00     0.007 A 
ATOM     11  CE1 PHE A   1       7.293  33.761  64.525  1.00  0.00     0.001 A 
ATOM     12  CZ  PHE A   1       6.430  34.602  63.827  1.00  0.00     0.000 A 
ATOM     13  CE2 PHE A   1       6.142  34.348  62.489  1.00  0.00     0.001 A 
ATOM     14  CD2 PHE A   1       6.716  33.248  61.847  1.00  0.00     0.007 A 
ENDBRANCH   8   9
ENDBRANCH   7   8
BRANCH   7  15
ATOM     15  C   PHE A   1       9.743  32.130  60.085  1.00  0.00     0.189 C 
BRANCH  15  16
ATOM     16  O   PHE A   1      10.001  32.343  58.701  1.00  0.00    -0.399 OA
ATOM     17  H   PHE A   1      10.449  31.545  58.345  1.00  0.00     0.209 HD
ENDBRANCH  15  16
ENDBRANCH   7  15
ENDBRANCH   1   7
BRANCH   4  18
HETATM   18  C   UNK A   0       7.007  27.959  57.029  1.00  0.00     0.038 A 
HETATM   19  C   UNK A   0       7.615  27.615  55.815  1.00  0.00     0.063 A 
HETATM   20  C   UNK A   0       6.832  27.046  54.797  1.00  0.00     0.087 A 
HETATM   21  C   UNK A   0       5.479  26.822  55.018  1.00  0.00     0.063 A 
HETATM   22  N   UNK A   0       7.190  26.653  53.529  1.00  0.00    -0.228 NA
HETATM   23  N   UNK A   0       5.028  26.276  53.844  1.00  0.00    -0.338 N 
HETATM   24  C   UNK A   0       4.840  27.134  56.215  1.00  0.00     0.034 A 
HETATM   25  H   UNK A   0       4.080  25.987  53.643  1.00  0.00     0.167 HD
HETATM   26  C   UNK A   0       6.083  26.199  52.969  1.00  0.00     0.170 A 
HETATM   27  C   UNK A   0       5.636  27.713  57.214  1.00  0.00     0.032 A 
BRANCH  26  28
HETATM   28  C   UNK A   0       5.898  25.667  51.595  1.00  0.00     0.422 C 
HETATM   29  F   UNK A   0       4.707  25.015  51.489  1.00  0.00    -0.206 F 
HETATM   30  F   UNK A   0       5.837  26.686  50.691  1.00  0.00    -0.206 F 
ENDBRANCH  26  28
ENDBRANCH   4  18
TORSDOF 7
ENDMDL
MODEL 8
REMARK VINA RESULT:      -8.6      6.093      8.783
REMARK  7 active torsions:
REMARK  status: ('A' for Active; 'I' for Inactive)
REMARK    1  A    between atoms: CG_4  and  CB_5 
REMARK    2  A    between atoms: CB_5  and  CA_6 
REMARK    3  A    between atoms: CA_6  and  N_7 
REMARK    4  A    between atoms: CA_6  and  C_8 
REMARK       I    between atoms: N_7  and  C_14 
REMARK    5  A    between atoms: C_8  and  O_9 
REMARK       I    between atoms: C_14  and  N_15 
REMARK    6  A    between atoms: N_15  and  C_16 
REMARK    7  A    between atoms: C_22  and  C_23 
ROOT
ATOM      1  N   PHE A   1       3.458  28.100  52.116  1.00  0.00    -0.336 N 
ATOM      2  H   PHE A   1       2.632  27.928  52.668  1.00  0.00     0.164 HD
HETATM    3  C   UNK A   0       4.618  27.444  52.455  1.00  0.00     0.321 C 
HETATM    4  N   UNK A   0       4.367  26.360  53.260  1.00  0.00    -0.309 N 
HETATM    5  O   UNK A   0       5.706  27.836  52.053  1.00  0.00    -0.247 OA
HETATM    6  H   UNK A   0       3.397  26.173  53.457  1.00  0.00     0.170 HD
ENDROOT
BRANCH   1   7
ATOM      7  CA  PHE A   1       3.439  29.246  51.196  1.00  0.00     0.113 C 
BRANCH   7   8
ATOM      8  CB  PHE A   1       2.216  29.169  50.258  1.00  0.00     0.065 C 
BRANCH   8   9
ATOM      9  CG  PHE A   1       2.376  28.187  49.118  1.00  0.00    -0.056 A 
ATOM     10  CD1 PHE A   1       1.255  27.727  48.414  1.00  0.00     0.007 A 
ATOM     11  CE1 PHE A   1       1.402  26.820  47.361  1.00  0.00     0.001 A 
ATOM     12  CZ  PHE A   1       2.670  26.369  47.000  1.00  0.00     0.000 A 
ATOM     13  CE2 PHE A   1       3.792  26.828  47.685  1.00  0.00     0.001 A 
ATOM     14  CD2 PHE A   1       3.647  27.736  48.736  1.00  0.00     0.007 A 
ENDBRANCH   8   9
ENDBRANCH   7   8
BRANCH   7  15
ATOM     15  C   PHE A   1       3.425  30.584  51.967  1.00  0.00     0.189 C 
BRANCH  15  16
ATOM     16  O   PHE A   1       4.683  30.886  52.563  1.00  0.00    -0.399 OA
ATOM     17  H   PHE A   1       4.620  31.773  52.980  1.00  0.00     0.209 HD
ENDBRANCH  15  16
ENDBRANCH   7  15
ENDBRANCH   1   7
BRANCH   4  18
HETATM   18  C   UNK A   0       5.296  25.425  53.766  1.00  0.00     0.038 A 
HETATM   19  C   UNK A   0       5.895  24.427  52.988  1.00  0.00     0.063 A 
HETATM   20  C   UNK A   0       6.781  23.524  53.600  1.00  0.00     0.087 A 
HETATM   21  C   UNK A   0       7.057  23.649  54.956  1.00  0.00     0.063 A 
HETATM   22  N   UNK A   0       7.465  22.461  53.059  1.00  0.00    -0.228 NA
HETATM   23  N   UNK A   0       7.933  22.628  55.220  1.00  0.00    -0.338 N 
HETATM   24  C   UNK A   0       6.495  24.636  55.761  1.00  0.00     0.034 A 
HETATM   25  H   UNK A   0       8.347  22.411  56.116  1.00  0.00     0.167 HD
HETATM   26  C   UNK A   0       8.147  21.929  54.058  1.00  0.00     0.170 A 
HETATM   27  C   UNK A   0       5.604  25.519  55.134  1.00  0.00     0.032 A 
BRANCH  26  28
HETATM   28  C   UNK A   0       9.040  20.742  54.033  1.00  0.00     0.422 C 
HETATM   29  F   UNK A   0       8.509  19.729  54.772  1.00  0.00    -0.206 F 
HETATM   30  F   UNK A   0       9.147  20.250  52.766  1.00  0.00    -0.206 F 
ENDBRANCH  26  28
ENDBRANCH   4  18
TORSDOF 7
ENDMDL
MODEL 9
REMARK VINA RESULT:      -8.5      4.400      6.696
REMARK  7 active torsions:
REMARK  status: ('A' for Active; 'I' for Inactive)
REMARK    1  A    between atoms: CG_4  and  CB_5 
REMARK    2  A    between atoms: CB_5  and  CA_6 
REMARK    3  A    between atoms: CA_6  and  N_7 
REMARK    4  A    between atoms: CA_6  and  C_8 
REMARK       I    between atoms: N_7  and  C_14 
REMARK    5  A    between atoms: C_8  and  O_9 
REMARK       I    between atoms: C_14  and  N_15 
REMARK    6  A    between atoms: N_15  and  C_16 
REMARK    7  A    between atoms: C_22  and  C_23 
ROOT
ATOM      1  N   PHE A   1       7.612  30.635  58.810  1.00  0.00    -0.336 N 
ATOM      2  H   PHE A   1       7.061  31.293  58.282  1.00  0.00     0.164 HD
HETATM    3  C   UNK A   0       7.823  30.883  60.146  1.00  0.00     0.321 C 
HETATM    4  N   UNK A   0       6.921  31.795  60.637  1.00  0.00    -0.309 N 
HETATM    5  O   UNK A   0       8.724  30.325  60.758  1.00  0.00    -0.247 OA
HETATM    6  H   UNK A   0       6.225  32.121  59.985  1.00  0.00     0.170 HD
ENDROOT
BRANCH   1   7
ATOM      7  CA  PHE A   1       8.389  29.636  58.061  1.00  0.00     0.113 C 
BRANCH   7   8
ATOM      8  CB  PHE A   1       7.609  29.166  56.814  1.00  0.00     0.065 C 
BRANCH   8   9
ATOM      9  CG  PHE A   1       7.062  27.760  56.925  1.00  0.00    -0.056 A 
ATOM     10  CD1 PHE A   1       7.903  26.696  57.280  1.00  0.00     0.007 A 
ATOM     11  CE1 PHE A   1       7.398  25.398  57.382  1.00  0.00     0.001 A 
ATOM     12  CZ  PHE A   1       6.049  25.151  57.135  1.00  0.00     0.000 A 
ATOM     13  CE2 PHE A   1       5.202  26.201  56.793  1.00  0.00     0.001 A 
ATOM     14  CD2 PHE A   1       5.704  27.500  56.692  1.00  0.00     0.007 A 
ENDBRANCH   8   9
ENDBRANCH   7   8
BRANCH   7  15
ATOM     15  C   PHE A   1       9.763  30.198  57.638  1.00  0.00     0.189 C 
BRANCH  15  16
ATOM     16  O   PHE A   1      10.596  29.211  57.035  1.00  0.00    -0.399 OA
ATOM     17  H   PHE A   1      11.533  29.477  57.168  1.00  0.00     0.209 HD
ENDBRANCH  15  16
ENDBRANCH   7  15
ENDBRANCH   1   7
BRANCH   4  18
HETATM   18  C   UNK A   0       6.796  32.259  61.965  1.00  0.00     0.038 A 
HETATM   19  C   UNK A   0       5.569  32.557  62.571  1.00  0.00     0.063 A 
HETATM   20  C   UNK A   0       5.560  33.047  63.888  1.00  0.00     0.087 A 
HETATM   21  C   UNK A   0       6.761  33.210  64.566  1.00  0.00     0.063 A 
HETATM   22  N   UNK A   0       4.500  33.427  64.676  1.00  0.00    -0.228 NA
HETATM   23  N   UNK A   0       6.396  33.699  65.794  1.00  0.00    -0.338 N 
HETATM   24  C   UNK A   0       8.000  32.910  64.005  1.00  0.00     0.034 A 
HETATM   25  H   UNK A   0       7.019  33.939  66.552  1.00  0.00     0.167 HD
HETATM   26  C   UNK A   0       5.029  33.826  65.820  1.00  0.00     0.170 A 
HETATM   27  C   UNK A   0       7.989  32.435  62.686  1.00  0.00     0.032 A 
BRANCH  26  28
HETATM   28  C   UNK A   0       4.334  34.358  67.019  1.00  0.00     0.422 C 
HETATM   29  F   UNK A   0       3.068  34.751  66.704  1.00  0.00    -0.206 F 
HETATM   30  F   UNK A   0       4.187  33.382  67.960  1.00  0.00    -0.206 F 
ENDBRANCH  26  28
ENDBRANCH   4  18
TORSDOF 7
ENDMDL
MODEL 10
REMARK VINA RESULT:      -8.5      5.687      7.719
REMARK  7 active torsions:
REMARK  status: ('A' for Active; 'I' for Inactive)
REMARK    1  A    between atoms: CG_4  and  CB_5 
REMARK    2  A    between atoms: CB_5  and  CA_6 
REMARK    3  A    between atoms: CA_6  and  N_7 
REMARK    4  A    between atoms: CA_6  and  C_8 
REMARK       I    between atoms: N_7  and  C_14 
REMARK    5  A    between atoms: C_8  and  O_9 
REMARK       I    between atoms: C_14  and  N_15 
REMARK    6  A    between atoms: N_15  and  C_16 
REMARK    7  A    between atoms: C_22  and  C_23 
ROOT
ATOM      1  N   PHE A   1       6.112  24.849  55.689  1.00  0.00    -0.336 N 
ATOM      2  H   PHE A   1       5.356  24.183  55.679  1.00  0.00     0.164 HD
HETATM    3  C   UNK A   0       6.181  25.774  54.672  1.00  0.00     0.321 C 
HETATM    4  N   UNK A   0       4.982  25.885  54.011  1.00  0.00    -0.309 N 
HETATM    5  O   UNK A   0       7.218  26.383  54.442  1.00  0.00    -0.247 OA
HETATM    6  H   UNK A   0       4.227  25.323  54.370  1.00  0.00     0.170 HD
ENDROOT
BRANCH   1   7
ATOM      7  CA  PHE A   1       7.235  24.597  56.604  1.00  0.00     0.113 C 
BRANCH   7   8
ATOM      8  CB  PHE A   1       8.478  24.128  55.819  1.00  0.00     0.065 C 
BRANCH   8   9
ATOM      9  CG  PHE A   1       8.267  22.848  55.041  1.00  0.00    -0.056 A 
ATOM     10  CD1 PHE A   1       8.283  22.857  53.639  1.00  0.00     0.007 A 
ATOM     11  CE1 PHE A   1       8.087  21.676  52.920  1.00  0.00     0.001 A 
ATOM     12  CZ  PHE A   1       7.880  20.474  53.594  1.00  0.00     0.000 A 
ATOM     13  CE2 PHE A   1       7.873  20.450  54.986  1.00  0.00     0.001 A 
ATOM     14  CD2 PHE A   1       8.070  21.630  55.707  1.00  0.00     0.007 A 
ENDBRANCH   8   9
ENDBRANCH   7   8
BRANCH   7  15
ATOM     15  C   PHE A   1       7.579  25.857  57.428  1.00  0.00     0.189 C 
BRANCH  15  16
ATOM     16  O   PHE A   1       7.905  25.554  58.781  1.00  0.00    -0.399 OA
ATOM     17  H   PHE A   1       7.185  25.898  59.355  1.00  0.00     0.209 HD
ENDBRANCH  15  16
ENDBRANCH   7  15
ENDBRANCH   1   7
BRANCH   4  18
HETATM   18  C   UNK A   0       4.659  26.759  52.951  1.00  0.00     0.038 A 
HETATM   19  C   UNK A   0       5.077  26.564  51.629  1.00  0.00     0.063 A 
HETATM   20  C   UNK A   0       4.729  27.516  50.655  1.00  0.00     0.087 A 
HETATM   21  C   UNK A   0       3.966  28.619  51.018  1.00  0.00     0.063 A 
HETATM   22  N   UNK A   0       5.037  27.556  49.316  1.00  0.00    -0.228 NA
HETATM   23  N   UNK A   0       3.819  29.329  49.855  1.00  0.00    -0.338 N 
HETATM   24  C   UNK A   0       3.518  28.842  52.318  1.00  0.00     0.034 A 
HETATM   25  H   UNK A   0       3.318  30.200  49.744  1.00  0.00     0.167 HD
HETATM   26  C   UNK A   0       4.484  28.664  48.854  1.00  0.00     0.170 A 
HETATM   27  C   UNK A   0       3.887  27.888  53.276  1.00  0.00     0.032 A 
BRANCH  26  28
HETATM   28  C   UNK A   0       4.525  29.206  47.472  1.00  0.00     0.422 C 
HETATM   29  F   UNK A   0       3.310  29.075  46.871  1.00  0.00    -0.206 F 
HETATM   30  F   UNK A   0       4.780  30.545  47.490  1.00  0.00    -0.206 F 
ENDBRANCH  26  28
ENDBRANCH   4  18
TORSDOF 7
ENDMDL
