MODEL 1
REMARK VINA RESULT:      -8.5      0.000      0.000
REMARK  5 active torsions:
REMARK  status: ('A' for Active; 'I' for Inactive)
REMARK    1  A    between atoms: C_2  and  O_3 
REMARK    2  A    between atoms: C_2  and  C_5 
REMARK    3  A    between atoms: C_7  and  N_8 
REMARK    4  A    between atoms: N_8  and  C_9 
REMARK    5  A    between atoms: C_9  and  C_10 
ROOT
HETATM    1  N   UNL     1       7.671  24.159  57.414  1.00  0.00    -0.289 NA
HETATM    2  H   UNL     1       7.769  23.940  58.406  1.00  0.00     0.128 HD
ENDROOT
BRANCH   1   3
HETATM    3  C   UNL     1       7.071  25.412  57.258  1.00  0.00     0.009 A 
HETATM    4  C   UNL     1       7.890  26.544  57.414  1.00  0.00     0.033 A 
HETATM    5  C   UNL     1       7.384  27.852  57.328  1.00  0.00    -0.028 A 
HETATM    6  C   UNL     1       6.014  28.010  57.068  1.00  0.00     0.010 A 
HETATM    7  C   UNL     1       5.186  26.902  56.908  1.00  0.00     0.002 A 
HETATM    8  C   UNL     1       5.711  25.612  57.014  1.00  0.00     0.023 A 
BRANCH   5   9
HETATM    9  C   UNL     1       8.231  29.094  57.553  1.00  0.00     0.149 C 
HETATM   10  C   UNL     1       9.660  29.023  57.012  1.00  0.00     0.045 C 
BRANCH   9  11
HETATM   11  O   UNL     1       8.259  29.312  58.969  1.00  0.00    -0.386 OA
HETATM   12  C   UNL     1       7.926  30.640  59.347  1.00  0.00     0.202 C 
ENDBRANCH   9  11
ENDBRANCH   5   9
ENDBRANCH   1   3
BRANCH   1  13
HETATM   13  C   UNL     1       8.876  23.812  56.666  1.00  0.00     0.133 C 
BRANCH  13  14
HETATM   14  C   UNL     1       8.512  23.448  55.243  1.00  0.00    -0.016 A 
HETATM   15  C   UNL     1       8.516  22.135  54.738  1.00  0.00     0.069 A 
HETATM   16  C   UNL     1       8.155  21.798  53.440  1.00  0.00     0.012 A 
HETATM   17  N   UNL     1       8.848  20.944  55.338  1.00  0.00    -0.277 N 
HETATM   18  C   UNL     1       8.342  20.399  53.373  1.00  0.00     0.152 A 
HETATM   19  C   UNL     1       7.732  22.808  52.563  1.00  0.00     0.015 A 
HETATM   20  N   UNL     1       8.773  19.875  54.523  1.00  0.00    -0.186 NA
HETATM   21  C   UNL     1       7.681  24.125  53.035  1.00  0.00     0.002 A 
HETATM   22  C   UNL     1       8.059  24.435  54.344  1.00  0.00     0.011 A 
HETATM   23  H   UNL     1       9.155  20.824  56.299  1.00  0.00     0.189 HD
ENDBRANCH  13  14
ENDBRANCH   1  13
TORSDOF 5
ENDMDL
MODEL 2
REMARK VINA RESULT:      -8.4      3.149      7.665
REMARK  5 active torsions:
REMARK  status: ('A' for Active; 'I' for Inactive)
REMARK    1  A    between atoms: C_2  and  O_3 
REMARK    2  A    between atoms: C_2  and  C_5 
REMARK    3  A    between atoms: C_7  and  N_8 
REMARK    4  A    between atoms: N_8  and  C_9 
REMARK    5  A    between atoms: C_9  and  C_10 
ROOT
HETATM    1  N   UNL     1       7.976  26.504  57.672  1.00  0.00    -0.289 NA
HETATM    2  H   UNL     1       7.951  26.033  58.576  1.00  0.00     0.128 HD
ENDROOT
BRANCH   1   3
HETATM    3  C   UNL     1       7.593  25.618  56.660  1.00  0.00     0.009 A 
HETATM    4  C   UNL     1       8.388  24.475  56.466  1.00  0.00     0.033 A 
HETATM    5  C   UNL     1       8.126  23.544  55.447  1.00  0.00    -0.028 A 
HETATM    6  C   UNL     1       7.024  23.779  54.611  1.00  0.00     0.010 A 
HETATM    7  C   UNL     1       6.222  24.904  54.788  1.00  0.00     0.002 A 
HETATM    8  C   UNL     1       6.513  25.823  55.798  1.00  0.00     0.023 A 
BRANCH   5   9
HETATM    9  C   UNL     1       9.002  22.332  55.175  1.00  0.00     0.149 C 
HETATM   10  C   UNL     1       8.652  21.537  53.916  1.00  0.00     0.045 C 
BRANCH   9  11
HETATM   11  O   UNL     1       8.892  21.487  56.327  1.00  0.00    -0.386 OA
HETATM   12  C   UNL     1       7.910  20.470  56.196  1.00  0.00     0.202 C 
ENDBRANCH   9  11
ENDBRANCH   5   9
ENDBRANCH   1   3
BRANCH   1  13
HETATM   13  C   UNL     1       7.395  27.842  57.748  1.00  0.00     0.133 C 
BRANCH  13  14
HETATM   14  C   UNL     1       8.493  28.882  57.700  1.00  0.00    -0.016 A 
HETATM   15  C   UNL     1       8.635  29.925  58.633  1.00  0.00     0.069 A 
HETATM   16  C   UNL     1       9.658  30.864  58.604  1.00  0.00     0.012 A 
HETATM   17  N   UNL     1       7.869  30.265  59.722  1.00  0.00    -0.277 N 
HETATM   18  C   UNL     1       9.383  31.722  59.692  1.00  0.00     0.152 A 
HETATM   19  C   UNL     1      10.641  30.774  57.606  1.00  0.00     0.015 A 
HETATM   20  N   UNL     1       8.289  31.367  60.371  1.00  0.00    -0.186 NA
HETATM   21  C   UNL     1      10.557  29.732  56.676  1.00  0.00     0.002 A 
HETATM   22  C   UNL     1       9.510  28.808  56.725  1.00  0.00     0.011 A 
HETATM   23  H   UNL     1       7.035  29.779  60.041  1.00  0.00     0.189 HD
ENDBRANCH  13  14
ENDBRANCH   1  13
TORSDOF 5
ENDMDL
MODEL 3
REMARK VINA RESULT:      -8.4      2.976      7.143
REMARK  5 active torsions:
REMARK  status: ('A' for Active; 'I' for Inactive)
REMARK    1  A    between atoms: C_2  and  O_3 
REMARK    2  A    between atoms: C_2  and  C_5 
REMARK    3  A    between atoms: C_7  and  N_8 
REMARK    4  A    between atoms: N_8  and  C_9 
REMARK    5  A    between atoms: C_9  and  C_10 
ROOT
HETATM    1  N   UNL     1       5.231  25.170  55.362  1.00  0.00    -0.289 NA
HETATM    2  H   UNL     1       4.638  25.961  55.108  1.00  0.00     0.128 HD
ENDROOT
BRANCH   1   3
HETATM    3  C   UNL     1       6.114  24.878  54.318  1.00  0.00     0.009 A 
HETATM    4  C   UNL     1       6.884  23.708  54.431  1.00  0.00     0.033 A 
HETATM    5  C   UNL     1       7.838  23.342  53.466  1.00  0.00    -0.028 A 
HETATM    6  C   UNL     1       8.005  24.185  52.357  1.00  0.00     0.010 A 
HETATM    7  C   UNL     1       7.250  25.348  52.225  1.00  0.00     0.002 A 
HETATM    8  C   UNL     1       6.320  25.697  53.205  1.00  0.00     0.023 A 
BRANCH   5   9
HETATM    9  C   UNL     1       8.728  22.116  53.591  1.00  0.00     0.149 C 
HETATM   10  C   UNL     1       8.064  20.784  53.243  1.00  0.00     0.045 C 
BRANCH   9  11
HETATM   11  O   UNL     1       9.188  22.089  54.948  1.00  0.00    -0.386 OA
HETATM   12  C   UNL     1       9.137  20.799  55.540  1.00  0.00     0.202 C 
ENDBRANCH   9  11
ENDBRANCH   5   9
ENDBRANCH   1   3
BRANCH   1  13
HETATM   13  C   UNL     1       5.715  25.282  56.735  1.00  0.00     0.133 C 
BRANCH  13  14
HETATM   14  C   UNL     1       6.186  26.695  57.001  1.00  0.00    -0.016 A 
HETATM   15  C   UNL     1       5.389  27.841  56.823  1.00  0.00     0.069 A 
HETATM   16  C   UNL     1       5.812  29.135  57.092  1.00  0.00     0.012 A 
HETATM   17  N   UNL     1       4.097  27.974  56.374  1.00  0.00    -0.277 N 
HETATM   18  C   UNL     1       4.713  29.949  56.739  1.00  0.00     0.152 A 
HETATM   19  C   UNL     1       7.105  29.341  57.600  1.00  0.00     0.015 A 
HETATM   20  N   UNL     1       3.668  29.247  56.292  1.00  0.00    -0.186 NA
HETATM   21  C   UNL     1       7.920  28.225  57.824  1.00  0.00     0.002 A 
HETATM   22  C   UNL     1       7.469  26.935  57.534  1.00  0.00     0.011 A 
HETATM   23  H   UNL     1       3.482  27.216  56.091  1.00  0.00     0.189 HD
ENDBRANCH  13  14
ENDBRANCH   1  13
TORSDOF 5
ENDMDL
MODEL 4
REMARK VINA RESULT:      -8.3      3.047      7.417
REMARK  5 active torsions:
REMARK  status: ('A' for Active; 'I' for Inactive)
REMARK    1  A    between atoms: C_2  and  O_3 
REMARK    2  A    between atoms: C_2  and  C_5 
REMARK    3  A    between atoms: C_7  and  N_8 
REMARK    4  A    between atoms: N_8  and  C_9 
REMARK    5  A    between atoms: C_9  and  C_10 
ROOT
HETATM    1  N   UNL     1       7.985  26.551  57.980  1.00  0.00    -0.289 NA
HETATM    2  H   UNL     1       7.521  26.248  58.837  1.00  0.00     0.128 HD
ENDROOT
BRANCH   1   3
HETATM    3  C   UNL     1       8.124  25.471  57.102  1.00  0.00     0.009 A 
HETATM    4  C   UNL     1       7.600  25.621  55.806  1.00  0.00     0.033 A 
HETATM    5  C   UNL     1       7.639  24.585  54.858  1.00  0.00    -0.028 A 
HETATM    6  C   UNL     1       8.231  23.371  55.237  1.00  0.00     0.010 A 
HETATM    7  C   UNL     1       8.758  23.203  56.515  1.00  0.00     0.002 A 
HETATM    8  C   UNL     1       8.693  24.243  57.444  1.00  0.00     0.023 A 
BRANCH   5   9
HETATM    9  C   UNL     1       7.028  24.696  53.471  1.00  0.00     0.149 C 
HETATM   10  C   UNL     1       7.994  25.100  52.356  1.00  0.00     0.045 C 
BRANCH   9  11
HETATM   11  O   UNL     1       5.973  25.662  53.571  1.00  0.00    -0.386 OA
HETATM   12  C   UNL     1       4.699  25.153  53.207  1.00  0.00     0.202 C 
ENDBRANCH   9  11
ENDBRANCH   5   9
ENDBRANCH   1   3
BRANCH   1  13
HETATM   13  C   UNL     1       7.460  27.830  57.509  1.00  0.00     0.133 C 
BRANCH  13  14
HETATM   14  C   UNL     1       8.544  28.884  57.567  1.00  0.00    -0.016 A 
HETATM   15  C   UNL     1       8.600  29.908  58.530  1.00  0.00     0.069 A 
HETATM   16  C   UNL     1       9.610  30.859  58.599  1.00  0.00     0.012 A 
HETATM   17  N   UNL     1       7.749  30.215  59.564  1.00  0.00    -0.277 N 
HETATM   18  C   UNL     1       9.241  31.690  59.680  1.00  0.00     0.152 A 
HETATM   19  C   UNL     1      10.667  30.802  57.678  1.00  0.00     0.015 A 
HETATM   20  N   UNL     1       8.103  31.307  60.266  1.00  0.00    -0.186 NA
HETATM   21  C   UNL     1      10.668  29.779  56.722  1.00  0.00     0.002 A 
HETATM   22  C   UNL     1       9.633  28.842  56.672  1.00  0.00     0.011 A 
HETATM   23  H   UNL     1       6.900  29.713  59.808  1.00  0.00     0.189 HD
ENDBRANCH  13  14
ENDBRANCH   1  13
TORSDOF 5
ENDMDL
MODEL 5
REMARK VINA RESULT:      -8.2      1.630      2.210
REMARK  5 active torsions:
REMARK  status: ('A' for Active; 'I' for Inactive)
REMARK    1  A    between atoms: C_2  and  O_3 
REMARK    2  A    between atoms: C_2  and  C_5 
REMARK    3  A    between atoms: C_7  and  N_8 
REMARK    4  A    between atoms: N_8  and  C_9 
REMARK    5  A    between atoms: C_9  and  C_10 
ROOT
HETATM    1  N   UNL     1       7.374  24.927  57.356  1.00  0.00    -0.289 NA
HETATM    2  H   UNL     1       7.028  24.950  58.315  1.00  0.00     0.128 HD
ENDROOT
BRANCH   1   3
HETATM    3  C   UNL     1       7.300  26.203  56.788  1.00  0.00     0.009 A 
HETATM    4  C   UNL     1       8.091  27.213  57.363  1.00  0.00     0.033 A 
HETATM    5  C   UNL     1       8.059  28.541  56.906  1.00  0.00    -0.028 A 
HETATM    6  C   UNL     1       7.206  28.846  55.835  1.00  0.00     0.010 A 
HETATM    7  C   UNL     1       6.415  27.859  55.250  1.00  0.00     0.002 A 
HETATM    8  C   UNL     1       6.454  26.550  55.733  1.00  0.00     0.023 A 
BRANCH   5   9
HETATM    9  C   UNL     1       8.856  29.666  57.545  1.00  0.00     0.149 C 
HETATM   10  C   UNL     1      10.350  29.682  57.219  1.00  0.00     0.045 C 
BRANCH   9  11
HETATM   11  O   UNL     1       8.671  29.538  58.961  1.00  0.00    -0.386 OA
HETATM   12  C   UNL     1       8.070  30.675  59.562  1.00  0.00     0.202 C 
ENDBRANCH   9  11
ENDBRANCH   5   9
ENDBRANCH   1   3
BRANCH   1  13
HETATM   13  C   UNL     1       8.595  24.134  57.244  1.00  0.00     0.133 C 
BRANCH  13  14
HETATM   14  C   UNL     1       8.333  22.900  56.409  1.00  0.00    -0.016 A 
HETATM   15  C   UNL     1       8.172  22.912  55.011  1.00  0.00     0.069 A 
HETATM   16  C   UNL     1       7.958  21.776  54.241  1.00  0.00     0.012 A 
HETATM   17  N   UNL     1       8.183  23.954  54.115  1.00  0.00    -0.277 N 
HETATM   18  C   UNL     1       7.824  22.262  52.922  1.00  0.00     0.152 A 
HETATM   19  C   UNL     1       7.919  20.521  54.869  1.00  0.00     0.015 A 
HETATM   20  N   UNL     1       7.951  23.589  52.840  1.00  0.00    -0.186 NA
HETATM   21  C   UNL     1       8.107  20.460  56.255  1.00  0.00     0.002 A 
HETATM   22  C   UNL     1       8.312  21.622  57.004  1.00  0.00     0.011 A 
HETATM   23  H   UNL     1       8.322  24.935  54.342  1.00  0.00     0.189 HD
ENDBRANCH  13  14
ENDBRANCH   1  13
TORSDOF 5
ENDMDL
MODEL 6
REMARK VINA RESULT:      -8.1      5.510      7.597
REMARK  5 active torsions:
REMARK  status: ('A' for Active; 'I' for Inactive)
REMARK    1  A    between atoms: C_2  and  O_3 
REMARK    2  A    between atoms: C_2  and  C_5 
REMARK    3  A    between atoms: C_7  and  N_8 
REMARK    4  A    between atoms: N_8  and  C_9 
REMARK    5  A    between atoms: C_9  and  C_10 
ROOT
HETATM    1  N   UNL     1       6.273  25.616  51.413  1.00  0.00    -0.289 NA
HETATM    2  H   UNL     1       7.119  25.848  50.892  1.00  0.00     0.128 HD
ENDROOT
BRANCH   1   3
HETATM    3  C   UNL     1       6.609  24.984  52.614  1.00  0.00     0.009 A 
HETATM    4  C   UNL     1       7.498  23.897  52.547  1.00  0.00     0.033 A 
HETATM    5  C   UNL     1       7.865  23.158  53.684  1.00  0.00    -0.028 A 
HETATM    6  C   UNL     1       7.320  23.539  54.918  1.00  0.00     0.010 A 
HETATM    7  C   UNL     1       6.439  24.614  55.007  1.00  0.00     0.002 A 
HETATM    8  C   UNL     1       6.078  25.323  53.860  1.00  0.00     0.023 A 
BRANCH   5   9
HETATM    9  C   UNL     1       8.775  21.941  53.633  1.00  0.00     0.149 C 
HETATM   10  C   UNL     1       8.192  20.712  52.936  1.00  0.00     0.045 C 
BRANCH   9  11
HETATM   11  O   UNL     1       9.096  21.621  54.993  1.00  0.00    -0.386 OA
HETATM   12  C   UNL     1       8.971  20.239  55.296  1.00  0.00     0.202 C 
ENDBRANCH   9  11
ENDBRANCH   5   9
ENDBRANCH   1   3
BRANCH   1  13
HETATM   13  C   UNL     1       5.313  26.716  51.395  1.00  0.00     0.133 C 
BRANCH  13  14
HETATM   14  C   UNL     1       5.016  27.116  49.965  1.00  0.00    -0.016 A 
HETATM   15  C   UNL     1       4.217  26.364  49.085  1.00  0.00     0.069 A 
HETATM   16  C   UNL     1       3.923  26.744  47.782  1.00  0.00     0.012 A 
HETATM   17  N   UNL     1       3.574  25.163  49.260  1.00  0.00    -0.277 N 
HETATM   18  C   UNL     1       3.134  25.688  47.274  1.00  0.00     0.152 A 
HETATM   19  C   UNL     1       4.421  27.964  47.295  1.00  0.00     0.015 A 
HETATM   20  N   UNL     1       2.926  24.718  48.168  1.00  0.00    -0.186 NA
HETATM   21  C   UNL     1       5.193  28.759  48.150  1.00  0.00     0.002 A 
HETATM   22  C   UNL     1       5.480  28.345  49.453  1.00  0.00     0.011 A 
HETATM   23  H   UNL     1       3.574  24.604  50.109  1.00  0.00     0.189 HD
ENDBRANCH  13  14
ENDBRANCH   1  13
TORSDOF 5
ENDMDL
MODEL 7
REMARK VINA RESULT:      -7.9      1.757      2.744
REMARK  5 active torsions:
REMARK  status: ('A' for Active; 'I' for Inactive)
REMARK    1  A    between atoms: C_2  and  O_3 
REMARK    2  A    between atoms: C_2  and  C_5 
REMARK    3  A    between atoms: C_7  and  N_8 
REMARK    4  A    between atoms: N_8  and  C_9 
REMARK    5  A    between atoms: C_9  and  C_10 
ROOT
HETATM    1  N   UNL     1       6.333  24.613  54.408  1.00  0.00    -0.289 NA
HETATM    2  H   UNL     1       6.417  24.078  55.273  1.00  0.00     0.128 HD
ENDROOT
BRANCH   1   3
HETATM    3  C   UNL     1       6.189  25.973  54.697  1.00  0.00     0.009 A 
HETATM    4  C   UNL     1       6.746  26.440  55.901  1.00  0.00     0.033 A 
HETATM    5  C   UNL     1       6.619  27.777  56.316  1.00  0.00    -0.028 A 
HETATM    6  C   UNL     1       5.915  28.659  55.482  1.00  0.00     0.010 A 
HETATM    7  C   UNL     1       5.358  28.216  54.284  1.00  0.00     0.002 A 
HETATM    8  C   UNL     1       5.485  26.880  53.902  1.00  0.00     0.023 A 
BRANCH   5   9
HETATM    9  C   UNL     1       7.156  28.297  57.639  1.00  0.00     0.149 C 
HETATM   10  C   UNL     1       6.986  29.799  57.873  1.00  0.00     0.045 C 
BRANCH   9  11
HETATM   11  O   UNL     1       8.548  27.956  57.671  1.00  0.00    -0.386 OA
HETATM   12  C   UNL     1       9.379  28.896  57.006  1.00  0.00     0.202 C 
ENDBRANCH   9  11
ENDBRANCH   5   9
ENDBRANCH   1   3
BRANCH   1  13
HETATM   13  C   UNL     1       7.294  24.164  53.404  1.00  0.00     0.133 C 
BRANCH  13  14
HETATM   14  C   UNL     1       7.772  22.767  53.739  1.00  0.00    -0.016 A 
HETATM   15  C   UNL     1       8.026  22.311  55.045  1.00  0.00     0.069 A 
HETATM   16  C   UNL     1       8.439  21.021  55.354  1.00  0.00     0.012 A 
HETATM   17  N   UNL     1       7.943  22.958  56.254  1.00  0.00    -0.277 N 
HETATM   18  C   UNL     1       8.600  21.027  56.757  1.00  0.00     0.152 A 
HETATM   19  C   UNL     1       8.595  20.086  54.319  1.00  0.00     0.015 A 
HETATM   20  N   UNL     1       8.308  22.208  57.310  1.00  0.00    -0.186 NA
HETATM   21  C   UNL     1       8.321  20.489  53.006  1.00  0.00     0.002 A 
HETATM   22  C   UNL     1       7.916  21.797  52.726  1.00  0.00     0.011 A 
HETATM   23  H   UNL     1       7.663  23.925  56.396  1.00  0.00     0.189 HD
ENDBRANCH  13  14
ENDBRANCH   1  13
TORSDOF 5
ENDMDL
MODEL 8
REMARK VINA RESULT:      -7.8      2.556      4.264
REMARK  5 active torsions:
REMARK  status: ('A' for Active; 'I' for Inactive)
REMARK    1  A    between atoms: C_2  and  O_3 
REMARK    2  A    between atoms: C_2  and  C_5 
REMARK    3  A    between atoms: C_7  and  N_8 
REMARK    4  A    between atoms: N_8  and  C_9 
REMARK    5  A    between atoms: C_9  and  C_10 
ROOT
HETATM    1  N   UNL     1       7.867  28.802  54.980  1.00  0.00    -0.289 NA
HETATM    2  H   UNL     1       7.700  29.515  54.270  1.00  0.00     0.128 HD
ENDROOT
BRANCH   1   3
HETATM    3  C   UNL     1       8.704  29.308  55.980  1.00  0.00     0.009 A 
HETATM    4  C   UNL     1       8.106  29.683  57.195  1.00  0.00     0.033 A 
HETATM    5  C   UNL     1       8.843  30.249  58.250  1.00  0.00    -0.028 A 
HETATM    6  C   UNL     1      10.221  30.429  58.064  1.00  0.00     0.010 A 
HETATM    7  C   UNL     1      10.834  30.061  56.868  1.00  0.00     0.002 A 
HETATM    8  C   UNL     1      10.077  29.515  55.830  1.00  0.00     0.023 A 
BRANCH   5   9
HETATM    9  C   UNL     1       8.215  30.721  59.551  1.00  0.00     0.149 C 
HETATM   10  C   UNL     1       8.345  32.216  59.839  1.00  0.00     0.045 C 
BRANCH   9  11
HETATM   11  O   UNL     1       8.843  29.969  60.598  1.00  0.00    -0.386 OA
HETATM   12  C   UNL     1       9.260  30.765  61.697  1.00  0.00     0.202 C 
ENDBRANCH   9  11
ENDBRANCH   5   9
ENDBRANCH   1   3
BRANCH   1  13
HETATM   13  C   UNL     1       6.638  28.093  55.328  1.00  0.00     0.133 C 
BRANCH  13  14
HETATM   14  C   UNL     1       6.905  26.605  55.400  1.00  0.00    -0.016 A 
HETATM   15  C   UNL     1       7.356  25.830  54.316  1.00  0.00     0.069 A 
HETATM   16  C   UNL     1       7.627  24.470  54.390  1.00  0.00     0.012 A 
HETATM   17  N   UNL     1       7.626  26.179  53.015  1.00  0.00    -0.277 N 
HETATM   18  C   UNL     1       8.013  24.115  53.078  1.00  0.00     0.152 A 
HETATM   19  C   UNL     1       7.472  23.807  55.617  1.00  0.00     0.015 A 
HETATM   20  N   UNL     1       8.005  25.150  52.234  1.00  0.00    -0.186 NA
HETATM   21  C   UNL     1       7.056  24.547  56.730  1.00  0.00     0.002 A 
HETATM   22  C   UNL     1       6.783  25.913  56.622  1.00  0.00     0.011 A 
HETATM   23  H   UNL     1       7.538  27.109  52.615  1.00  0.00     0.189 HD
ENDBRANCH  13  14
ENDBRANCH   1  13
TORSDOF 5
ENDMDL
MODEL 9
REMARK VINA RESULT:      -7.7      4.515      6.497
REMARK  5 active torsions:
REMARK  status: ('A' for Active; 'I' for Inactive)
REMARK    1  A    between atoms: C_2  and  O_3 
REMARK    2  A    between atoms: C_2  and  C_5 
REMARK    3  A    between atoms: C_7  and  N_8 
REMARK    4  A    between atoms: N_8  and  C_9 
REMARK    5  A    between atoms: C_9  and  C_10 
ROOT
HETATM    1  N   UNL     1       6.557  25.178  53.063  1.00  0.00    -0.289 NA
HETATM    2  H   UNL     1       6.664  25.483  54.031  1.00  0.00     0.128 HD
ENDROOT
BRANCH   1   3
HETATM    3  C   UNL     1       6.028  26.215  52.289  1.00  0.00     0.009 A 
HETATM    4  C   UNL     1       5.478  25.875  51.041  1.00  0.00     0.033 A 
HETATM    5  C   UNL     1       4.964  26.842  50.161  1.00  0.00    -0.028 A 
HETATM    6  C   UNL     1       5.005  28.185  50.564  1.00  0.00     0.010 A 
HETATM    7  C   UNL     1       5.544  28.543  51.798  1.00  0.00     0.002 A 
HETATM    8  C   UNL     1       6.062  27.564  52.648  1.00  0.00     0.023 A 
BRANCH   5   9
HETATM    9  C   UNL     1       4.419  26.512  48.781  1.00  0.00     0.149 C 
HETATM   10  C   UNL     1       5.116  27.211  47.614  1.00  0.00     0.045 C 
BRANCH   9  11
HETATM   11  O   UNL     1       3.031  26.868  48.799  1.00  0.00    -0.386 OA
HETATM   12  C   UNL     1       2.483  27.090  47.508  1.00  0.00     0.202 C 
ENDBRANCH   9  11
ENDBRANCH   5   9
ENDBRANCH   1   3
BRANCH   1  13
HETATM   13  C   UNL     1       7.723  24.428  52.604  1.00  0.00     0.133 C 
BRANCH  13  14
HETATM   14  C   UNL     1       7.888  23.174  53.435  1.00  0.00    -0.016 A 
HETATM   15  C   UNL     1       8.053  23.168  54.832  1.00  0.00     0.069 A 
HETATM   16  C   UNL     1       8.177  22.015  55.598  1.00  0.00     0.012 A 
HETATM   17  N   UNL     1       8.129  24.204  55.732  1.00  0.00    -0.277 N 
HETATM   18  C   UNL     1       8.354  22.485  56.918  1.00  0.00     0.152 A 
HETATM   19  C   UNL     1       8.112  20.764  54.966  1.00  0.00     0.015 A 
HETATM   20  N   UNL     1       8.335  23.817  57.004  1.00  0.00    -0.186 NA
HETATM   21  C   UNL     1       7.915  20.723  53.581  1.00  0.00     0.002 A 
HETATM   22  C   UNL     1       7.803  21.900  52.836  1.00  0.00     0.011 A 
HETATM   23  H   UNL     1       8.069  25.193  55.509  1.00  0.00     0.189 HD
ENDBRANCH  13  14
ENDBRANCH   1  13
TORSDOF 5
ENDMDL
MODEL 10
REMARK VINA RESULT:      -7.7      4.969     10.030
REMARK  5 active torsions:
REMARK  status: ('A' for Active; 'I' for Inactive)
REMARK    1  A    between atoms: C_2  and  O_3 
REMARK    2  A    between atoms: C_2  and  C_5 
REMARK    3  A    between atoms: C_7  and  N_8 
REMARK    4  A    between atoms: N_8  and  C_9 
REMARK    5  A    between atoms: C_9  and  C_10 
ROOT
HETATM    1  N   UNL     1       8.010  30.803  60.468  1.00  0.00    -0.289 NA
HETATM    2  H   UNL     1       7.013  30.956  60.315  1.00  0.00     0.128 HD
ENDROOT
BRANCH   1   3
HETATM    3  C   UNL     1       8.622  30.401  59.277  1.00  0.00     0.009 A 
HETATM    4  C   UNL     1       8.089  29.275  58.625  1.00  0.00     0.033 A 
HETATM    5  C   UNL     1       8.654  28.754  57.449  1.00  0.00    -0.028 A 
HETATM    6  C   UNL     1       9.783  29.398  56.921  1.00  0.00     0.010 A 
HETATM    7  C   UNL     1      10.325  30.517  57.551  1.00  0.00     0.002 A 
HETATM    8  C   UNL     1       9.754  31.006  58.727  1.00  0.00     0.023 A 
BRANCH   5   9
HETATM    9  C   UNL     1       8.139  27.503  56.755  1.00  0.00     0.149 C 
HETATM   10  C   UNL     1       6.849  27.680  55.954  1.00  0.00     0.045 C 
BRANCH   9  11
HETATM   11  O   UNL     1       7.940  26.525  57.784  1.00  0.00    -0.386 OA
HETATM   12  C   UNL     1       7.275  25.354  57.334  1.00  0.00     0.202 C 
ENDBRANCH   9  11
ENDBRANCH   5   9
ENDBRANCH   1   3
BRANCH   1  13
HETATM   13  C   UNL     1       8.596  31.864  61.283  1.00  0.00     0.133 C 
BRANCH  13  14
HETATM   14  C   UNL     1       7.585  32.349  62.300  1.00  0.00    -0.016 A 
HETATM   15  C   UNL     1       6.196  32.387  62.077  1.00  0.00     0.069 A 
HETATM   16  C   UNL     1       5.267  32.807  63.020  1.00  0.00     0.012 A 
HETATM   17  N   UNL     1       5.455  32.052  60.970  1.00  0.00    -0.277 N 
HETATM   18  C   UNL     1       4.022  32.711  62.357  1.00  0.00     0.152 A 
HETATM   19  C   UNL     1       5.711  33.199  64.292  1.00  0.00     0.015 A 
HETATM   20  N   UNL     1       4.133  32.261  61.105  1.00  0.00    -0.186 NA
HETATM   21  C   UNL     1       7.082  33.145  64.567  1.00  0.00     0.002 A 
HETATM   22  C   UNL     1       7.995  32.727  63.595  1.00  0.00     0.011 A 
HETATM   23  H   UNL     1       5.822  31.698  60.090  1.00  0.00     0.189 HD
ENDBRANCH  13  14
ENDBRANCH   1  13
TORSDOF 5
ENDMDL
