MODEL 1
REMARK VINA RESULT:      -9.2      0.000      0.000
REMARK  8 active torsions:
REMARK  status: ('A' for Active; 'I' for Inactive)
REMARK    1  A    between atoms: C_2  and  C_3 
REMARK    2  A    between atoms: C_3  and  N_4 
REMARK    3  A    between atoms: N_9  and  C_11 
REMARK    4  A    between atoms: C_11  and  C_12 
REMARK    5  A    between atoms: C_14  and  C_15 
REMARK    6  A    between atoms: C_15  and  C_16 
REMARK    7  A    between atoms: C_16  and  C_17 
REMARK    8  A    between atoms: C_17  and  O_18 
ROOT
HETATM    1  N   UNL     1       7.062  26.062  55.035  1.00  0.00    -0.066 N 
HETATM    2  H   UNL     1       7.860  26.018  55.679  1.00  0.00     0.280 HD
HETATM    3  C   UNL     1       6.623  27.495  54.821  1.00  0.00     0.246 C 
HETATM    4  C   UNL     1       6.245  28.166  56.154  1.00  0.00     0.009 C 
HETATM    5  C   UNL     1       7.487  28.477  57.003  1.00  0.00     0.246 C 
HETATM    6  N   UNL     1       7.096  29.641  57.884  1.00  0.00    -0.066 N 
HETATM    7  H   UNL     1       6.798  29.277  58.801  1.00  0.00     0.280 HD
HETATM    8  C   UNL     1       5.900  30.318  57.250  1.00  0.00     0.236 C 
HETATM    9  C   UNL     1       5.714  29.593  55.922  1.00  0.00     0.040 C 
HETATM   10  C   UNL     1       5.201  27.302  56.897  1.00  0.00     0.014 C 
HETATM   11  C   UNL     1       5.589  25.823  56.989  1.00  0.00     0.029 C 
HETATM   12  C   UNL     1       5.956  25.225  55.635  1.00  0.00     0.235 C 
ENDROOT
BRANCH   1  13
HETATM   13  C   UNL     1       7.610  25.420  53.757  1.00  0.00     0.273 C 
BRANCH  13  14
HETATM   14  C   UNL     1       7.937  23.961  53.965  1.00  0.00    -0.032 A 
HETATM   15  C   UNL     1       8.688  23.547  55.080  1.00  0.00     0.012 A 
HETATM   16  C   UNL     1       9.063  22.209  55.219  1.00  0.00     0.043 A 
HETATM   17  C   UNL     1       8.677  21.282  54.258  1.00  0.00     0.116 A 
HETATM   18  C   UNL     1       7.912  21.666  53.165  1.00  0.00     0.043 A 
HETATM   19  F   UNL     1       9.053  20.005  54.386  1.00  0.00    -0.206 F 
HETATM   20  C   UNL     1       7.539  23.004  53.016  1.00  0.00     0.012 A 
ENDBRANCH  13  14
ENDBRANCH   1  13
BRANCH   6  21
HETATM   21  C   UNL     1       8.238  30.599  58.201  1.00  0.00     0.280 C 
BRANCH  21  22
HETATM   22  C   UNL     1       8.377  30.842  59.669  1.00  0.00     0.009 A 
HETATM   23  S   UNL     1       7.311  31.931  60.462  1.00  0.00    -0.084 SA
HETATM   24  C   UNL     1       8.089  31.719  61.963  1.00  0.00     0.058 A 
HETATM   25  C   UNL     1       9.115  30.805  61.881  1.00  0.00     0.029 A 
HETATM   26  C   UNL     1       9.281  30.294  60.558  1.00  0.00     0.018 A 
BRANCH  24  27
HETATM   27  C   UNL     1       7.709  32.423  63.144  1.00  0.00    -0.057 C 
BRANCH  27  28
HETATM   28  C   UNL     1       7.422  33.011  64.151  1.00  0.00    -0.075 C 
BRANCH  28  29
HETATM   29  C   UNL     1       7.048  33.748  65.357  1.00  0.00     0.258 C 
BRANCH  29  30
HETATM   30  O   UNL     1       6.593  35.040  64.988  1.00  0.00    -0.389 OA
HETATM   31  H   UNL     1       6.576  35.064  64.016  1.00  0.00     0.210 HD
ENDBRANCH  29  30
ENDBRANCH  28  29
ENDBRANCH  27  28
ENDBRANCH  24  27
ENDBRANCH  21  22
ENDBRANCH   6  21
TORSDOF 8
ENDMDL
MODEL 2
REMARK VINA RESULT:      -8.7      1.488      2.529
REMARK  8 active torsions:
REMARK  status: ('A' for Active; 'I' for Inactive)
REMARK    1  A    between atoms: C_2  and  C_3 
REMARK    2  A    between atoms: C_3  and  N_4 
REMARK    3  A    between atoms: N_9  and  C_11 
REMARK    4  A    between atoms: C_11  and  C_12 
REMARK    5  A    between atoms: C_14  and  C_15 
REMARK    6  A    between atoms: C_15  and  C_16 
REMARK    7  A    between atoms: C_16  and  C_17 
REMARK    8  A    between atoms: C_17  and  O_18 
ROOT
HETATM    1  N   UNL     1       6.340  26.734  56.935  1.00  0.00    -0.066 N 
HETATM    2  H   UNL     1       5.924  27.083  57.807  1.00  0.00     0.280 HD
HETATM    3  C   UNL     1       7.817  27.061  56.878  1.00  0.00     0.246 C 
HETATM    4  C   UNL     1       8.056  28.579  56.989  1.00  0.00     0.009 C 
HETATM    5  C   UNL     1       7.809  29.085  58.418  1.00  0.00     0.246 C 
HETATM    6  N   UNL     1       8.657  30.329  58.560  1.00  0.00    -0.066 N 
HETATM    7  H   UNL     1       8.070  31.154  58.372  1.00  0.00     0.280 HD
HETATM    8  C   UNL     1       9.730  30.279  57.493  1.00  0.00     0.236 C 
HETATM    9  C   UNL     1       9.551  28.914  56.839  1.00  0.00     0.040 C 
HETATM   10  C   UNL     1       7.214  29.320  55.926  1.00  0.00     0.014 C 
HETATM   11  C   UNL     1       5.746  28.883  55.898  1.00  0.00     0.029 C 
HETATM   12  C   UNL     1       5.584  27.370  55.792  1.00  0.00     0.235 C 
ENDROOT
BRANCH   1  13
HETATM   13  C   UNL     1       6.076  25.227  57.003  1.00  0.00     0.273 C 
BRANCH  13  14
HETATM   14  C   UNL     1       6.965  24.465  56.051  1.00  0.00    -0.032 A 
HETATM   15  C   UNL     1       6.657  24.401  54.679  1.00  0.00     0.012 A 
HETATM   16  C   UNL     1       7.433  23.621  53.819  1.00  0.00     0.043 A 
HETATM   17  C   UNL     1       8.523  22.919  54.321  1.00  0.00     0.116 A 
HETATM   18  C   UNL     1       8.859  22.991  55.665  1.00  0.00     0.043 A 
HETATM   19  F   UNL     1       9.252  22.159  53.497  1.00  0.00    -0.206 F 
HETATM   20  C   UNL     1       8.083  23.764  56.533  1.00  0.00     0.012 A 
ENDBRANCH  13  14
ENDBRANCH   1  13
BRANCH   6  21
HETATM   21  C   UNL     1       9.206  30.556  59.963  1.00  0.00     0.280 C 
BRANCH  21  22
HETATM   22  C   UNL     1       8.327  31.454  60.772  1.00  0.00     0.009 A 
HETATM   23  S   UNL     1       8.555  31.572  62.471  1.00  0.00    -0.084 SA
HETATM   24  C   UNL     1       7.245  32.648  62.648  1.00  0.00     0.058 A 
HETATM   25  C   UNL     1       6.667  32.951  61.436  1.00  0.00     0.029 A 
HETATM   26  C   UNL     1       7.292  32.267  60.351  1.00  0.00     0.018 A 
BRANCH  24  27
HETATM   27  C   UNL     1       6.816  33.151  63.911  1.00  0.00    -0.057 C 
BRANCH  27  28
HETATM   28  C   UNL     1       6.424  33.587  64.960  1.00  0.00    -0.075 C 
BRANCH  28  29
HETATM   29  C   UNL     1       5.963  34.151  66.227  1.00  0.00     0.258 C 
BRANCH  29  30
HETATM   30  O   UNL     1       7.084  34.385  67.066  1.00  0.00    -0.389 OA
HETATM   31  H   UNL     1       6.817  35.067  67.705  1.00  0.00     0.210 HD
ENDBRANCH  29  30
ENDBRANCH  28  29
ENDBRANCH  27  28
ENDBRANCH  24  27
ENDBRANCH  21  22
ENDBRANCH   6  21
TORSDOF 8
ENDMDL
MODEL 3
REMARK VINA RESULT:      -8.4      7.051     10.425
REMARK  8 active torsions:
REMARK  status: ('A' for Active; 'I' for Inactive)
REMARK    1  A    between atoms: C_2  and  C_3 
REMARK    2  A    between atoms: C_3  and  N_4 
REMARK    3  A    between atoms: N_9  and  C_11 
REMARK    4  A    between atoms: C_11  and  C_12 
REMARK    5  A    between atoms: C_14  and  C_15 
REMARK    6  A    between atoms: C_15  and  C_16 
REMARK    7  A    between atoms: C_16  and  C_17 
REMARK    8  A    between atoms: C_17  and  O_18 
ROOT
HETATM    1  N   UNL     1       6.894  25.581  54.777  1.00  0.00    -0.066 N 
HETATM    2  H   UNL     1       7.449  25.271  53.971  1.00  0.00     0.280 HD
HETATM    3  C   UNL     1       5.487  25.943  54.352  1.00  0.00     0.246 C 
HETATM    4  C   UNL     1       5.497  27.049  53.280  1.00  0.00     0.009 C 
HETATM    5  C   UNL     1       5.969  26.513  51.920  1.00  0.00     0.246 C 
HETATM    6  N   UNL     1       5.342  27.420  50.886  1.00  0.00    -0.066 N 
HETATM    7  H   UNL     1       6.025  28.144  50.623  1.00  0.00     0.280 HD
HETATM    8  C   UNL     1       4.166  28.117  51.538  1.00  0.00     0.236 C 
HETATM    9  C   UNL     1       4.063  27.478  52.918  1.00  0.00     0.040 C 
HETATM   10  C   UNL     1       6.324  28.255  53.781  1.00  0.00     0.014 C 
HETATM   11  C   UNL     1       7.697  27.863  54.337  1.00  0.00     0.029 C 
HETATM   12  C   UNL     1       7.613  26.761  55.388  1.00  0.00     0.235 C 
ENDROOT
BRANCH   1  13
HETATM   13  C   UNL     1       6.930  24.367  55.711  1.00  0.00     0.273 C 
BRANCH  13  14
HETATM   14  C   UNL     1       7.328  23.112  54.974  1.00  0.00    -0.032 A 
HETATM   15  C   UNL     1       7.583  21.919  55.675  1.00  0.00     0.012 A 
HETATM   16  C   UNL     1       8.037  20.786  54.997  1.00  0.00     0.043 A 
HETATM   17  C   UNL     1       8.224  20.836  53.620  1.00  0.00     0.116 A 
HETATM   18  C   UNL     1       7.952  21.995  52.907  1.00  0.00     0.043 A 
HETATM   19  F   UNL     1       8.677  19.755  52.977  1.00  0.00    -0.206 F 
HETATM   20  C   UNL     1       7.503  23.134  53.580  1.00  0.00     0.012 A 
ENDBRANCH  13  14
ENDBRANCH   1  13
BRANCH   6  21
HETATM   21  C   UNL     1       4.987  26.726  49.577  1.00  0.00     0.280 C 
BRANCH  21  22
HETATM   22  C   UNL     1       4.109  27.572  48.712  1.00  0.00     0.009 A 
HETATM   23  S   UNL     1       2.522  27.042  48.322  1.00  0.00    -0.084 SA
HETATM   24  C   UNL     1       2.223  28.407  47.347  1.00  0.00     0.058 A 
HETATM   25  C   UNL     1       3.290  29.278  47.348  1.00  0.00     0.029 A 
HETATM   26  C   UNL     1       4.379  28.800  48.139  1.00  0.00     0.018 A 
BRANCH  24  27
HETATM   27  C   UNL     1       1.010  28.597  46.622  1.00  0.00    -0.057 C 
BRANCH  27  28
HETATM   28  C   UNL     1      -0.030  28.748  46.042  1.00  0.00    -0.075 C 
BRANCH  28  29
HETATM   29  C   UNL     1      -1.298  28.969  45.347  1.00  0.00     0.258 C 
BRANCH  29  30
HETATM   30  O   UNL     1      -2.366  28.581  46.196  1.00  0.00    -0.389 OA
HETATM   31  H   UNL     1      -3.141  28.441  45.624  1.00  0.00     0.210 HD
ENDBRANCH  29  30
ENDBRANCH  28  29
ENDBRANCH  27  28
ENDBRANCH  24  27
ENDBRANCH  21  22
ENDBRANCH   6  21
TORSDOF 8
ENDMDL
MODEL 4
REMARK VINA RESULT:      -8.3      5.717      8.749
REMARK  8 active torsions:
REMARK  status: ('A' for Active; 'I' for Inactive)
REMARK    1  A    between atoms: C_2  and  C_3 
REMARK    2  A    between atoms: C_3  and  N_4 
REMARK    3  A    between atoms: N_9  and  C_11 
REMARK    4  A    between atoms: C_11  and  C_12 
REMARK    5  A    between atoms: C_14  and  C_15 
REMARK    6  A    between atoms: C_15  and  C_16 
REMARK    7  A    between atoms: C_16  and  C_17 
REMARK    8  A    between atoms: C_17  and  O_18 
ROOT
HETATM    1  N   UNL     1       6.583  26.415  56.088  1.00  0.00    -0.066 N 
HETATM    2  H   UNL     1       6.633  26.403  55.063  1.00  0.00     0.280 HD
HETATM    3  C   UNL     1       5.483  27.341  56.562  1.00  0.00     0.246 C 
HETATM    4  C   UNL     1       5.702  28.775  56.043  1.00  0.00     0.009 C 
HETATM    5  C   UNL     1       5.402  28.883  54.540  1.00  0.00     0.246 C 
HETATM    6  N   UNL     1       5.016  30.326  54.306  1.00  0.00    -0.066 N 
HETATM    7  H   UNL     1       5.846  30.842  53.982  1.00  0.00     0.280 HD
HETATM    8  C   UNL     1       4.602  30.914  55.639  1.00  0.00     0.236 C 
HETATM    9  C   UNL     1       4.633  29.732  56.601  1.00  0.00     0.040 C 
HETATM   10  C   UNL     1       7.123  29.255  56.417  1.00  0.00     0.014 C 
HETATM   11  C   UNL     1       8.220  28.249  56.058  1.00  0.00     0.029 C 
HETATM   12  C   UNL     1       7.937  26.851  56.598  1.00  0.00     0.235 C 
ENDROOT
BRANCH   1  13
HETATM   13  C   UNL     1       6.306  24.949  56.439  1.00  0.00     0.273 C 
BRANCH  13  14
HETATM   14  C   UNL     1       6.878  24.013  55.403  1.00  0.00    -0.032 A 
HETATM   15  C   UNL     1       6.747  24.296  54.031  1.00  0.00     0.012 A 
HETATM   16  C   UNL     1       7.199  23.382  53.077  1.00  0.00     0.043 A 
HETATM   17  C   UNL     1       7.795  22.196  53.488  1.00  0.00     0.116 A 
HETATM   18  C   UNL     1       7.959  21.911  54.837  1.00  0.00     0.043 A 
HETATM   19  F   UNL     1       8.211  21.315  52.571  1.00  0.00    -0.206 F 
HETATM   20  C   UNL     1       7.503  22.818  55.796  1.00  0.00     0.012 A 
ENDBRANCH  13  14
ENDBRANCH   1  13
BRANCH   6  21
HETATM   21  C   UNL     1       3.980  30.527  53.207  1.00  0.00     0.280 C 
BRANCH  21  22
HETATM   22  C   UNL     1       4.278  29.703  51.996  1.00  0.00     0.009 A 
HETATM   23  S   UNL     1       3.125  28.561  51.431  1.00  0.00    -0.084 SA
HETATM   24  C   UNL     1       4.145  28.041  50.169  1.00  0.00     0.058 A 
HETATM   25  C   UNL     1       5.327  28.748  50.144  1.00  0.00     0.029 A 
HETATM   26  C   UNL     1       5.404  29.711  51.195  1.00  0.00     0.018 A 
BRANCH  24  27
HETATM   27  C   UNL     1       3.797  26.993  49.268  1.00  0.00    -0.057 C 
BRANCH  27  28
HETATM   28  C   UNL     1       3.533  26.118  48.488  1.00  0.00    -0.075 C 
BRANCH  28  29
HETATM   29  C   UNL     1       3.231  25.027  47.562  1.00  0.00     0.258 C 
BRANCH  29  30
HETATM   30  O   UNL     1       2.723  23.923  48.295  1.00  0.00    -0.389 OA
HETATM   31  H   UNL     1       1.758  23.928  48.174  1.00  0.00     0.210 HD
ENDBRANCH  29  30
ENDBRANCH  28  29
ENDBRANCH  27  28
ENDBRANCH  24  27
ENDBRANCH  21  22
ENDBRANCH   6  21
TORSDOF 8
ENDMDL
MODEL 5
REMARK VINA RESULT:      -8.2      6.872     10.240
REMARK  8 active torsions:
REMARK  status: ('A' for Active; 'I' for Inactive)
REMARK    1  A    between atoms: C_2  and  C_3 
REMARK    2  A    between atoms: C_3  and  N_4 
REMARK    3  A    between atoms: N_9  and  C_11 
REMARK    4  A    between atoms: C_11  and  C_12 
REMARK    5  A    between atoms: C_14  and  C_15 
REMARK    6  A    between atoms: C_15  and  C_16 
REMARK    7  A    between atoms: C_16  and  C_17 
REMARK    8  A    between atoms: C_17  and  O_18 
ROOT
HETATM    1  N   UNL     1       6.831  27.005  55.403  1.00  0.00    -0.066 N 
HETATM    2  H   UNL     1       7.605  27.341  54.819  1.00  0.00     0.280 HD
HETATM    3  C   UNL     1       5.610  26.708  54.557  1.00  0.00     0.246 C 
HETATM    4  C   UNL     1       5.160  27.956  53.774  1.00  0.00     0.009 C 
HETATM    5  C   UNL     1       6.117  28.272  52.616  1.00  0.00     0.246 C 
HETATM    6  N   UNL     1       5.289  29.021  51.597  1.00  0.00    -0.066 N 
HETATM    7  H   UNL     1       5.429  30.032  51.735  1.00  0.00     0.280 HD
HETATM    8  C   UNL     1       3.831  28.719  51.877  1.00  0.00     0.236 C 
HETATM    9  C   UNL     1       3.867  27.675  52.987  1.00  0.00     0.040 C 
HETATM   10  C   UNL     1       4.968  29.142  54.747  1.00  0.00     0.014 C 
HETATM   11  C   UNL     1       6.153  29.350  55.695  1.00  0.00     0.029 C 
HETATM   12  C   UNL     1       6.548  28.074  56.432  1.00  0.00     0.235 C 
ENDROOT
BRANCH   1  13
HETATM   13  C   UNL     1       7.409  25.746  56.058  1.00  0.00     0.273 C 
BRANCH  13  14
HETATM   14  C   UNL     1       7.517  24.608  55.072  1.00  0.00    -0.032 A 
HETATM   15  C   UNL     1       7.319  23.279  55.487  1.00  0.00     0.012 A 
HETATM   16  C   UNL     1       7.509  22.225  54.591  1.00  0.00     0.043 A 
HETATM   17  C   UNL     1       7.881  22.495  53.280  1.00  0.00     0.116 A 
HETATM   18  C   UNL     1       8.055  23.801  52.843  1.00  0.00     0.043 A 
HETATM   19  F   UNL     1       8.079  21.483  52.429  1.00  0.00    -0.206 F 
HETATM   20  C   UNL     1       7.872  24.860  53.736  1.00  0.00     0.012 A 
ENDBRANCH  13  14
ENDBRANCH   1  13
BRANCH   6  21
HETATM   21  C   UNL     1       5.694  28.767  50.151  1.00  0.00     0.280 C 
BRANCH  21  22
HETATM   22  C   UNL     1       4.636  28.034  49.390  1.00  0.00     0.009 A 
HETATM   23  S   UNL     1       3.510  28.906  48.430  1.00  0.00    -0.084 SA
HETATM   24  C   UNL     1       2.680  27.488  47.979  1.00  0.00     0.058 A 
HETATM   25  C   UNL     1       3.269  26.362  48.510  1.00  0.00     0.029 A 
HETATM   26  C   UNL     1       4.401  26.674  49.321  1.00  0.00     0.018 A 
BRANCH  24  27
HETATM   27  C   UNL     1       1.515  27.495  47.157  1.00  0.00    -0.057 C 
BRANCH  27  28
HETATM   28  C   UNL     1       0.550  27.524  46.442  1.00  0.00    -0.075 C 
BRANCH  28  29
HETATM   29  C   UNL     1      -0.600  27.556  45.541  1.00  0.00     0.258 C 
BRANCH  29  30
HETATM   30  O   UNL     1      -0.263  26.889  44.334  1.00  0.00    -0.389 OA
HETATM   31  H   UNL     1       0.707  26.834  44.307  1.00  0.00     0.210 HD
ENDBRANCH  29  30
ENDBRANCH  28  29
ENDBRANCH  27  28
ENDBRANCH  24  27
ENDBRANCH  21  22
ENDBRANCH   6  21
TORSDOF 8
ENDMDL
MODEL 6
REMARK VINA RESULT:      -8.0      5.433     10.946
REMARK  8 active torsions:
REMARK  status: ('A' for Active; 'I' for Inactive)
REMARK    1  A    between atoms: C_2  and  C_3 
REMARK    2  A    between atoms: C_3  and  N_4 
REMARK    3  A    between atoms: N_9  and  C_11 
REMARK    4  A    between atoms: C_11  and  C_12 
REMARK    5  A    between atoms: C_14  and  C_15 
REMARK    6  A    between atoms: C_15  and  C_16 
REMARK    7  A    between atoms: C_16  and  C_17 
REMARK    8  A    between atoms: C_17  and  O_18 
ROOT
HETATM    1  N   UNL     1       6.522  31.395  59.277  1.00  0.00    -0.066 N 
HETATM    2  H   UNL     1       6.036  30.630  59.761  1.00  0.00     0.280 HD
HETATM    3  C   UNL     1       6.472  31.197  57.776  1.00  0.00     0.246 C 
HETATM    4  C   UNL     1       7.102  29.851  57.371  1.00  0.00     0.009 C 
HETATM    5  C   UNL     1       6.195  28.669  57.745  1.00  0.00     0.246 C 
HETATM    6  N   UNL     1       6.552  27.563  56.778  1.00  0.00    -0.066 N 
HETATM    7  H   UNL     1       7.233  26.935  57.229  1.00  0.00     0.280 HD
HETATM    8  C   UNL     1       7.237  28.196  55.585  1.00  0.00     0.236 C 
HETATM    9  C   UNL     1       7.132  29.696  55.840  1.00  0.00     0.040 C 
HETATM   10  C   UNL     1       8.525  29.739  57.966  1.00  0.00     0.014 C 
HETATM   11  C   UNL     1       8.589  30.075  59.459  1.00  0.00     0.029 C 
HETATM   12  C   UNL     1       7.943  31.417  59.789  1.00  0.00     0.235 C 
ENDROOT
BRANCH   1  13
HETATM   13  C   UNL     1       5.751  32.639  59.730  1.00  0.00     0.273 C 
BRANCH  13  14
HETATM   14  C   UNL     1       5.773  32.789  61.231  1.00  0.00    -0.032 A 
HETATM   15  C   UNL     1       5.070  31.888  62.052  1.00  0.00     0.012 A 
HETATM   16  C   UNL     1       5.021  32.085  63.433  1.00  0.00     0.043 A 
HETATM   17  C   UNL     1       5.684  33.168  63.998  1.00  0.00     0.116 A 
HETATM   18  C   UNL     1       6.406  34.052  63.209  1.00  0.00     0.043 A 
HETATM   19  F   UNL     1       5.620  33.363  65.320  1.00  0.00    -0.206 F 
HETATM   20  C   UNL     1       6.454  33.865  61.825  1.00  0.00     0.012 A 
ENDBRANCH  13  14
ENDBRANCH   1  13
BRANCH   6  21
HETATM   21  C   UNL     1       5.385  26.661  56.399  1.00  0.00     0.280 C 
BRANCH  21  22
HETATM   22  C   UNL     1       5.769  25.645  55.372  1.00  0.00     0.009 A 
HETATM   23  S   UNL     1       6.779  24.325  55.807  1.00  0.00    -0.084 SA
HETATM   24  C   UNL     1       6.796  23.714  54.216  1.00  0.00     0.058 A 
HETATM   25  C   UNL     1       6.014  24.470  53.372  1.00  0.00     0.029 A 
HETATM   26  C   UNL     1       5.416  25.583  54.037  1.00  0.00     0.018 A 
BRANCH  24  27
HETATM   27  C   UNL     1       7.544  22.563  53.832  1.00  0.00    -0.057 C 
BRANCH  27  28
HETATM   28  C   UNL     1       8.173  21.582  53.542  1.00  0.00    -0.075 C 
BRANCH  28  29
HETATM   29  C   UNL     1       8.931  20.373  53.225  1.00  0.00     0.258 C 
BRANCH  29  30
HETATM   30  O   UNL     1       8.952  19.526  54.364  1.00  0.00    -0.389 OA
HETATM   31  H   UNL     1       9.404  18.708  54.096  1.00  0.00     0.210 HD
ENDBRANCH  29  30
ENDBRANCH  28  29
ENDBRANCH  27  28
ENDBRANCH  24  27
ENDBRANCH  21  22
ENDBRANCH   6  21
TORSDOF 8
ENDMDL
MODEL 7
REMARK VINA RESULT:      -8.0      6.847     10.111
REMARK  8 active torsions:
REMARK  status: ('A' for Active; 'I' for Inactive)
REMARK    1  A    between atoms: C_2  and  C_3 
REMARK    2  A    between atoms: C_3  and  N_4 
REMARK    3  A    between atoms: N_9  and  C_11 
REMARK    4  A    between atoms: C_11  and  C_12 
REMARK    5  A    between atoms: C_14  and  C_15 
REMARK    6  A    between atoms: C_15  and  C_16 
REMARK    7  A    between atoms: C_16  and  C_17 
REMARK    8  A    between atoms: C_17  and  O_18 
ROOT
HETATM    1  N   UNL     1       6.874  25.629  54.822  1.00  0.00    -0.066 N 
HETATM    2  H   UNL     1       7.348  25.308  53.970  1.00  0.00     0.280 HD
HETATM    3  C   UNL     1       5.447  26.037  54.522  1.00  0.00     0.246 C 
HETATM    4  C   UNL     1       5.399  27.149  53.457  1.00  0.00     0.009 C 
HETATM    5  C   UNL     1       5.736  26.607  52.060  1.00  0.00     0.246 C 
HETATM    6  N   UNL     1       5.049  27.539  51.087  1.00  0.00    -0.066 N 
HETATM    7  H   UNL     1       5.730  28.244  50.768  1.00  0.00     0.280 HD
HETATM    8  C   UNL     1       3.956  28.267  51.840  1.00  0.00     0.236 C 
HETATM    9  C   UNL     1       3.953  27.623  53.221  1.00  0.00     0.040 C 
HETATM   10  C   UNL     1       6.303  28.326  53.889  1.00  0.00     0.014 C 
HETATM   11  C   UNL     1       7.706  27.889  54.323  1.00  0.00     0.029 C 
HETATM   12  C   UNL     1       7.678  26.783  55.374  1.00  0.00     0.235 C 
ENDROOT
BRANCH   1  13
HETATM   13  C   UNL     1       6.953  24.409  55.746  1.00  0.00     0.273 C 
BRANCH  13  14
HETATM   14  C   UNL     1       7.426  23.183  55.004  1.00  0.00    -0.032 A 
HETATM   15  C   UNL     1       7.623  23.219  53.612  1.00  0.00     0.012 A 
HETATM   16  C   UNL     1       7.975  22.058  52.920  1.00  0.00     0.043 A 
HETATM   17  C   UNL     1       8.144  20.866  53.615  1.00  0.00     0.116 A 
HETATM   18  C   UNL     1       7.980  20.816  54.993  1.00  0.00     0.043 A 
HETATM   19  F   UNL     1       8.462  19.753  52.947  1.00  0.00    -0.206 F 
HETATM   20  C   UNL     1       7.623  21.972  55.690  1.00  0.00     0.012 A 
ENDBRANCH  13  14
ENDBRANCH   1  13
BRANCH   6  21
HETATM   21  C   UNL     1       4.562  26.865  49.811  1.00  0.00     0.280 C 
BRANCH  21  22
HETATM   22  C   UNL     1       4.161  27.857  48.768  1.00  0.00     0.009 A 
HETATM   23  S   UNL     1       5.309  28.991  48.177  1.00  0.00    -0.084 SA
HETATM   24  C   UNL     1       4.164  29.734  47.156  1.00  0.00     0.058 A 
HETATM   25  C   UNL     1       2.939  29.109  47.225  1.00  0.00     0.029 A 
HETATM   26  C   UNL     1       2.936  28.022  48.151  1.00  0.00     0.018 A 
BRANCH  24  27
HETATM   27  C   UNL     1       4.463  30.869  46.347  1.00  0.00    -0.057 C 
BRANCH  27  28
HETATM   28  C   UNL     1       4.730  31.802  45.640  1.00  0.00    -0.075 C 
BRANCH  28  29
HETATM   29  C   UNL     1       5.020  32.954  44.788  1.00  0.00     0.258 C 
BRANCH  29  30
HETATM   30  O   UNL     1       5.212  32.509  43.455  1.00  0.00    -0.389 OA
HETATM   31  H   UNL     1       4.551  32.969  42.909  1.00  0.00     0.210 HD
ENDBRANCH  29  30
ENDBRANCH  28  29
ENDBRANCH  27  28
ENDBRANCH  24  27
ENDBRANCH  21  22
ENDBRANCH   6  21
TORSDOF 8
ENDMDL
MODEL 8
REMARK VINA RESULT:      -7.7      3.046      3.736
REMARK  8 active torsions:
REMARK  status: ('A' for Active; 'I' for Inactive)
REMARK    1  A    between atoms: C_2  and  C_3 
REMARK    2  A    between atoms: C_3  and  N_4 
REMARK    3  A    between atoms: N_9  and  C_11 
REMARK    4  A    between atoms: C_11  and  C_12 
REMARK    5  A    between atoms: C_14  and  C_15 
REMARK    6  A    between atoms: C_15  and  C_16 
REMARK    7  A    between atoms: C_16  and  C_17 
REMARK    8  A    between atoms: C_17  and  O_18 
ROOT
HETATM    1  N   UNL     1       6.922  24.849  53.075  1.00  0.00    -0.066 N 
HETATM    2  H   UNL     1       6.999  24.835  54.098  1.00  0.00     0.280 HD
HETATM    3  C   UNL     1       7.012  26.267  52.550  1.00  0.00     0.246 C 
HETATM    4  C   UNL     1       5.913  27.157  53.160  1.00  0.00     0.009 C 
HETATM    5  C   UNL     1       6.205  27.484  54.632  1.00  0.00     0.246 C 
HETATM    6  N   UNL     1       5.501  28.795  54.904  1.00  0.00    -0.066 N 
HETATM    7  H   UNL     1       4.584  28.596  55.330  1.00  0.00     0.280 HD
HETATM    8  C   UNL     1       5.250  29.467  53.571  1.00  0.00     0.236 C 
HETATM    9  C   UNL     1       5.952  28.572  52.556  1.00  0.00     0.040 C 
HETATM   10  C   UNL     1       4.530  26.501  52.945  1.00  0.00     0.014 C 
HETATM   11  C   UNL     1       4.485  25.025  53.352  1.00  0.00     0.029 C 
HETATM   12  C   UNL     1       5.603  24.206  52.716  1.00  0.00     0.235 C 
ENDROOT
BRANCH   1  13
HETATM   13  C   UNL     1       8.102  23.982  52.624  1.00  0.00     0.273 C 
BRANCH  13  14
HETATM   14  C   UNL     1       8.284  22.784  53.523  1.00  0.00    -0.032 A 
HETATM   15  C   UNL     1       8.127  21.480  53.020  1.00  0.00     0.012 A 
HETATM   16  C   UNL     1       8.209  20.379  53.876  1.00  0.00     0.043 A 
HETATM   17  C   UNL     1       8.461  20.576  55.228  1.00  0.00     0.116 A 
HETATM   18  C   UNL     1       8.646  21.854  55.740  1.00  0.00     0.043 A 
HETATM   19  F   UNL     1       8.520  19.522  56.048  1.00  0.00    -0.206 F 
HETATM   20  C   UNL     1       8.560  22.959  54.890  1.00  0.00     0.012 A 
ENDBRANCH  13  14
ENDBRANCH   1  13
BRANCH   6  21
HETATM   21  C   UNL     1       6.211  29.690  55.912  1.00  0.00     0.280 C 
BRANCH  21  22
HETATM   22  C   UNL     1       5.259  30.302  56.889  1.00  0.00     0.009 A 
HETATM   23  S   UNL     1       5.844  31.362  58.107  1.00  0.00    -0.084 SA
HETATM   24  C   UNL     1       4.293  31.565  58.783  1.00  0.00     0.058 A 
HETATM   25  C   UNL     1       3.334  30.877  58.073  1.00  0.00     0.029 A 
HETATM   26  C   UNL     1       3.888  30.151  56.976  1.00  0.00     0.018 A 
BRANCH  24  27
HETATM   27  C   UNL     1       4.047  32.351  59.947  1.00  0.00    -0.057 C 
BRANCH  27  28
HETATM   28  C   UNL     1       3.848  32.984  60.948  1.00  0.00    -0.075 C 
BRANCH  28  29
HETATM   29  C   UNL     1       3.602  33.786  62.145  1.00  0.00     0.258 C 
BRANCH  29  30
HETATM   30  O   UNL     1       2.589  33.164  62.921  1.00  0.00    -0.389 OA
HETATM   31  H   UNL     1       3.013  32.864  63.743  1.00  0.00     0.210 HD
ENDBRANCH  29  30
ENDBRANCH  28  29
ENDBRANCH  27  28
ENDBRANCH  24  27
ENDBRANCH  21  22
ENDBRANCH   6  21
TORSDOF 8
ENDMDL
MODEL 9
REMARK VINA RESULT:      -7.6      7.775     11.077
REMARK  8 active torsions:
REMARK  status: ('A' for Active; 'I' for Inactive)
REMARK    1  A    between atoms: C_2  and  C_3 
REMARK    2  A    between atoms: C_3  and  N_4 
REMARK    3  A    between atoms: N_9  and  C_11 
REMARK    4  A    between atoms: C_11  and  C_12 
REMARK    5  A    between atoms: C_14  and  C_15 
REMARK    6  A    between atoms: C_15  and  C_16 
REMARK    7  A    between atoms: C_16  and  C_17 
REMARK    8  A    between atoms: C_17  and  O_18 
ROOT
HETATM    1  N   UNL     1       4.385  30.947  49.184  1.00  0.00    -0.066 N 
HETATM    2  H   UNL     1       5.398  30.782  49.158  1.00  0.00     0.280 HD
HETATM    3  C   UNL     1       3.826  30.637  50.557  1.00  0.00     0.246 C 
HETATM    4  C   UNL     1       4.120  29.180  50.961  1.00  0.00     0.009 C 
HETATM    5  C   UNL     1       5.601  28.979  51.314  1.00  0.00     0.246 C 
HETATM    6  N   UNL     1       5.637  27.806  52.266  1.00  0.00    -0.066 N 
HETATM    7  H   UNL     1       5.847  26.951  51.730  1.00  0.00     0.280 HD
HETATM    8  C   UNL     1       4.250  27.647  52.854  1.00  0.00     0.236 C 
HETATM    9  C   UNL     1       3.472  28.842  52.316  1.00  0.00     0.040 C 
HETATM   10  C   UNL     1       3.622  28.220  49.856  1.00  0.00     0.014 C 
HETATM   11  C   UNL     1       4.079  28.620  48.450  1.00  0.00     0.029 C 
HETATM   12  C   UNL     1       3.762  30.075  48.120  1.00  0.00     0.235 C 
ENDROOT
BRANCH   1  13
HETATM   13  C   UNL     1       4.265  32.431  48.825  1.00  0.00     0.273 C 
BRANCH  13  14
HETATM   14  C   UNL     1       5.444  32.901  48.009  1.00  0.00    -0.032 A 
HETATM   15  C   UNL     1       6.585  33.432  48.637  1.00  0.00     0.012 A 
HETATM   16  C   UNL     1       7.635  33.948  47.874  1.00  0.00     0.043 A 
HETATM   17  C   UNL     1       7.555  33.920  46.487  1.00  0.00     0.116 A 
HETATM   18  C   UNL     1       6.450  33.376  45.848  1.00  0.00     0.043 A 
HETATM   19  F   UNL     1       8.554  34.431  45.760  1.00  0.00    -0.206 F 
HETATM   20  C   UNL     1       5.394  32.864  46.605  1.00  0.00     0.012 A 
ENDBRANCH  13  14
ENDBRANCH   1  13
BRANCH   6  21
HETATM   21  C   UNL     1       6.736  27.884  53.318  1.00  0.00     0.280 C 
BRANCH  21  22
HETATM   22  C   UNL     1       7.163  26.531  53.787  1.00  0.00     0.009 A 
HETATM   23  S   UNL     1       7.512  25.297  52.644  1.00  0.00    -0.084 SA
HETATM   24  C   UNL     1       7.838  24.153  53.864  1.00  0.00     0.058 A 
HETATM   25  C   UNL     1       7.728  24.703  55.121  1.00  0.00     0.029 A 
HETATM   26  C   UNL     1       7.343  26.077  55.080  1.00  0.00     0.018 A 
BRANCH  24  27
HETATM   27  C   UNL     1       8.173  22.795  53.588  1.00  0.00    -0.057 C 
BRANCH  27  28
HETATM   28  C   UNL     1       8.427  21.640  53.376  1.00  0.00    -0.075 C 
BRANCH  28  29
HETATM   29  C   UNL     1       8.697  20.227  53.118  1.00  0.00     0.258 C 
BRANCH  29  30
HETATM   30  O   UNL     1       8.970  19.574  54.348  1.00  0.00    -0.389 OA
HETATM   31  H   UNL     1       9.609  18.867  54.153  1.00  0.00     0.210 HD
ENDBRANCH  29  30
ENDBRANCH  28  29
ENDBRANCH  27  28
ENDBRANCH  24  27
ENDBRANCH  21  22
ENDBRANCH   6  21
TORSDOF 8
ENDMDL
MODEL 10
REMARK VINA RESULT:      -7.6      5.486      8.226
REMARK  8 active torsions:
REMARK  status: ('A' for Active; 'I' for Inactive)
REMARK    1  A    between atoms: C_2  and  C_3 
REMARK    2  A    between atoms: C_3  and  N_4 
REMARK    3  A    between atoms: N_9  and  C_11 
REMARK    4  A    between atoms: C_11  and  C_12 
REMARK    5  A    between atoms: C_14  and  C_15 
REMARK    6  A    between atoms: C_15  and  C_16 
REMARK    7  A    between atoms: C_16  and  C_17 
REMARK    8  A    between atoms: C_17  and  O_18 
ROOT
HETATM    1  N   UNL     1       6.459  26.349  55.956  1.00  0.00    -0.066 N 
HETATM    2  H   UNL     1       6.656  26.325  54.948  1.00  0.00     0.280 HD
HETATM    3  C   UNL     1       5.228  27.184  56.242  1.00  0.00     0.246 C 
HETATM    4  C   UNL     1       5.398  28.622  55.717  1.00  0.00     0.009 C 
HETATM    5  C   UNL     1       5.309  28.678  54.184  1.00  0.00     0.246 C 
HETATM    6  N   UNL     1       4.840  30.077  53.855  1.00  0.00    -0.066 N 
HETATM    7  H   UNL     1       5.661  30.659  53.637  1.00  0.00     0.280 HD
HETATM    8  C   UNL     1       4.192  30.650  55.098  1.00  0.00     0.236 C 
HETATM    9  C   UNL     1       4.183  29.492  56.089  1.00  0.00     0.040 C 
HETATM   10  C   UNL     1       6.705  29.231  56.273  1.00  0.00     0.014 C 
HETATM   11  C   UNL     1       7.924  28.319  56.102  1.00  0.00     0.029 C 
HETATM   12  C   UNL     1       7.684  26.911  56.638  1.00  0.00     0.235 C 
ENDROOT
BRANCH   1  13
HETATM   13  C   UNL     1       6.258  24.871  56.307  1.00  0.00     0.273 C 
BRANCH  13  14
HETATM   14  C   UNL     1       6.883  23.966  55.274  1.00  0.00    -0.032 A 
HETATM   15  C   UNL     1       6.884  24.325  53.913  1.00  0.00     0.012 A 
HETATM   16  C   UNL     1       7.383  23.443  52.952  1.00  0.00     0.043 A 
HETATM   17  C   UNL     1       7.894  22.212  53.346  1.00  0.00     0.116 A 
HETATM   18  C   UNL     1       7.927  21.851  54.686  1.00  0.00     0.043 A 
HETATM   19  F   UNL     1       8.354  21.363  52.422  1.00  0.00    -0.206 F 
HETATM   20  C   UNL     1       7.424  22.726  55.652  1.00  0.00     0.012 A 
ENDBRANCH  13  14
ENDBRANCH   1  13
BRANCH   6  21
HETATM   21  C   UNL     1       3.959  30.168  52.615  1.00  0.00     0.280 C 
BRANCH  21  22
HETATM   22  C   UNL     1       4.745  30.517  51.392  1.00  0.00     0.009 A 
HETATM   23  S   UNL     1       5.104  32.161  51.045  1.00  0.00    -0.084 SA
HETATM   24  C   UNL     1       5.900  31.759  49.593  1.00  0.00     0.058 A 
HETATM   25  C   UNL     1       5.935  30.398  49.390  1.00  0.00     0.029 A 
HETATM   26  C   UNL     1       5.273  29.678  50.430  1.00  0.00     0.018 A 
BRANCH  24  27
HETATM   27  C   UNL     1       6.448  32.735  48.709  1.00  0.00    -0.057 C 
BRANCH  27  28
HETATM   28  C   UNL     1       6.936  33.561  47.988  1.00  0.00    -0.075 C 
BRANCH  28  29
HETATM   29  C   UNL     1       7.517  34.596  47.133  1.00  0.00     0.258 C 
BRANCH  29  30
HETATM   30  O   UNL     1       8.671  35.127  47.765  1.00  0.00    -0.389 OA
HETATM   31  H   UNL     1       8.879  34.535  48.508  1.00  0.00     0.210 HD
ENDBRANCH  29  30
ENDBRANCH  28  29
ENDBRANCH  27  28
ENDBRANCH  24  27
ENDBRANCH  21  22
ENDBRANCH   6  21
TORSDOF 8
ENDMDL
