MODEL 1
REMARK VINA RESULT:     -10.4      0.000      0.000
REMARK  6 active torsions:
REMARK  status: ('A' for Active; 'I' for Inactive)
REMARK    1  A    between atoms: C_4  and  C_5 
REMARK    2  A    between atoms: C_5  and  N_6 
REMARK    3  A    between atoms: C_9  and  C_10 
REMARK       I    between atoms: C_10  and  N_11 
REMARK    4  A    between atoms: N_11  and  N_12 
REMARK    5  A    between atoms: C_13  and  C_14 
REMARK    6  A    between atoms: C_15  and  O_16 
ROOT
HETATM    1  C   UNL     1       7.091  28.465  56.906  1.00  0.00     0.271 C 
HETATM    2  N   UNL     1       7.183  27.138  57.296  1.00  0.00    -0.243 N 
HETATM    3  O   UNL     1       6.800  28.833  55.772  1.00  0.00    -0.266 OA
HETATM    4  H   UNL     1       7.344  26.837  58.248  1.00  0.00     0.192 HD
ENDROOT
BRANCH   2   5
HETATM    5  N   UNL     1       7.018  26.190  56.333  1.00  0.00    -0.183 NA
HETATM    6  C   UNL     1       8.008  25.381  56.106  1.00  0.00     0.153 C 
BRANCH   6   7
HETATM    7  C   UNL     1       7.909  24.334  55.054  1.00  0.00     0.027 A 
HETATM    8  C   UNL     1       7.692  24.724  53.719  1.00  0.00     0.078 A 
HETATM    9  C   UNL     1       7.594  23.776  52.709  1.00  0.00     0.038 A 
HETATM   10  C   UNL     1       7.715  22.426  53.016  1.00  0.00     0.015 A 
HETATM   11  C   UNL     1       7.936  22.001  54.333  1.00  0.00    -0.025 A 
HETATM   12  C   UNL     1       8.039  22.950  55.388  1.00  0.00    -0.012 A 
HETATM   13  C   UNL     1       8.060  20.629  54.595  1.00  0.00     0.012 A 
HETATM   14  C   UNL     1       8.270  22.431  56.691  1.00  0.00     0.013 A 
HETATM   15  C   UNL     1       8.390  21.059  56.934  1.00  0.00     0.001 A 
HETATM   16  C   UNL     1       8.285  20.158  55.886  1.00  0.00     0.001 A 
BRANCH   8  17
HETATM   17  O   UNL     1       7.562  26.024  53.307  1.00  0.00    -0.360 OA
HETATM   18  H   UNL     1       8.457  26.418  53.203  1.00  0.00     0.217 HD
ENDBRANCH   8  17
ENDBRANCH   6   7
ENDBRANCH   2   5
BRANCH   1  19
HETATM   19  C   UNL     1       7.378  29.522  57.919  1.00  0.00     0.036 A 
HETATM   20  C   UNL     1       8.408  29.454  58.854  1.00  0.00     0.034 A 
HETATM   21  C   UNL     1       8.638  30.544  59.695  1.00  0.00     0.091 A 
HETATM   22  N   UNL     1       7.883  31.664  59.607  1.00  0.00    -0.362 N 
HETATM   23  C   UNL     1       6.872  31.744  58.713  1.00  0.00     0.091 A 
HETATM   24  C   UNL     1       6.600  30.683  57.862  1.00  0.00     0.034 A 
BRANCH  22  25
HETATM   25  C   UNL     1       8.204  32.841  60.457  1.00  0.00     0.166 C 
BRANCH  25  26
HETATM   26  C   UNL     1       7.437  32.833  61.753  1.00  0.00    -0.040 A 
HETATM   27  C   UNL     1       8.125  32.684  62.968  1.00  0.00     0.009 A 
HETATM   28  C   UNL     1       7.438  32.726  64.183  1.00  0.00     0.001 A 
HETATM   29  C   UNL     1       6.062  32.925  64.200  1.00  0.00     0.000 A 
HETATM   30  C   UNL     1       5.366  33.085  63.003  1.00  0.00     0.001 A 
HETATM   31  C   UNL     1       6.049  33.046  61.785  1.00  0.00     0.009 A 
ENDBRANCH  25  26
ENDBRANCH  22  25
ENDBRANCH   1  19
TORSDOF 6
ENDMDL
MODEL 2
REMARK VINA RESULT:      -9.7      2.366     11.272
REMARK  6 active torsions:
REMARK  status: ('A' for Active; 'I' for Inactive)
REMARK    1  A    between atoms: C_4  and  C_5 
REMARK    2  A    between atoms: C_5  and  N_6 
REMARK    3  A    between atoms: C_9  and  C_10 
REMARK       I    between atoms: C_10  and  N_11 
REMARK    4  A    between atoms: N_11  and  N_12 
REMARK    5  A    between atoms: C_13  and  C_14 
REMARK    6  A    between atoms: C_15  and  O_16 
ROOT
HETATM    1  C   UNL     1       7.756  30.125  58.412  1.00  0.00     0.271 C 
HETATM    2  N   UNL     1       7.136  31.327  58.716  1.00  0.00    -0.243 N 
HETATM    3  O   UNL     1       8.464  29.496  59.194  1.00  0.00    -0.266 OA
HETATM    4  H   UNL     1       6.490  31.803  58.101  1.00  0.00     0.192 HD
ENDROOT
BRANCH   2   5
HETATM    5  N   UNL     1       7.404  31.878  59.932  1.00  0.00    -0.183 NA
HETATM    6  C   UNL     1       6.398  32.296  60.639  1.00  0.00     0.153 C 
BRANCH   6   7
HETATM    7  C   UNL     1       6.614  32.929  61.968  1.00  0.00     0.027 A 
HETATM    8  C   UNL     1       7.533  32.347  62.862  1.00  0.00     0.078 A 
HETATM    9  C   UNL     1       7.761  32.907  64.111  1.00  0.00     0.038 A 
HETATM   10  C   UNL     1       7.080  34.060  64.486  1.00  0.00     0.015 A 
HETATM   11  C   UNL     1       6.161  34.669  63.620  1.00  0.00    -0.025 A 
HETATM   12  C   UNL     1       5.906  34.115  62.335  1.00  0.00    -0.012 A 
HETATM   13  C   UNL     1       5.502  35.835  64.037  1.00  0.00     0.012 A 
HETATM   14  C   UNL     1       4.965  34.802  61.521  1.00  0.00     0.013 A 
HETATM   15  C   UNL     1       4.316  35.963  61.953  1.00  0.00     0.001 A 
HETATM   16  C   UNL     1       4.585  36.480  63.211  1.00  0.00     0.001 A 
BRANCH   8  17
HETATM   17  O   UNL     1       8.260  31.217  62.593  1.00  0.00    -0.360 OA
HETATM   18  H   UNL     1       9.205  31.386  62.804  1.00  0.00     0.217 HD
ENDBRANCH   8  17
ENDBRANCH   6   7
ENDBRANCH   2   5
BRANCH   1  19
HETATM   19  C   UNL     1       7.568  29.557  57.046  1.00  0.00     0.036 A 
HETATM   20  C   UNL     1       8.610  29.174  56.205  1.00  0.00     0.034 A 
HETATM   21  C   UNL     1       8.313  28.570  54.983  1.00  0.00     0.091 A 
HETATM   22  N   UNL     1       7.032  28.344  54.610  1.00  0.00    -0.362 N 
HETATM   23  C   UNL     1       6.006  28.718  55.408  1.00  0.00     0.091 A 
HETATM   24  C   UNL     1       6.253  29.330  56.628  1.00  0.00     0.034 A 
BRANCH  22  25
HETATM   25  C   UNL     1       6.747  27.624  53.340  1.00  0.00     0.166 C 
BRANCH  25  26
HETATM   26  C   UNL     1       7.008  26.145  53.454  1.00  0.00    -0.040 A 
HETATM   27  C   UNL     1       7.638  25.467  52.398  1.00  0.00     0.009 A 
HETATM   28  C   UNL     1       7.935  24.107  52.504  1.00  0.00     0.001 A 
HETATM   29  C   UNL     1       7.615  23.411  53.665  1.00  0.00     0.000 A 
HETATM   30  C   UNL     1       6.999  24.073  54.726  1.00  0.00     0.001 A 
HETATM   31  C   UNL     1       6.702  25.434  54.625  1.00  0.00     0.009 A 
ENDBRANCH  25  26
ENDBRANCH  22  25
ENDBRANCH   1  19
TORSDOF 6
ENDMDL
MODEL 3
REMARK VINA RESULT:      -9.6      1.916     10.487
REMARK  6 active torsions:
REMARK  status: ('A' for Active; 'I' for Inactive)
REMARK    1  A    between atoms: C_4  and  C_5 
REMARK    2  A    between atoms: C_5  and  N_6 
REMARK    3  A    between atoms: C_9  and  C_10 
REMARK       I    between atoms: C_10  and  N_11 
REMARK    4  A    between atoms: N_11  and  N_12 
REMARK    5  A    between atoms: C_13  and  C_14 
REMARK    6  A    between atoms: C_15  and  O_16 
ROOT
HETATM    1  C   UNL     1       5.720  27.993  56.043  1.00  0.00     0.271 C 
HETATM    2  N   UNL     1       6.488  29.105  56.350  1.00  0.00    -0.243 N 
HETATM    3  O   UNL     1       4.627  27.749  56.547  1.00  0.00    -0.266 OA
HETATM    4  H   UNL     1       7.349  29.348  55.878  1.00  0.00     0.192 HD
ENDROOT
BRANCH   2   5
HETATM    5  N   UNL     1       6.031  29.929  57.333  1.00  0.00    -0.183 NA
HETATM    6  C   UNL     1       6.879  30.747  57.878  1.00  0.00     0.153 C 
BRANCH   6   7
HETATM    7  C   UNL     1       6.457  31.663  58.972  1.00  0.00     0.027 A 
HETATM    8  C   UNL     1       5.298  32.445  58.803  1.00  0.00     0.078 A 
HETATM    9  C   UNL     1       4.873  33.311  59.800  1.00  0.00     0.038 A 
HETATM   10  C   UNL     1       5.594  33.406  60.985  1.00  0.00     0.015 A 
HETATM   11  C   UNL     1       6.749  32.639  61.191  1.00  0.00    -0.025 A 
HETATM   12  C   UNL     1       7.210  31.745  60.185  1.00  0.00    -0.012 A 
HETATM   13  C   UNL     1       7.442  32.763  62.405  1.00  0.00     0.012 A 
HETATM   14  C   UNL     1       8.385  31.004  60.482  1.00  0.00     0.013 A 
HETATM   15  C   UNL     1       9.062  31.139  61.697  1.00  0.00     0.001 A 
HETATM   16  C   UNL     1       8.591  32.019  62.659  1.00  0.00     0.001 A 
BRANCH   8  17
HETATM   17  O   UNL     1       4.513  32.425  57.679  1.00  0.00    -0.360 OA
HETATM   18  H   UNL     1       4.055  33.291  57.594  1.00  0.00     0.217 HD
ENDBRANCH   8  17
ENDBRANCH   6   7
ENDBRANCH   2   5
BRANCH   1  19
HETATM   19  C   UNL     1       6.252  27.017  55.050  1.00  0.00     0.036 A 
HETATM   20  C   UNL     1       7.353  27.254  54.229  1.00  0.00     0.034 A 
HETATM   21  C   UNL     1       7.817  26.232  53.400  1.00  0.00     0.091 A 
HETATM   22  N   UNL     1       7.221  25.017  53.390  1.00  0.00    -0.362 N 
HETATM   23  C   UNL     1       6.145  24.772  54.172  1.00  0.00     0.091 A 
HETATM   24  C   UNL     1       5.643  25.759  55.005  1.00  0.00     0.034 A 
BRANCH  22  25
HETATM   25  C   UNL     1       7.789  23.922  52.560  1.00  0.00     0.166 C 
BRANCH  25  26
HETATM   26  C   UNL     1       8.166  22.719  53.383  1.00  0.00    -0.040 A 
HETATM   27  C   UNL     1       8.760  22.898  54.643  1.00  0.00     0.009 A 
HETATM   28  C   UNL     1       9.070  21.798  55.446  1.00  0.00     0.001 A 
HETATM   29  C   UNL     1       8.785  20.510  55.003  1.00  0.00     0.000 A 
HETATM   30  C   UNL     1       8.187  20.317  53.760  1.00  0.00     0.001 A 
HETATM   31  C   UNL     1       7.873  21.414  52.955  1.00  0.00     0.009 A 
ENDBRANCH  25  26
ENDBRANCH  22  25
ENDBRANCH   1  19
TORSDOF 6
ENDMDL
MODEL 4
REMARK VINA RESULT:      -9.6      1.446      1.887
REMARK  6 active torsions:
REMARK  status: ('A' for Active; 'I' for Inactive)
REMARK    1  A    between atoms: C_4  and  C_5 
REMARK    2  A    between atoms: C_5  and  N_6 
REMARK    3  A    between atoms: C_9  and  C_10 
REMARK       I    between atoms: C_10  and  N_11 
REMARK    4  A    between atoms: N_11  and  N_12 
REMARK    5  A    between atoms: C_13  and  C_14 
REMARK    6  A    between atoms: C_15  and  O_16 
ROOT
HETATM    1  C   UNL     1       7.011  29.621  57.386  1.00  0.00     0.271 C 
HETATM    2  N   UNL     1       7.155  28.243  57.354  1.00  0.00    -0.243 N 
HETATM    3  O   UNL     1       6.601  30.295  56.444  1.00  0.00    -0.266 OA
HETATM    4  H   UNL     1       7.415  27.682  58.154  1.00  0.00     0.192 HD
ENDROOT
BRANCH   2   5
HETATM    5  N   UNL     1       6.902  27.615  56.172  1.00  0.00    -0.183 NA
HETATM    6  C   UNL     1       6.670  26.339  56.205  1.00  0.00     0.153 C 
BRANCH   6   7
HETATM    7  C   UNL     1       6.406  25.581  54.952  1.00  0.00     0.027 A 
HETATM    8  C   UNL     1       5.357  25.995  54.110  1.00  0.00     0.078 A 
HETATM    9  C   UNL     1       5.079  25.314  52.933  1.00  0.00     0.038 A 
HETATM   10  C   UNL     1       5.848  24.212  52.575  1.00  0.00     0.015 A 
HETATM   11  C   UNL     1       6.903  23.774  53.387  1.00  0.00    -0.025 A 
HETATM   12  C   UNL     1       7.208  24.452  54.600  1.00  0.00    -0.012 A 
HETATM   13  C   UNL     1       7.657  22.662  52.984  1.00  0.00     0.012 A 
HETATM   14  C   UNL     1       8.299  23.942  55.356  1.00  0.00     0.013 A 
HETATM   15  C   UNL     1       9.038  22.832  54.939  1.00  0.00     0.001 A 
HETATM   16  C   UNL     1       8.718  22.192  53.753  1.00  0.00     0.001 A 
BRANCH   8  17
HETATM   17  O   UNL     1       4.542  27.068  54.364  1.00  0.00    -0.360 OA
HETATM   18  H   UNL     1       4.499  27.214  55.335  1.00  0.00     0.217 HD
ENDBRANCH   8  17
ENDBRANCH   6   7
ENDBRANCH   2   5
BRANCH   1  19
HETATM   19  C   UNL     1       7.389  30.344  58.634  1.00  0.00     0.036 A 
HETATM   20  C   UNL     1       8.392  29.930  59.508  1.00  0.00     0.034 A 
HETATM   21  C   UNL     1       8.720  30.734  60.600  1.00  0.00     0.091 A 
HETATM   22  N   UNL     1       8.086  31.911  60.815  1.00  0.00    -0.362 N 
HETATM   23  C   UNL     1       7.102  32.324  59.984  1.00  0.00     0.091 A 
HETATM   24  C   UNL     1       6.736  31.554  58.891  1.00  0.00     0.034 A 
BRANCH  22  25
HETATM   25  C   UNL     1       8.513  32.787  61.938  1.00  0.00     0.166 C 
BRANCH  25  26
HETATM   26  C   UNL     1       7.444  32.929  62.988  1.00  0.00    -0.040 A 
HETATM   27  C   UNL     1       7.790  33.364  64.278  1.00  0.00     0.009 A 
HETATM   28  C   UNL     1       6.806  33.552  65.251  1.00  0.00     0.001 A 
HETATM   29  C   UNL     1       5.470  33.316  64.947  1.00  0.00     0.000 A 
HETATM   30  C   UNL     1       5.110  32.895  63.669  1.00  0.00     0.001 A 
HETATM   31  C   UNL     1       6.089  32.708  62.691  1.00  0.00     0.009 A 
ENDBRANCH  25  26
ENDBRANCH  22  25
ENDBRANCH   1  19
TORSDOF 6
ENDMDL
MODEL 5
REMARK VINA RESULT:      -9.5      6.419     10.309
REMARK  6 active torsions:
REMARK  status: ('A' for Active; 'I' for Inactive)
REMARK    1  A    between atoms: C_4  and  C_5 
REMARK    2  A    between atoms: C_5  and  N_6 
REMARK    3  A    between atoms: C_9  and  C_10 
REMARK       I    between atoms: C_10  and  N_11 
REMARK    4  A    between atoms: N_11  and  N_12 
REMARK    5  A    between atoms: C_13  and  C_14 
REMARK    6  A    between atoms: C_15  and  O_16 
ROOT
HETATM    1  C   UNL     1       5.063  27.085  51.781  1.00  0.00     0.271 C 
HETATM    2  N   UNL     1       4.813  25.746  52.039  1.00  0.00    -0.243 N 
HETATM    3  O   UNL     1       5.776  27.801  52.479  1.00  0.00    -0.266 OA
HETATM    4  H   UNL     1       4.292  25.137  51.421  1.00  0.00     0.192 HD
ENDROOT
BRANCH   2   5
HETATM    5  N   UNL     1       5.328  25.223  53.186  1.00  0.00    -0.183 NA
HETATM    6  C   UNL     1       6.465  24.602  53.108  1.00  0.00     0.153 C 
BRANCH   6   7
HETATM    7  C   UNL     1       7.079  23.986  54.315  1.00  0.00     0.027 A 
HETATM    8  C   UNL     1       7.081  24.706  55.525  1.00  0.00     0.078 A 
HETATM    9  C   UNL     1       7.645  24.166  56.672  1.00  0.00     0.038 A 
HETATM   10  C   UNL     1       8.211  22.897  56.631  1.00  0.00     0.015 A 
HETATM   11  C   UNL     1       8.223  22.149  55.446  1.00  0.00    -0.025 A 
HETATM   12  C   UNL     1       7.654  22.679  54.255  1.00  0.00    -0.012 A 
HETATM   13  C   UNL     1       8.799  20.869  55.453  1.00  0.00     0.012 A 
HETATM   14  C   UNL     1       7.705  21.849  53.102  1.00  0.00     0.013 A 
HETATM   15  C   UNL     1       8.283  20.576  53.127  1.00  0.00     0.001 A 
HETATM   16  C   UNL     1       8.829  20.086  54.302  1.00  0.00     0.001 A 
BRANCH   8  17
HETATM   17  O   UNL     1       6.548  25.959  55.677  1.00  0.00    -0.360 OA
HETATM   18  H   UNL     1       7.271  26.623  55.626  1.00  0.00     0.217 HD
ENDBRANCH   8  17
ENDBRANCH   6   7
ENDBRANCH   2   5
BRANCH   1  19
HETATM   19  C   UNL     1       4.419  27.709  50.590  1.00  0.00     0.036 A 
HETATM   20  C   UNL     1       3.455  28.713  50.655  1.00  0.00     0.034 A 
HETATM   21  C   UNL     1       2.987  29.286  49.472  1.00  0.00     0.091 A 
HETATM   22  N   UNL     1       3.461  28.887  48.269  1.00  0.00    -0.362 N 
HETATM   23  C   UNL     1       4.388  27.907  48.185  1.00  0.00     0.091 A 
HETATM   24  C   UNL     1       4.877  27.302  49.333  1.00  0.00     0.034 A 
BRANCH  22  25
HETATM   25  C   UNL     1       3.006  29.574  47.030  1.00  0.00     0.166 C 
BRANCH  25  26
HETATM   26  C   UNL     1       1.580  29.235  46.684  1.00  0.00    -0.040 A 
HETATM   27  C   UNL     1       1.168  27.892  46.673  1.00  0.00     0.009 A 
HETATM   28  C   UNL     1      -0.162  27.560  46.405  1.00  0.00     0.001 A 
HETATM   29  C   UNL     1      -1.094  28.561  46.153  1.00  0.00     0.000 A 
HETATM   30  C   UNL     1      -0.702  29.898  46.171  1.00  0.00     0.001 A 
HETATM   31  C   UNL     1       0.626  30.236  46.441  1.00  0.00     0.009 A 
ENDBRANCH  25  26
ENDBRANCH  22  25
ENDBRANCH   1  19
TORSDOF 6
ENDMDL
MODEL 6
REMARK VINA RESULT:      -9.3      1.970      2.640
REMARK  6 active torsions:
REMARK  status: ('A' for Active; 'I' for Inactive)
REMARK    1  A    between atoms: C_4  and  C_5 
REMARK    2  A    between atoms: C_5  and  N_6 
REMARK    3  A    between atoms: C_9  and  C_10 
REMARK       I    between atoms: C_10  and  N_11 
REMARK    4  A    between atoms: N_11  and  N_12 
REMARK    5  A    between atoms: C_13  and  C_14 
REMARK    6  A    between atoms: C_15  and  O_16 
ROOT
HETATM    1  C   UNL     1       4.726  29.657  56.966  1.00  0.00     0.271 C 
HETATM    2  N   UNL     1       4.986  28.336  57.298  1.00  0.00    -0.243 N 
HETATM    3  O   UNL     1       4.358  30.030  55.855  1.00  0.00    -0.266 OA
HETATM    4  H   UNL     1       5.210  28.020  58.232  1.00  0.00     0.192 HD
ENDROOT
BRANCH   2   5
HETATM    5  N   UNL     1       4.905  27.413  56.300  1.00  0.00    -0.183 NA
HETATM    6  C   UNL     1       6.014  26.905  55.857  1.00  0.00     0.153 C 
BRANCH   6   7
HETATM    7  C   UNL     1       6.006  25.907  54.754  1.00  0.00     0.027 A 
HETATM    8  C   UNL     1       5.087  26.060  53.698  1.00  0.00     0.078 A 
HETATM    9  C   UNL     1       5.048  25.150  52.651  1.00  0.00     0.038 A 
HETATM   10  C   UNL     1       5.930  24.075  52.639  1.00  0.00     0.015 A 
HETATM   11  C   UNL     1       6.861  23.893  53.670  1.00  0.00    -0.025 A 
HETATM   12  C   UNL     1       6.921  24.809  54.756  1.00  0.00    -0.012 A 
HETATM   13  C   UNL     1       7.736  22.797  53.612  1.00  0.00     0.012 A 
HETATM   14  C   UNL     1       7.901  24.550  55.753  1.00  0.00     0.013 A 
HETATM   15  C   UNL     1       8.764  23.453  55.680  1.00  0.00     0.001 A 
HETATM   16  C   UNL     1       8.682  22.577  54.609  1.00  0.00     0.001 A 
BRANCH   8  17
HETATM   17  O   UNL     1       4.179  27.083  53.609  1.00  0.00    -0.360 OA
HETATM   18  H   UNL     1       3.757  27.213  54.487  1.00  0.00     0.217 HD
ENDBRANCH   8  17
ENDBRANCH   6   7
ENDBRANCH   2   5
BRANCH   1  19
HETATM   19  C   UNL     1       4.916  30.701  58.014  1.00  0.00     0.036 A 
HETATM   20  C   UNL     1       6.071  31.465  58.160  1.00  0.00     0.034 A 
HETATM   21  C   UNL     1       6.103  32.476  59.121  1.00  0.00     0.091 A 
HETATM   22  N   UNL     1       5.027  32.729  59.902  1.00  0.00    -0.362 N 
HETATM   23  C   UNL     1       3.900  31.991  59.783  1.00  0.00     0.091 A 
HETATM   24  C   UNL     1       3.826  30.970  58.848  1.00  0.00     0.034 A 
BRANCH  22  25
HETATM   25  C   UNL     1       5.060  33.867  60.860  1.00  0.00     0.166 C 
BRANCH  25  26
HETATM   26  C   UNL     1       5.983  33.608  62.020  1.00  0.00    -0.040 A 
HETATM   27  C   UNL     1       5.773  34.275  63.238  1.00  0.00     0.009 A 
HETATM   28  C   UNL     1       6.586  34.010  64.342  1.00  0.00     0.001 A 
HETATM   29  C   UNL     1       7.611  33.075  64.246  1.00  0.00     0.000 A 
HETATM   30  C   UNL     1       7.825  32.398  63.047  1.00  0.00     0.001 A 
HETATM   31  C   UNL     1       7.013  32.657  61.941  1.00  0.00     0.009 A 
ENDBRANCH  25  26
ENDBRANCH  22  25
ENDBRANCH   1  19
TORSDOF 6
ENDMDL
MODEL 7
REMARK VINA RESULT:      -9.1      2.153     10.800
REMARK  6 active torsions:
REMARK  status: ('A' for Active; 'I' for Inactive)
REMARK    1  A    between atoms: C_4  and  C_5 
REMARK    2  A    between atoms: C_5  and  N_6 
REMARK    3  A    between atoms: C_9  and  C_10 
REMARK       I    between atoms: C_10  and  N_11 
REMARK    4  A    between atoms: N_11  and  N_12 
REMARK    5  A    between atoms: C_13  and  C_14 
REMARK    6  A    between atoms: C_15  and  O_16 
ROOT
HETATM    1  C   UNL     1       5.268  30.042  56.971  1.00  0.00     0.271 C 
HETATM    2  N   UNL     1       6.109  31.089  57.315  1.00  0.00    -0.243 N 
HETATM    3  O   UNL     1       4.118  29.916  57.383  1.00  0.00    -0.266 OA
HETATM    4  H   UNL     1       7.026  31.235  56.913  1.00  0.00     0.192 HD
ENDROOT
BRANCH   2   5
HETATM    5  N   UNL     1       5.651  31.984  58.233  1.00  0.00    -0.183 NA
HETATM    6  C   UNL     1       6.256  32.036  59.380  1.00  0.00     0.153 C 
BRANCH   6   7
HETATM    7  C   UNL     1       5.798  32.974  60.439  1.00  0.00     0.027 A 
HETATM    8  C   UNL     1       4.694  33.810  60.183  1.00  0.00     0.078 A 
HETATM    9  C   UNL     1       4.238  34.699  61.146  1.00  0.00     0.038 A 
HETATM   10  C   UNL     1       4.871  34.764  62.382  1.00  0.00     0.015 A 
HETATM   11  C   UNL     1       5.969  33.944  62.674  1.00  0.00    -0.025 A 
HETATM   12  C   UNL     1       6.460  33.025  61.705  1.00  0.00    -0.012 A 
HETATM   13  C   UNL     1       6.574  34.037  63.937  1.00  0.00     0.012 A 
HETATM   14  C   UNL     1       7.573  32.229  62.089  1.00  0.00     0.013 A 
HETATM   15  C   UNL     1       8.163  32.336  63.352  1.00  0.00     0.001 A 
HETATM   16  C   UNL     1       7.663  33.240  64.276  1.00  0.00     0.001 A 
BRANCH   8  17
HETATM   17  O   UNL     1       3.996  33.825  59.004  1.00  0.00    -0.360 OA
HETATM   18  H   UNL     1       4.568  34.199  58.298  1.00  0.00     0.217 HD
ENDBRANCH   8  17
ENDBRANCH   6   7
ENDBRANCH   2   5
BRANCH   1  19
HETATM   19  C   UNL     1       5.788  28.988  56.053  1.00  0.00     0.036 A 
HETATM   20  C   UNL     1       4.984  28.103  55.338  1.00  0.00     0.034 A 
HETATM   21  C   UNL     1       5.578  27.217  54.439  1.00  0.00     0.091 A 
HETATM   22  N   UNL     1       6.918  27.211  54.247  1.00  0.00    -0.362 N 
HETATM   23  C   UNL     1       7.716  28.054  54.941  1.00  0.00     0.091 A 
HETATM   24  C   UNL     1       7.171  28.948  55.851  1.00  0.00     0.034 A 
BRANCH  22  25
HETATM   25  C   UNL     1       7.515  26.314  53.223  1.00  0.00     0.166 C 
BRANCH  25  26
HETATM   26  C   UNL     1       7.563  24.880  53.681  1.00  0.00    -0.040 A 
HETATM   27  C   UNL     1       7.774  23.857  52.742  1.00  0.00     0.009 A 
HETATM   28  C   UNL     1       7.874  22.526  53.152  1.00  0.00     0.001 A 
HETATM   29  C   UNL     1       7.772  22.202  54.501  1.00  0.00     0.000 A 
HETATM   30  C   UNL     1       7.573  23.207  55.445  1.00  0.00     0.001 A 
HETATM   31  C   UNL     1       7.475  24.540  55.040  1.00  0.00     0.009 A 
ENDBRANCH  25  26
ENDBRANCH  22  25
ENDBRANCH   1  19
TORSDOF 6
ENDMDL
MODEL 8
REMARK VINA RESULT:      -9.0      1.995     10.662
REMARK  6 active torsions:
REMARK  status: ('A' for Active; 'I' for Inactive)
REMARK    1  A    between atoms: C_4  and  C_5 
REMARK    2  A    between atoms: C_5  and  N_6 
REMARK    3  A    between atoms: C_9  and  C_10 
REMARK       I    between atoms: C_10  and  N_11 
REMARK    4  A    between atoms: N_11  and  N_12 
REMARK    5  A    between atoms: C_13  and  C_14 
REMARK    6  A    between atoms: C_15  and  O_16 
ROOT
HETATM    1  C   UNL     1       6.331  28.369  56.828  1.00  0.00     0.271 C 
HETATM    2  N   UNL     1       7.356  29.119  57.384  1.00  0.00    -0.243 N 
HETATM    3  O   UNL     1       5.163  28.410  57.205  1.00  0.00    -0.266 OA
HETATM    4  H   UNL     1       8.299  29.146  57.022  1.00  0.00     0.192 HD
ENDROOT
BRANCH   2   5
HETATM    5  N   UNL     1       7.053  29.885  58.469  1.00  0.00    -0.183 NA
HETATM    6  C   UNL     1       8.039  30.388  59.146  1.00  0.00     0.153 C 
BRANCH   6   7
HETATM    7  C   UNL     1       7.786  31.217  60.355  1.00  0.00     0.027 A 
HETATM    8  C   UNL     1       8.598  31.036  61.492  1.00  0.00     0.078 A 
HETATM    9  C   UNL     1       8.393  31.789  62.639  1.00  0.00     0.038 A 
HETATM   10  C   UNL     1       7.379  32.740  62.668  1.00  0.00     0.015 A 
HETATM   11  C   UNL     1       6.555  32.952  61.554  1.00  0.00    -0.025 A 
HETATM   12  C   UNL     1       6.741  32.192  60.366  1.00  0.00    -0.012 A 
HETATM   13  C   UNL     1       5.549  33.927  61.626  1.00  0.00     0.012 A 
HETATM   14  C   UNL     1       5.864  32.478  59.284  1.00  0.00     0.013 A 
HETATM   15  C   UNL     1       4.867  33.453  59.374  1.00  0.00     0.001 A 
HETATM   16  C   UNL     1       4.710  34.178  60.544  1.00  0.00     0.001 A 
BRANCH   8  17
HETATM   17  O   UNL     1       9.625  30.131  61.568  1.00  0.00    -0.360 OA
HETATM   18  H   UNL     1       9.412  29.464  62.258  1.00  0.00     0.217 HD
ENDBRANCH   8  17
ENDBRANCH   6   7
ENDBRANCH   2   5
BRANCH   1  19
HETATM   19  C   UNL     1       6.660  27.439  55.710  1.00  0.00     0.036 A 
HETATM   20  C   UNL     1       7.526  27.746  54.663  1.00  0.00     0.034 A 
HETATM   21  C   UNL     1       7.830  26.764  53.720  1.00  0.00     0.091 A 
HETATM   22  N   UNL     1       7.304  25.520  53.814  1.00  0.00    -0.362 N 
HETATM   23  C   UNL     1       6.453  25.207  54.817  1.00  0.00     0.091 A 
HETATM   24  C   UNL     1       6.115  26.153  55.773  1.00  0.00     0.034 A 
BRANCH  22  25
HETATM   25  C   UNL     1       7.711  24.470  52.842  1.00  0.00     0.166 C 
BRANCH  25  26
HETATM   26  C   UNL     1       8.049  23.168  53.520  1.00  0.00    -0.040 A 
HETATM   27  C   UNL     1       8.671  23.181  54.779  1.00  0.00     0.009 A 
HETATM   28  C   UNL     1       8.946  21.986  55.447  1.00  0.00     0.001 A 
HETATM   29  C   UNL     1       8.597  20.769  54.871  1.00  0.00     0.000 A 
HETATM   30  C   UNL     1       7.970  20.740  53.628  1.00  0.00     0.001 A 
HETATM   31  C   UNL     1       7.691  21.933  52.956  1.00  0.00     0.009 A 
ENDBRANCH  25  26
ENDBRANCH  22  25
ENDBRANCH   1  19
TORSDOF 6
ENDMDL
MODEL 9
REMARK VINA RESULT:      -8.8      6.589     10.048
REMARK  6 active torsions:
REMARK  status: ('A' for Active; 'I' for Inactive)
REMARK    1  A    between atoms: C_4  and  C_5 
REMARK    2  A    between atoms: C_5  and  N_6 
REMARK    3  A    between atoms: C_9  and  C_10 
REMARK       I    between atoms: C_10  and  N_11 
REMARK    4  A    between atoms: N_11  and  N_12 
REMARK    5  A    between atoms: C_13  and  C_14 
REMARK    6  A    between atoms: C_15  and  O_16 
ROOT
HETATM    1  C   UNL     1       5.532  27.434  51.434  1.00  0.00     0.271 C 
HETATM    2  N   UNL     1       6.050  26.151  51.350  1.00  0.00    -0.243 N 
HETATM    3  O   UNL     1       5.692  28.182  52.394  1.00  0.00    -0.266 OA
HETATM    4  H   UNL     1       5.986  25.566  50.527  1.00  0.00     0.192 HD
ENDROOT
BRANCH   2   5
HETATM    5  N   UNL     1       6.709  25.670  52.441  1.00  0.00    -0.183 NA
HETATM    6  C   UNL     1       6.351  24.509  52.897  1.00  0.00     0.153 C 
BRANCH   6   7
HETATM    7  C   UNL     1       7.011  23.928  54.098  1.00  0.00     0.027 A 
HETATM    8  C   UNL     1       7.041  24.675  55.291  1.00  0.00     0.078 A 
HETATM    9  C   UNL     1       7.647  24.168  56.431  1.00  0.00     0.038 A 
HETATM   10  C   UNL     1       8.227  22.905  56.402  1.00  0.00     0.015 A 
HETATM   11  C   UNL     1       8.211  22.131  55.233  1.00  0.00    -0.025 A 
HETATM   12  C   UNL     1       7.599  22.626  54.049  1.00  0.00    -0.012 A 
HETATM   13  C   UNL     1       8.802  20.858  55.251  1.00  0.00     0.012 A 
HETATM   14  C   UNL     1       7.624  21.771  52.914  1.00  0.00     0.013 A 
HETATM   15  C   UNL     1       8.218  20.506  52.949  1.00  0.00     0.001 A 
HETATM   16  C   UNL     1       8.807  20.049  54.118  1.00  0.00     0.001 A 
BRANCH   8  17
HETATM   17  O   UNL     1       6.498  25.925  55.431  1.00  0.00    -0.360 OA
HETATM   18  H   UNL     1       5.803  25.896  56.126  1.00  0.00     0.217 HD
ENDBRANCH   8  17
ENDBRANCH   6   7
ENDBRANCH   2   5
BRANCH   1  19
HETATM   19  C   UNL     1       4.712  27.942  50.297  1.00  0.00     0.036 A 
HETATM   20  C   UNL     1       4.041  29.163  50.296  1.00  0.00     0.034 A 
HETATM   21  C   UNL     1       3.378  29.576  49.141  1.00  0.00     0.091 A 
HETATM   22  N   UNL     1       3.385  28.814  48.022  1.00  0.00    -0.362 N 
HETATM   23  C   UNL     1       4.021  27.621  48.007  1.00  0.00     0.091 A 
HETATM   24  C   UNL     1       4.687  27.165  49.134  1.00  0.00     0.034 A 
BRANCH  22  25
HETATM   25  C   UNL     1       2.741  29.318  46.780  1.00  0.00     0.166 C 
BRANCH  25  26
HETATM   26  C   UNL     1       3.238  30.686  46.395  1.00  0.00    -0.040 A 
HETATM   27  C   UNL     1       4.571  30.850  45.983  1.00  0.00     0.009 A 
HETATM   28  C   UNL     1       5.038  32.101  45.572  1.00  0.00     0.001 A 
HETATM   29  C   UNL     1       4.181  33.197  45.563  1.00  0.00     0.000 A 
HETATM   30  C   UNL     1       2.854  33.047  45.959  1.00  0.00     0.001 A 
HETATM   31  C   UNL     1       2.381  31.798  46.368  1.00  0.00     0.009 A 
ENDBRANCH  25  26
ENDBRANCH  22  25
ENDBRANCH   1  19
TORSDOF 6
ENDMDL
MODEL 10
REMARK VINA RESULT:      -8.7      1.722      3.087
REMARK  6 active torsions:
REMARK  status: ('A' for Active; 'I' for Inactive)
REMARK    1  A    between atoms: C_4  and  C_5 
REMARK    2  A    between atoms: C_5  and  N_6 
REMARK    3  A    between atoms: C_9  and  C_10 
REMARK       I    between atoms: C_10  and  N_11 
REMARK    4  A    between atoms: N_11  and  N_12 
REMARK    5  A    between atoms: C_13  and  C_14 
REMARK    6  A    between atoms: C_15  and  O_16 
ROOT
HETATM    1  C   UNL     1       7.793  28.981  57.462  1.00  0.00     0.271 C 
HETATM    2  N   UNL     1       7.749  27.657  57.872  1.00  0.00    -0.243 N 
HETATM    3  O   UNL     1       8.030  29.340  56.312  1.00  0.00    -0.266 OA
HETATM    4  H   UNL     1       7.475  27.360  58.799  1.00  0.00     0.192 HD
ENDROOT
BRANCH   2   5
HETATM    5  N   UNL     1       8.071  26.707  56.952  1.00  0.00    -0.183 NA
HETATM    6  C   UNL     1       7.498  25.547  57.056  1.00  0.00     0.153 C 
BRANCH   6   7
HETATM    7  C   UNL     1       7.816  24.453  56.100  1.00  0.00     0.027 A 
HETATM    8  C   UNL     1       8.236  23.206  56.602  1.00  0.00     0.078 A 
HETATM    9  C   UNL     1       8.542  22.161  55.742  1.00  0.00     0.038 A 
HETATM   10  C   UNL     1       8.429  22.341  54.368  1.00  0.00     0.015 A 
HETATM   11  C   UNL     1       8.009  23.566  53.833  1.00  0.00    -0.025 A 
HETATM   12  C   UNL     1       7.691  24.656  54.691  1.00  0.00    -0.012 A 
HETATM   13  C   UNL     1       7.902  23.701  52.441  1.00  0.00     0.012 A 
HETATM   14  C   UNL     1       7.267  25.858  54.062  1.00  0.00     0.013 A 
HETATM   15  C   UNL     1       7.167  25.975  52.672  1.00  0.00     0.001 A 
HETATM   16  C   UNL     1       7.484  24.896  51.862  1.00  0.00     0.001 A 
BRANCH   8  17
HETATM   17  O   UNL     1       8.377  22.920  57.935  1.00  0.00    -0.360 OA
HETATM   18  H   UNL     1       8.756  22.018  58.030  1.00  0.00     0.217 HD
ENDBRANCH   8  17
ENDBRANCH   6   7
ENDBRANCH   2   5
BRANCH   1  19
HETATM   19  C   UNL     1       7.553  30.045  58.479  1.00  0.00     0.036 A 
HETATM   20  C   UNL     1       8.319  30.220  59.629  1.00  0.00     0.034 A 
HETATM   21  C   UNL     1       8.058  31.306  60.464  1.00  0.00     0.091 A 
HETATM   22  N   UNL     1       7.080  32.194  60.168  1.00  0.00    -0.362 N 
HETATM   23  C   UNL     1       6.318  32.036  59.062  1.00  0.00     0.091 A 
HETATM   24  C   UNL     1       6.536  30.966  58.207  1.00  0.00     0.034 A 
BRANCH  22  25
HETATM   25  C   UNL     1       6.879  33.388  61.031  1.00  0.00     0.166 C 
BRANCH  25  26
HETATM   26  C   UNL     1       5.430  33.603  61.378  1.00  0.00    -0.040 A 
HETATM   27  C   UNL     1       4.725  34.665  60.788  1.00  0.00     0.009 A 
HETATM   28  C   UNL     1       3.367  34.851  61.055  1.00  0.00     0.001 A 
HETATM   29  C   UNL     1       2.697  33.977  61.906  1.00  0.00     0.000 A 
HETATM   30  C   UNL     1       3.381  32.913  62.490  1.00  0.00     0.001 A 
HETATM   31  C   UNL     1       4.738  32.721  62.224  1.00  0.00     0.009 A 
ENDBRANCH  25  26
ENDBRANCH  22  25
ENDBRANCH   1  19
TORSDOF 6
ENDMDL
