MODEL 1
REMARK VINA RESULT:      -8.1      0.000      0.000
REMARK  8 active torsions:
REMARK  status: ('A' for Active; 'I' for Inactive)
REMARK    1  A    between atoms: C_2  and  O_3 
REMARK    2  A    between atoms: O_3  and  C_4 
REMARK    3  A    between atoms: C_4  and  C_5 
REMARK    4  A    between atoms: C_5  and  C_6 
REMARK    5  A    between atoms: C_6  and  N_7 
REMARK    6  A    between atoms: C_12  and  C_13 
REMARK    7  A    between atoms: C_23  and  C_24 
REMARK    8  A    between atoms: C_25  and  O_26 
ROOT
HETATM    1  N   UNL     1       4.999  27.099  52.826  1.00  0.00    -0.334 N 
HETATM    2  C   UNL     1       5.652  26.806  51.626  1.00  0.00     0.273 A 
HETATM    3  O   UNL     1       5.484  27.298  50.525  1.00  0.00    -0.266 OA
HETATM    4  C   UNL     1       6.534  25.759  51.982  1.00  0.00     0.129 A 
HETATM    5  C   UNL     1       6.448  25.410  53.298  1.00  0.00     0.034 A 
HETATM    6  C   UNL     1       5.436  26.258  53.973  1.00  0.00     0.159 A 
HETATM    7  N   UNL     1       7.448  24.977  51.399  1.00  0.00    -0.272 N 
HETATM    8  H   UNL     1       7.762  24.965  50.432  1.00  0.00     0.189 HD
HETATM    9  N   UNL     1       7.988  24.103  52.286  1.00  0.00    -0.173 NA
HETATM   10  C   UNL     1       7.362  24.351  53.470  1.00  0.00     0.101 A 
ENDROOT
BRANCH  10  11
HETATM   11  C   UNL     1       7.705  23.568  54.669  1.00  0.00     0.028 A 
HETATM   12  C   UNL     1       7.793  22.162  54.630  1.00  0.00     0.078 A 
HETATM   13  C   UNL     1       8.141  21.419  55.758  1.00  0.00     0.037 A 
HETATM   14  C   UNL     1       8.405  22.066  56.960  1.00  0.00     0.003 A 
HETATM   15  C   UNL     1       8.312  23.455  57.031  1.00  0.00     0.001 A 
HETATM   16  C   UNL     1       7.959  24.197  55.898  1.00  0.00     0.017 A 
BRANCH  12  17
HETATM   17  O   UNL     1       7.542  21.432  53.494  1.00  0.00    -0.360 OA
HETATM   18  H   UNL     1       6.621  21.657  53.226  1.00  0.00     0.217 HD
ENDBRANCH  12  17
ENDBRANCH  10  11
BRANCH   6  19
HETATM   19  C   UNL     1       6.099  27.059  55.073  1.00  0.00    -0.031 A 
HETATM   20  C   UNL     1       7.303  27.768  54.904  1.00  0.00     0.011 A 
HETATM   21  C   UNL     1       7.863  28.496  55.958  1.00  0.00     0.024 A 
HETATM   22  C   UNL     1       7.215  28.545  57.189  1.00  0.00     0.034 A 
HETATM   23 CL   UNL     1       7.902  29.444  58.485  1.00  0.00    -0.084 Cl
HETATM   24  C   UNL     1       6.008  27.878  57.373  1.00  0.00     0.024 A 
HETATM   25  C   UNL     1       5.453  27.144  56.322  1.00  0.00     0.011 A 
ENDBRANCH   6  19
BRANCH   1  26
HETATM   26  C   UNL     1       3.881  28.020  52.922  1.00  0.00     0.129 C 
BRANCH  26  27
HETATM   27  C   UNL     1       4.303  29.488  53.013  1.00  0.00     0.046 C 
BRANCH  27  28
HETATM   28  C   UNL     1       3.689  30.244  54.187  1.00  0.00     0.169 C 
BRANCH  28  29
HETATM   29  O   UNL     1       4.701  30.521  55.154  1.00  0.00    -0.387 OA
BRANCH  29  30
HETATM   30  C   UNL     1       4.249  31.305  56.264  1.00  0.00     0.113 C 
HETATM   31  C   UNL     1       5.395  31.741  57.171  1.00  0.00     0.039 C 
HETATM   32  C   UNL     1       3.271  30.433  57.047  1.00  0.00     0.039 C 
ENDBRANCH  29  30
ENDBRANCH  28  29
ENDBRANCH  27  28
ENDBRANCH  26  27
ENDBRANCH   1  26
TORSDOF 8
ENDMDL
MODEL 2
REMARK VINA RESULT:      -8.0      1.634      2.314
REMARK  8 active torsions:
REMARK  status: ('A' for Active; 'I' for Inactive)
REMARK    1  A    between atoms: C_2  and  O_3 
REMARK    2  A    between atoms: O_3  and  C_4 
REMARK    3  A    between atoms: C_4  and  C_5 
REMARK    4  A    between atoms: C_5  and  C_6 
REMARK    5  A    between atoms: C_6  and  N_7 
REMARK    6  A    between atoms: C_12  and  C_13 
REMARK    7  A    between atoms: C_23  and  C_24 
REMARK    8  A    between atoms: C_25  and  O_26 
ROOT
HETATM    1  N   UNL     1       4.385  28.199  54.938  1.00  0.00    -0.334 N 
HETATM    2  C   UNL     1       3.982  27.939  53.627  1.00  0.00     0.273 A 
HETATM    3  O   UNL     1       3.193  28.556  52.933  1.00  0.00    -0.266 OA
HETATM    4  C   UNL     1       4.676  26.750  53.302  1.00  0.00     0.129 A 
HETATM    5  C   UNL     1       5.454  26.287  54.322  1.00  0.00     0.034 A 
HETATM    6  C   UNL     1       5.337  27.197  55.489  1.00  0.00     0.159 A 
HETATM    7  N   UNL     1       4.797  25.910  52.268  1.00  0.00    -0.272 N 
HETATM    8  H   UNL     1       4.358  25.951  51.352  1.00  0.00     0.189 HD
HETATM    9  N   UNL     1       5.639  24.887  52.560  1.00  0.00    -0.173 NA
HETATM   10  C   UNL     1       6.043  25.101  53.842  1.00  0.00     0.101 A 
ENDROOT
BRANCH  10  11
HETATM   11  C   UNL     1       6.972  24.163  54.494  1.00  0.00     0.028 A 
HETATM   12  C   UNL     1       7.888  23.394  53.747  1.00  0.00     0.078 A 
HETATM   13  C   UNL     1       8.786  22.523  54.363  1.00  0.00     0.037 A 
HETATM   14  C   UNL     1       8.787  22.394  55.748  1.00  0.00     0.003 A 
HETATM   15  C   UNL     1       7.884  23.131  56.510  1.00  0.00     0.001 A 
HETATM   16  C   UNL     1       6.982  24.002  55.888  1.00  0.00     0.017 A 
BRANCH  12  17
HETATM   17  O   UNL     1       7.957  23.445  52.377  1.00  0.00    -0.360 OA
HETATM   18  H   UNL     1       7.058  23.208  52.051  1.00  0.00     0.217 HD
ENDBRANCH  12  17
ENDBRANCH  10  11
BRANCH   6  19
HETATM   19  C   UNL     1       6.694  27.785  55.809  1.00  0.00    -0.031 A 
HETATM   20  C   UNL     1       7.512  28.424  54.858  1.00  0.00     0.011 A 
HETATM   21  C   UNL     1       8.754  28.954  55.218  1.00  0.00     0.024 A 
HETATM   22  C   UNL     1       9.186  28.875  56.538  1.00  0.00     0.034 A 
HETATM   23 CL   UNL     1      10.714  29.531  56.982  1.00  0.00    -0.084 Cl
HETATM   24  C   UNL     1       8.384  28.275  57.504  1.00  0.00     0.024 A 
HETATM   25  C   UNL     1       7.146  27.739  57.142  1.00  0.00     0.011 A 
ENDBRANCH   6  19
BRANCH   1  26
HETATM   26  C   UNL     1       3.811  29.252  55.756  1.00  0.00     0.129 C 
BRANCH  26  27
HETATM   27  C   UNL     1       4.313  30.652  55.395  1.00  0.00     0.046 C 
BRANCH  27  28
HETATM   28  C   UNL     1       5.418  31.174  56.306  1.00  0.00     0.169 C 
BRANCH  28  29
HETATM   29  O   UNL     1       5.218  30.678  57.628  1.00  0.00    -0.387 OA
BRANCH  29  30
HETATM   30  C   UNL     1       5.603  31.593  58.660  1.00  0.00     0.113 C 
HETATM   31  C   UNL     1       5.181  33.027  58.352  1.00  0.00     0.039 C 
HETATM   32  C   UNL     1       7.122  31.512  58.773  1.00  0.00     0.039 C 
ENDBRANCH  29  30
ENDBRANCH  28  29
ENDBRANCH  27  28
ENDBRANCH  26  27
ENDBRANCH   1  26
TORSDOF 8
ENDMDL
MODEL 3
REMARK VINA RESULT:      -7.7      1.523      2.802
REMARK  8 active torsions:
REMARK  status: ('A' for Active; 'I' for Inactive)
REMARK    1  A    between atoms: C_2  and  O_3 
REMARK    2  A    between atoms: O_3  and  C_4 
REMARK    3  A    between atoms: C_4  and  C_5 
REMARK    4  A    between atoms: C_5  and  C_6 
REMARK    5  A    between atoms: C_6  and  N_7 
REMARK    6  A    between atoms: C_12  and  C_13 
REMARK    7  A    between atoms: C_23  and  C_24 
REMARK    8  A    between atoms: C_25  and  O_26 
ROOT
HETATM    1  N   UNL     1       4.952  27.007  52.876  1.00  0.00    -0.334 N 
HETATM    2  C   UNL     1       5.596  26.732  51.668  1.00  0.00     0.273 A 
HETATM    3  O   UNL     1       5.408  27.229  50.572  1.00  0.00    -0.266 OA
HETATM    4  C   UNL     1       6.496  25.695  52.006  1.00  0.00     0.129 A 
HETATM    5  C   UNL     1       6.430  25.335  53.320  1.00  0.00     0.034 A 
HETATM    6  C   UNL     1       5.414  26.165  54.013  1.00  0.00     0.159 A 
HETATM    7  N   UNL     1       7.414  24.929  51.407  1.00  0.00    -0.272 N 
HETATM    8  H   UNL     1       7.717  24.928  50.436  1.00  0.00     0.189 HD
HETATM    9  N   UNL     1       7.976  24.057  52.281  1.00  0.00    -0.173 NA
HETATM   10  C   UNL     1       7.361  24.288  53.474  1.00  0.00     0.101 A 
ENDROOT
BRANCH  10  11
HETATM   11  C   UNL     1       7.727  23.500  54.663  1.00  0.00     0.028 A 
HETATM   12  C   UNL     1       7.842  22.097  54.610  1.00  0.00     0.078 A 
HETATM   13  C   UNL     1       8.213  21.350  55.729  1.00  0.00     0.037 A 
HETATM   14  C   UNL     1       8.474  21.993  56.935  1.00  0.00     0.003 A 
HETATM   15  C   UNL     1       8.356  23.378  57.019  1.00  0.00     0.001 A 
HETATM   16  C   UNL     1       7.980  24.123  55.895  1.00  0.00     0.017 A 
BRANCH  12  17
HETATM   17  O   UNL     1       7.596  21.373  53.470  1.00  0.00    -0.360 OA
HETATM   18  H   UNL     1       6.626  21.440  53.311  1.00  0.00     0.217 HD
ENDBRANCH  12  17
ENDBRANCH  10  11
BRANCH   6  19
HETATM   19  C   UNL     1       6.079  26.966  55.111  1.00  0.00    -0.031 A 
HETATM   20  C   UNL     1       7.289  27.665  54.943  1.00  0.00     0.011 A 
HETATM   21  C   UNL     1       7.850  28.394  55.995  1.00  0.00     0.024 A 
HETATM   22  C   UNL     1       7.198  28.456  57.223  1.00  0.00     0.034 A 
HETATM   23 CL   UNL     1       7.887  29.357  58.516  1.00  0.00    -0.084 Cl
HETATM   24  C   UNL     1       5.985  27.799  57.406  1.00  0.00     0.024 A 
HETATM   25  C   UNL     1       5.429  27.064  56.356  1.00  0.00     0.011 A 
ENDBRANCH   6  19
BRANCH   1  26
HETATM   26  C   UNL     1       3.824  27.912  52.992  1.00  0.00     0.129 C 
BRANCH  26  27
HETATM   27  C   UNL     1       4.204  29.388  52.848  1.00  0.00     0.046 C 
BRANCH  27  28
HETATM   28  C   UNL     1       3.537  30.093  51.672  1.00  0.00     0.169 C 
BRANCH  28  29
HETATM   29  O   UNL     1       2.555  29.233  51.097  1.00  0.00    -0.387 OA
BRANCH  29  30
HETATM   30  C   UNL     1       2.262  29.515  49.724  1.00  0.00     0.113 C 
HETATM   31  C   UNL     1       1.714  28.297  48.986  1.00  0.00     0.039 C 
HETATM   32  C   UNL     1       3.570  29.966  49.081  1.00  0.00     0.039 C 
ENDBRANCH  29  30
ENDBRANCH  28  29
ENDBRANCH  27  28
ENDBRANCH  26  27
ENDBRANCH   1  26
TORSDOF 8
ENDMDL
MODEL 4
REMARK VINA RESULT:      -7.6      2.520      4.175
REMARK  8 active torsions:
REMARK  status: ('A' for Active; 'I' for Inactive)
REMARK    1  A    between atoms: C_2  and  O_3 
REMARK    2  A    between atoms: O_3  and  C_4 
REMARK    3  A    between atoms: C_4  and  C_5 
REMARK    4  A    between atoms: C_5  and  C_6 
REMARK    5  A    between atoms: C_6  and  N_7 
REMARK    6  A    between atoms: C_12  and  C_13 
REMARK    7  A    between atoms: C_23  and  C_24 
REMARK    8  A    between atoms: C_25  and  O_26 
ROOT
HETATM    1  N   UNL     1       4.647  29.655  56.667  1.00  0.00    -0.334 N 
HETATM    2  C   UNL     1       3.890  29.720  55.494  1.00  0.00     0.273 A 
HETATM    3  O   UNL     1       3.072  30.557  55.158  1.00  0.00    -0.266 OA
HETATM    4  C   UNL     1       4.265  28.547  54.799  1.00  0.00     0.129 A 
HETATM    5  C   UNL     1       5.181  27.793  55.472  1.00  0.00     0.034 A 
HETATM    6  C   UNL     1       5.518  28.453  56.758  1.00  0.00     0.159 A 
HETATM    7  N   UNL     1       3.977  27.928  53.649  1.00  0.00    -0.272 N 
HETATM    8  H   UNL     1       3.336  28.209  52.910  1.00  0.00     0.189 HD
HETATM    9  N   UNL     1       4.675  26.771  53.522  1.00  0.00    -0.173 NA
HETATM   10  C   UNL     1       5.418  26.667  54.659  1.00  0.00     0.101 A 
ENDROOT
BRANCH  10  11
HETATM   11  C   UNL     1       6.304  25.509  54.863  1.00  0.00     0.028 A 
HETATM   12  C   UNL     1       6.263  24.749  56.049  1.00  0.00     0.078 A 
HETATM   13  C   UNL     1       7.084  23.637  56.235  1.00  0.00     0.037 A 
HETATM   14  C   UNL     1       7.975  23.259  55.236  1.00  0.00     0.003 A 
HETATM   15  C   UNL     1       8.046  23.999  54.058  1.00  0.00     0.001 A 
HETATM   16  C   UNL     1       7.223  25.117  53.877  1.00  0.00     0.017 A 
BRANCH  12  17
HETATM   17  O   UNL     1       5.425  25.048  57.095  1.00  0.00    -0.360 OA
HETATM   18  H   UNL     1       5.929  24.838  57.914  1.00  0.00     0.217 HD
ENDBRANCH  12  17
ENDBRANCH  10  11
BRANCH   6  19
HETATM   19  C   UNL     1       6.993  28.792  56.781  1.00  0.00    -0.031 A 
HETATM   20  C   UNL     1       7.777  28.941  55.621  1.00  0.00     0.011 A 
HETATM   21  C   UNL     1       9.135  29.263  55.707  1.00  0.00     0.024 A 
HETATM   22  C   UNL     1       9.723  29.464  56.952  1.00  0.00     0.034 A 
HETATM   23 CL   UNL     1      11.393  29.863  57.058  1.00  0.00    -0.084 Cl
HETATM   24  C   UNL     1       8.963  29.351  58.113  1.00  0.00     0.024 A 
HETATM   25  C   UNL     1       7.609  29.022  58.026  1.00  0.00     0.011 A 
ENDBRANCH   6  19
BRANCH   1  26
HETATM   26  C   UNL     1       4.487  30.581  57.773  1.00  0.00     0.129 C 
BRANCH  26  27
HETATM   27  C   UNL     1       5.182  31.926  57.553  1.00  0.00     0.046 C 
BRANCH  27  28
HETATM   28  C   UNL     1       5.680  32.589  58.832  1.00  0.00     0.169 C 
BRANCH  28  29
HETATM   29  O   UNL     1       7.080  32.354  58.975  1.00  0.00    -0.387 OA
BRANCH  29  30
HETATM   30  C   UNL     1       7.482  32.008  60.305  1.00  0.00     0.113 C 
HETATM   31  C   UNL     1       6.720  32.797  61.366  1.00  0.00     0.039 C 
HETATM   32  C   UNL     1       8.974  32.312  60.405  1.00  0.00     0.039 C 
ENDBRANCH  29  30
ENDBRANCH  28  29
ENDBRANCH  27  28
ENDBRANCH  26  27
ENDBRANCH   1  26
TORSDOF 8
ENDMDL
MODEL 5
REMARK VINA RESULT:      -7.5      2.879      6.300
REMARK  8 active torsions:
REMARK  status: ('A' for Active; 'I' for Inactive)
REMARK    1  A    between atoms: C_2  and  O_3 
REMARK    2  A    between atoms: O_3  and  C_4 
REMARK    3  A    between atoms: C_4  and  C_5 
REMARK    4  A    between atoms: C_5  and  C_6 
REMARK    5  A    between atoms: C_6  and  N_7 
REMARK    6  A    between atoms: C_12  and  C_13 
REMARK    7  A    between atoms: C_23  and  C_24 
REMARK    8  A    between atoms: C_25  and  O_26 
ROOT
HETATM    1  N   UNL     1       5.268  27.158  53.216  1.00  0.00    -0.334 N 
HETATM    2  C   UNL     1       4.230  28.010  53.602  1.00  0.00     0.273 A 
HETATM    3  O   UNL     1       3.095  28.078  53.166  1.00  0.00    -0.266 OA
HETATM    4  C   UNL     1       4.825  28.819  54.598  1.00  0.00     0.129 A 
HETATM    5  C   UNL     1       6.135  28.512  54.826  1.00  0.00     0.034 A 
HETATM    6  C   UNL     1       6.544  27.392  53.944  1.00  0.00     0.159 A 
HETATM    7  N   UNL     1       4.486  29.833  55.402  1.00  0.00    -0.272 N 
HETATM    8  H   UNL     1       3.593  30.310  55.492  1.00  0.00     0.189 HD
HETATM    9  N   UNL     1       5.532  30.222  56.173  1.00  0.00    -0.173 NA
HETATM   10  C   UNL     1       6.571  29.418  55.813  1.00  0.00     0.101 A 
ENDROOT
BRANCH  10  11
HETATM   11  C   UNL     1       7.886  29.573  56.456  1.00  0.00     0.028 A 
HETATM   12  C   UNL     1       8.005  29.936  57.813  1.00  0.00     0.078 A 
HETATM   13  C   UNL     1       9.249  30.059  58.431  1.00  0.00     0.037 A 
HETATM   14  C   UNL     1      10.412  29.827  57.703  1.00  0.00     0.003 A 
HETATM   15  C   UNL     1      10.324  29.479  56.357  1.00  0.00     0.001 A 
HETATM   16  C   UNL     1       9.074  29.360  55.739  1.00  0.00     0.017 A 
BRANCH  12  17
HETATM   17  O   UNL     1       6.919  30.195  58.611  1.00  0.00    -0.360 OA
HETATM   18  H   UNL     1       6.617  31.102  58.372  1.00  0.00     0.217 HD
ENDBRANCH  12  17
ENDBRANCH  10  11
BRANCH   6  19
HETATM   19  C   UNL     1       6.968  26.210  54.790  1.00  0.00    -0.031 A 
HETATM   20  C   UNL     1       6.620  26.057  56.145  1.00  0.00     0.011 A 
HETATM   21  C   UNL     1       7.036  24.937  56.871  1.00  0.00     0.024 A 
HETATM   22  C   UNL     1       7.786  23.944  56.248  1.00  0.00     0.034 A 
HETATM   23 CL   UNL     1       8.295  22.565  57.142  1.00  0.00    -0.084 Cl
HETATM   24  C   UNL     1       8.118  24.057  54.902  1.00  0.00     0.024 A 
HETATM   25  C   UNL     1       7.708  25.180  54.178  1.00  0.00     0.011 A 
ENDBRANCH   6  19
BRANCH   1  26
HETATM   26  C   UNL     1       5.171  26.236  52.099  1.00  0.00     0.129 C 
BRANCH  26  27
HETATM   27  C   UNL     1       5.515  26.870  50.750  1.00  0.00     0.046 C 
BRANCH  27  28
HETATM   28  C   UNL     1       4.318  27.058  49.823  1.00  0.00     0.169 C 
BRANCH  28  29
HETATM   29  O   UNL     1       4.578  26.416  48.576  1.00  0.00    -0.387 OA
BRANCH  29  30
HETATM   30  C   UNL     1       3.465  26.417  47.676  1.00  0.00     0.113 C 
HETATM   31  C   UNL     1       2.335  27.326  48.151  1.00  0.00     0.039 C 
HETATM   32  C   UNL     1       2.970  24.976  47.590  1.00  0.00     0.039 C 
ENDBRANCH  29  30
ENDBRANCH  28  29
ENDBRANCH  27  28
ENDBRANCH  26  27
ENDBRANCH   1  26
TORSDOF 8
ENDMDL
MODEL 6
REMARK VINA RESULT:      -7.5      3.092      7.995
REMARK  8 active torsions:
REMARK  status: ('A' for Active; 'I' for Inactive)
REMARK    1  A    between atoms: C_2  and  O_3 
REMARK    2  A    between atoms: O_3  and  C_4 
REMARK    3  A    between atoms: C_4  and  C_5 
REMARK    4  A    between atoms: C_5  and  C_6 
REMARK    5  A    between atoms: C_6  and  N_7 
REMARK    6  A    between atoms: C_12  and  C_13 
REMARK    7  A    between atoms: C_23  and  C_24 
REMARK    8  A    between atoms: C_25  and  O_26 
ROOT
HETATM    1  N   UNL     1       6.302  26.352  56.804  1.00  0.00    -0.334 N 
HETATM    2  C   UNL     1       7.451  26.645  57.542  1.00  0.00     0.273 A 
HETATM    3  O   UNL     1       8.315  25.887  57.944  1.00  0.00    -0.266 OA
HETATM    4  C   UNL     1       7.353  28.039  57.758  1.00  0.00     0.129 A 
HETATM    5  C   UNL     1       6.233  28.590  57.207  1.00  0.00     0.034 A 
HETATM    6  C   UNL     1       5.443  27.535  56.527  1.00  0.00     0.159 A 
HETATM    7  N   UNL     1       8.042  29.011  58.367  1.00  0.00    -0.272 N 
HETATM    8  H   UNL     1       8.920  28.953  58.877  1.00  0.00     0.189 HD
HETATM    9  N   UNL     1       7.419  30.210  58.242  1.00  0.00    -0.173 NA
HETATM   10  C   UNL     1       6.283  29.959  57.535  1.00  0.00     0.101 A 
ENDROOT
BRANCH  10  11
HETATM   11  C   UNL     1       5.350  31.054  57.219  1.00  0.00     0.028 A 
HETATM   12  C   UNL     1       4.720  31.802  58.234  1.00  0.00     0.078 A 
HETATM   13  C   UNL     1       3.855  32.855  57.937  1.00  0.00     0.037 A 
HETATM   14  C   UNL     1       3.592  33.184  56.611  1.00  0.00     0.003 A 
HETATM   15  C   UNL     1       4.190  32.452  55.587  1.00  0.00     0.001 A 
HETATM   16  C   UNL     1       5.056  31.394  55.889  1.00  0.00     0.017 A 
BRANCH  12  17
HETATM   17  O   UNL     1       4.908  31.549  59.570  1.00  0.00    -0.360 OA
HETATM   18  H   UNL     1       5.178  30.603  59.631  1.00  0.00     0.217 HD
ENDBRANCH  12  17
ENDBRANCH  10  11
BRANCH   6  19
HETATM   19  C   UNL     1       5.334  27.855  55.052  1.00  0.00    -0.031 A 
HETATM   20  C   UNL     1       4.117  28.134  54.402  1.00  0.00     0.011 A 
HETATM   21  C   UNL     1       4.083  28.430  53.036  1.00  0.00     0.024 A 
HETATM   22  C   UNL     1       5.266  28.475  52.306  1.00  0.00     0.034 A 
HETATM   23 CL   UNL     1       5.224  28.843  50.626  1.00  0.00    -0.084 Cl
HETATM   24  C   UNL     1       6.486  28.232  52.930  1.00  0.00     0.024 A 
HETATM   25  C   UNL     1       6.518  27.928  54.293  1.00  0.00     0.011 A 
ENDBRANCH   6  19
BRANCH   1  26
HETATM   26  C   UNL     1       5.890  25.001  56.471  1.00  0.00     0.129 C 
BRANCH  26  27
HETATM   27  C   UNL     1       6.620  24.417  55.259  1.00  0.00     0.046 C 
BRANCH  27  28
HETATM   28  C   UNL     1       7.357  23.113  55.541  1.00  0.00     0.169 C 
BRANCH  28  29
HETATM   29  O   UNL     1       8.016  22.674  54.355  1.00  0.00    -0.387 OA
BRANCH  29  30
HETATM   30  C   UNL     1       8.403  21.295  54.377  1.00  0.00     0.113 C 
HETATM   31  C   UNL     1       7.972  20.551  53.116  1.00  0.00     0.039 C 
HETATM   32  C   UNL     1       7.737  20.673  55.601  1.00  0.00     0.039 C 
ENDBRANCH  29  30
ENDBRANCH  28  29
ENDBRANCH  27  28
ENDBRANCH  26  27
ENDBRANCH   1  26
TORSDOF 8
ENDMDL
MODEL 7
REMARK VINA RESULT:      -7.4      4.310      8.298
REMARK  8 active torsions:
REMARK  status: ('A' for Active; 'I' for Inactive)
REMARK    1  A    between atoms: C_2  and  O_3 
REMARK    2  A    between atoms: O_3  and  C_4 
REMARK    3  A    between atoms: C_4  and  C_5 
REMARK    4  A    between atoms: C_5  and  C_6 
REMARK    5  A    between atoms: C_6  and  N_7 
REMARK    6  A    between atoms: C_12  and  C_13 
REMARK    7  A    between atoms: C_23  and  C_24 
REMARK    8  A    between atoms: C_25  and  O_26 
ROOT
HETATM    1  N   UNL     1       8.408  29.019  57.010  1.00  0.00    -0.334 N 
HETATM    2  C   UNL     1       9.607  29.734  57.029  1.00  0.00     0.273 A 
HETATM    3  O   UNL     1      10.611  29.561  56.360  1.00  0.00    -0.266 OA
HETATM    4  C   UNL     1       9.400  30.691  58.049  1.00  0.00     0.129 A 
HETATM    5  C   UNL     1       8.173  30.592  58.637  1.00  0.00     0.034 A 
HETATM    6  C   UNL     1       7.408  29.488  58.007  1.00  0.00     0.159 A 
HETATM    7  N   UNL     1      10.068  31.689  58.639  1.00  0.00    -0.272 N 
HETATM    8  H   UNL     1      11.006  32.034  58.451  1.00  0.00     0.189 HD
HETATM    9  N   UNL     1       9.325  32.272  59.613  1.00  0.00    -0.173 NA
HETATM   10  C   UNL     1       8.148  31.588  59.634  1.00  0.00     0.101 A 
ENDROOT
BRANCH  10  11
HETATM   11  C   UNL     1       7.092  31.956  60.592  1.00  0.00     0.028 A 
HETATM   12  C   UNL     1       7.126  31.516  61.930  1.00  0.00     0.078 A 
HETATM   13  C   UNL     1       6.140  31.883  62.846  1.00  0.00     0.037 A 
HETATM   14  C   UNL     1       5.088  32.699  62.443  1.00  0.00     0.003 A 
HETATM   15  C   UNL     1       5.023  33.138  61.122  1.00  0.00     0.001 A 
HETATM   16  C   UNL     1       6.012  32.764  60.205  1.00  0.00     0.017 A 
BRANCH  12  17
HETATM   17  O   UNL     1       8.116  30.702  62.421  1.00  0.00    -0.360 OA
HETATM   18  H   UNL     1       8.419  31.120  63.260  1.00  0.00     0.217 HD
ENDBRANCH  12  17
ENDBRANCH  10  11
BRANCH   6  19
HETATM   19  C   UNL     1       6.152  30.042  57.369  1.00  0.00    -0.031 A 
HETATM   20  C   UNL     1       6.074  31.321  56.786  1.00  0.00     0.011 A 
HETATM   21  C   UNL     1       4.886  31.774  56.205  1.00  0.00     0.024 A 
HETATM   22  C   UNL     1       3.767  30.947  56.177  1.00  0.00     0.034 A 
HETATM   23 CL   UNL     1       2.306  31.504  55.460  1.00  0.00    -0.084 Cl
HETATM   24  C   UNL     1       3.827  29.668  56.721  1.00  0.00     0.024 A 
HETATM   25  C   UNL     1       5.012  29.218  57.308  1.00  0.00     0.011 A 
ENDBRANCH   6  19
BRANCH   1  26
HETATM   26  C   UNL     1       8.204  27.823  56.212  1.00  0.00     0.129 C 
BRANCH  26  27
HETATM   27  C   UNL     1       7.972  26.561  57.046  1.00  0.00     0.046 C 
BRANCH  27  28
HETATM   28  C   UNL     1       7.084  25.521  56.372  1.00  0.00     0.169 C 
BRANCH  28  29
HETATM   29  O   UNL     1       7.383  25.473  54.978  1.00  0.00    -0.387 OA
BRANCH  29  30
HETATM   30  C   UNL     1       7.992  24.249  54.552  1.00  0.00     0.113 C 
HETATM   31  C   UNL     1       7.788  23.987  53.063  1.00  0.00     0.039 C 
HETATM   32  C   UNL     1       7.348  23.132  55.369  1.00  0.00     0.039 C 
ENDBRANCH  29  30
ENDBRANCH  28  29
ENDBRANCH  27  28
ENDBRANCH  26  27
ENDBRANCH   1  26
TORSDOF 8
ENDMDL
MODEL 8
REMARK VINA RESULT:      -7.4      1.847      2.583
REMARK  8 active torsions:
REMARK  status: ('A' for Active; 'I' for Inactive)
REMARK    1  A    between atoms: C_2  and  O_3 
REMARK    2  A    between atoms: O_3  and  C_4 
REMARK    3  A    between atoms: C_4  and  C_5 
REMARK    4  A    between atoms: C_5  and  C_6 
REMARK    5  A    between atoms: C_6  and  N_7 
REMARK    6  A    between atoms: C_12  and  C_13 
REMARK    7  A    between atoms: C_23  and  C_24 
REMARK    8  A    between atoms: C_25  and  O_26 
ROOT
HETATM    1  N   UNL     1       4.430  28.411  55.063  1.00  0.00    -0.334 N 
HETATM    2  C   UNL     1       3.984  28.196  53.757  1.00  0.00     0.273 A 
HETATM    3  O   UNL     1       3.194  28.852  53.101  1.00  0.00    -0.266 OA
HETATM    4  C   UNL     1       4.635  26.998  53.383  1.00  0.00     0.129 A 
HETATM    5  C   UNL     1       5.427  26.487  54.368  1.00  0.00     0.034 A 
HETATM    6  C   UNL     1       5.369  27.370  55.560  1.00  0.00     0.159 A 
HETATM    7  N   UNL     1       4.703  26.182  52.325  1.00  0.00    -0.272 N 
HETATM    8  H   UNL     1       4.240  26.258  51.423  1.00  0.00     0.189 HD
HETATM    9  N   UNL     1       5.524  25.129  52.567  1.00  0.00    -0.173 NA
HETATM   10  C   UNL     1       5.970  25.298  53.843  1.00  0.00     0.101 A 
ENDROOT
BRANCH  10  11
HETATM   11  C   UNL     1       6.890  24.318  54.444  1.00  0.00     0.028 A 
HETATM   12  C   UNL     1       7.822  23.606  53.662  1.00  0.00     0.078 A 
HETATM   13  C   UNL     1       8.711  22.696  54.232  1.00  0.00     0.037 A 
HETATM   14  C   UNL     1       8.687  22.469  55.604  1.00  0.00     0.003 A 
HETATM   15  C   UNL     1       7.767  23.149  56.399  1.00  0.00     0.001 A 
HETATM   16  C   UNL     1       6.874  24.060  55.823  1.00  0.00     0.017 A 
BRANCH  12  17
HETATM   17  O   UNL     1       7.916  23.754  52.300  1.00  0.00    -0.360 OA
HETATM   18  H   UNL     1       7.764  24.710  52.120  1.00  0.00     0.217 HD
ENDBRANCH  12  17
ENDBRANCH  10  11
BRANCH   6  19
HETATM   19  C   UNL     1       6.750  27.912  55.857  1.00  0.00    -0.031 A 
HETATM   20  C   UNL     1       7.596  28.468  54.878  1.00  0.00     0.011 A 
HETATM   21  C   UNL     1       8.861  28.959  55.217  1.00  0.00     0.024 A 
HETATM   22  C   UNL     1       9.288  28.924  56.540  1.00  0.00     0.034 A 
HETATM   23 CL   UNL     1      10.842  29.532  56.957  1.00  0.00    -0.084 Cl
HETATM   24  C   UNL     1       8.459  28.408  57.531  1.00  0.00     0.024 A 
HETATM   25  C   UNL     1       7.199  27.910  57.191  1.00  0.00     0.011 A 
ENDBRANCH   6  19
BRANCH   1  26
HETATM   26  C   UNL     1       3.909  29.459  55.922  1.00  0.00     0.129 C 
BRANCH  26  27
HETATM   27  C   UNL     1       4.726  30.752  55.877  1.00  0.00     0.046 C 
BRANCH  27  28
HETATM   28  C   UNL     1       3.949  31.965  55.377  1.00  0.00     0.169 C 
BRANCH  28  29
HETATM   29  O   UNL     1       2.586  31.601  55.163  1.00  0.00    -0.387 OA
BRANCH  29  30
HETATM   30  C   UNL     1       1.709  32.714  54.960  1.00  0.00     0.113 C 
HETATM   31  C   UNL     1       1.648  33.147  53.498  1.00  0.00     0.039 C 
HETATM   32  C   UNL     1       2.246  33.857  55.817  1.00  0.00     0.039 C 
ENDBRANCH  29  30
ENDBRANCH  28  29
ENDBRANCH  27  28
ENDBRANCH  26  27
ENDBRANCH   1  26
TORSDOF 8
ENDMDL
MODEL 9
REMARK VINA RESULT:      -7.4      3.870      7.671
REMARK  8 active torsions:
REMARK  status: ('A' for Active; 'I' for Inactive)
REMARK    1  A    between atoms: C_2  and  O_3 
REMARK    2  A    between atoms: O_3  and  C_4 
REMARK    3  A    between atoms: C_4  and  C_5 
REMARK    4  A    between atoms: C_5  and  C_6 
REMARK    5  A    between atoms: C_6  and  N_7 
REMARK    6  A    between atoms: C_12  and  C_13 
REMARK    7  A    between atoms: C_23  and  C_24 
REMARK    8  A    between atoms: C_25  and  O_26 
ROOT
HETATM    1  N   UNL     1       4.712  31.195  56.181  1.00  0.00    -0.334 N 
HETATM    2  C   UNL     1       3.601  31.618  56.914  1.00  0.00     0.273 A 
HETATM    3  O   UNL     1       2.454  31.779  56.538  1.00  0.00    -0.266 OA
HETATM    4  C   UNL     1       4.134  31.864  58.201  1.00  0.00     0.129 A 
HETATM    5  C   UNL     1       5.474  31.623  58.282  1.00  0.00     0.034 A 
HETATM    6  C   UNL     1       5.976  31.158  56.965  1.00  0.00     0.159 A 
HETATM    7  N   UNL     1       3.711  32.285  59.398  1.00  0.00    -0.272 N 
HETATM    8  H   UNL     1       2.775  32.553  59.691  1.00  0.00     0.189 HD
HETATM    9  N   UNL     1       4.730  32.335  60.292  1.00  0.00    -0.173 NA
HETATM   10  C   UNL     1       5.838  31.940  59.605  1.00  0.00     0.101 A 
ENDROOT
BRANCH  10  11
HETATM   11  C   UNL     1       7.146  31.882  60.278  1.00  0.00     0.028 A 
HETATM   12  C   UNL     1       7.261  31.530  61.638  1.00  0.00     0.078 A 
HETATM   13  C   UNL     1       8.501  31.450  62.272  1.00  0.00     0.037 A 
HETATM   14  C   UNL     1       9.663  31.728  61.558  1.00  0.00     0.003 A 
HETATM   15  C   UNL     1       9.578  32.091  60.216  1.00  0.00     0.001 A 
HETATM   16  C   UNL     1       8.331  32.173  59.585  1.00  0.00     0.017 A 
BRANCH  12  17
HETATM   17  O   UNL     1       6.174  31.247  62.427  1.00  0.00    -0.360 OA
HETATM   18  H   UNL     1       5.383  31.374  61.854  1.00  0.00     0.217 HD
ENDBRANCH  12  17
ENDBRANCH  10  11
BRANCH   6  19
HETATM   19  C   UNL     1       6.544  29.762  57.104  1.00  0.00    -0.031 A 
HETATM   20  C   UNL     1       5.754  28.615  57.307  1.00  0.00     0.011 A 
HETATM   21  C   UNL     1       6.339  27.350  57.420  1.00  0.00     0.024 A 
HETATM   22  C   UNL     1       7.719  27.211  57.309  1.00  0.00     0.034 A 
HETATM   23 CL   UNL     1       8.438  25.654  57.445  1.00  0.00    -0.084 Cl
HETATM   24  C   UNL     1       8.520  28.325  57.079  1.00  0.00     0.024 A 
HETATM   25  C   UNL     1       7.936  29.590  56.973  1.00  0.00     0.011 A 
ENDBRANCH   6  19
BRANCH   1  26
HETATM   26  C   UNL     1       4.683  30.967  54.748  1.00  0.00     0.129 C 
BRANCH  26  27
HETATM   27  C   UNL     1       3.980  29.667  54.348  1.00  0.00     0.046 C 
BRANCH  27  28
HETATM   28  C   UNL     1       4.793  28.779  53.412  1.00  0.00     0.169 C 
BRANCH  28  29
HETATM   29  O   UNL     1       5.065  27.535  54.055  1.00  0.00    -0.387 OA
BRANCH  29  30
HETATM   30  C   UNL     1       5.682  26.561  53.206  1.00  0.00     0.113 C 
HETATM   31  C   UNL     1       4.890  25.258  53.146  1.00  0.00     0.039 C 
HETATM   32  C   UNL     1       7.071  26.298  53.779  1.00  0.00     0.039 C 
ENDBRANCH  29  30
ENDBRANCH  28  29
ENDBRANCH  27  28
ENDBRANCH  26  27
ENDBRANCH   1  26
TORSDOF 8
ENDMDL
MODEL 10
REMARK VINA RESULT:      -7.4      8.196     13.092
REMARK  8 active torsions:
REMARK  status: ('A' for Active; 'I' for Inactive)
REMARK    1  A    between atoms: C_2  and  O_3 
REMARK    2  A    between atoms: O_3  and  C_4 
REMARK    3  A    between atoms: C_4  and  C_5 
REMARK    4  A    between atoms: C_5  and  C_6 
REMARK    5  A    between atoms: C_6  and  N_7 
REMARK    6  A    between atoms: C_12  and  C_13 
REMARK    7  A    between atoms: C_23  and  C_24 
REMARK    8  A    between atoms: C_25  and  O_26 
ROOT
HETATM    1  N   UNL     1       6.120  32.847  62.130  1.00  0.00    -0.334 N 
HETATM    2  C   UNL     1       5.169  33.012  61.121  1.00  0.00     0.273 A 
HETATM    3  O   UNL     1       4.704  32.178  60.365  1.00  0.00    -0.266 OA
HETATM    4  C   UNL     1       4.901  34.400  61.149  1.00  0.00     0.129 A 
HETATM    5  C   UNL     1       5.624  35.067  62.095  1.00  0.00     0.034 A 
HETATM    6  C   UNL     1       6.488  34.108  62.828  1.00  0.00     0.159 A 
HETATM    7  N   UNL     1       4.137  35.288  60.503  1.00  0.00    -0.272 N 
HETATM    8  H   UNL     1       3.479  35.136  59.742  1.00  0.00     0.189 HD
HETATM    9  N   UNL     1       4.321  36.542  60.986  1.00  0.00    -0.173 NA
HETATM   10  C   UNL     1       5.257  36.421  61.968  1.00  0.00     0.101 A 
ENDROOT
BRANCH  10  11
HETATM   11  C   UNL     1       5.708  37.609  62.713  1.00  0.00     0.028 A 
HETATM   12  C   UNL     1       6.409  38.654  62.080  1.00  0.00     0.078 A 
HETATM   13  C   UNL     1       6.816  39.791  62.778  1.00  0.00     0.037 A 
HETATM   14  C   UNL     1       6.535  39.908  64.135  1.00  0.00     0.003 A 
HETATM   15  C   UNL     1       5.855  38.884  64.790  1.00  0.00     0.001 A 
HETATM   16  C   UNL     1       5.451  37.743  64.087  1.00  0.00     0.017 A 
BRANCH  12  17
HETATM   17  O   UNL     1       6.741  38.627  60.748  1.00  0.00    -0.360 OA
HETATM   18  H   UNL     1       5.921  38.872  60.260  1.00  0.00     0.217 HD
ENDBRANCH  12  17
ENDBRANCH  10  11
BRANCH   6  19
HETATM   19  C   UNL     1       6.110  34.105  64.293  1.00  0.00    -0.031 A 
HETATM   20  C   UNL     1       4.781  34.082  64.756  1.00  0.00     0.011 A 
HETATM   21  C   UNL     1       4.496  34.073  66.124  1.00  0.00     0.024 A 
HETATM   22  C   UNL     1       5.535  34.063  67.050  1.00  0.00     0.034 A 
HETATM   23 CL   UNL     1       5.185  34.048  68.734  1.00  0.00    -0.084 Cl
HETATM   24  C   UNL     1       6.858  34.056  66.619  1.00  0.00     0.024 A 
HETATM   25  C   UNL     1       7.142  34.073  65.251  1.00  0.00     0.011 A 
ENDBRANCH   6  19
BRANCH   1  26
HETATM   26  C   UNL     1       6.814  31.596  62.377  1.00  0.00     0.129 C 
BRANCH  26  27
HETATM   27  C   UNL     1       8.338  31.729  62.373  1.00  0.00     0.046 C 
BRANCH  27  28
HETATM   28  C   UNL     1       8.969  31.660  60.987  1.00  0.00     0.169 C 
BRANCH  28  29
HETATM   29  O   UNL     1       8.142  30.879  60.127  1.00  0.00    -0.387 OA
BRANCH  29  30
HETATM   30  C   UNL     1       8.516  30.936  58.746  1.00  0.00     0.113 C 
HETATM   31  C   UNL     1       8.596  29.552  58.108  1.00  0.00     0.039 C 
HETATM   32  C   UNL     1       9.882  31.614  58.689  1.00  0.00     0.039 C 
ENDBRANCH  29  30
ENDBRANCH  28  29
ENDBRANCH  27  28
ENDBRANCH  26  27
ENDBRANCH   1  26
TORSDOF 8
ENDMDL
