MODEL 1
REMARK VINA RESULT:      -8.3      0.000      0.000
REMARK  3 active torsions:
REMARK  status: ('A' for Active; 'I' for Inactive)
REMARK    1  A    between atoms: C_9  and  C_10 
REMARK    2  A    between atoms: C_16  and  C_17 
REMARK       I    between atoms: C_17  and  N_18 
REMARK    3  A    between atoms: N_18  and  C_19 
ROOT
HETATM    1  C   UNL     1       8.670  27.318  57.039  1.00  0.00     0.070 C 
HETATM    2  C   UNL     1       7.419  27.650  56.265  1.00  0.00     0.037 C 
HETATM    3  N   UNL     1       7.082  29.000  56.219  1.00  0.00    -0.191 N 
HETATM    4  C   UNL     1       5.891  29.443  55.766  1.00  0.00     0.735 A 
HETATM    5  N   UNL     1       5.018  28.555  55.203  1.00  0.00    -0.092 N 
HETATM    6  N   UNL     1       3.873  29.172  54.875  1.00  0.00     0.012 NA
HETATM    7  N   UNL     1       4.074  30.444  55.207  1.00  0.00     0.033 NA
HETATM    8  N   UNL     1       5.327  30.626  55.763  1.00  0.00     0.030 NA
HETATM    9  C   UNL     1       5.281  27.130  55.026  1.00  0.00     0.199 C 
HETATM   10  C   UNL     1       6.599  26.735  55.692  1.00  0.00     0.062 C 
HETATM   11  H   UNL     1       7.677  29.652  56.726  1.00  0.00     0.184 HD
ENDROOT
BRANCH  10  12
HETATM   12  C   UNL     1       6.829  25.267  55.741  1.00  0.00     0.256 C 
HETATM   13  N   UNL     1       7.654  24.805  54.741  1.00  0.00    -0.322 N 
HETATM   14  H   UNL     1       7.997  25.478  54.067  1.00  0.00     0.169 HD
HETATM   15  O   UNL     1       6.244  24.606  56.589  1.00  0.00    -0.267 OA
BRANCH  13  16
HETATM   16  C   UNL     1       8.074  23.471  54.552  1.00  0.00     0.052 A 
HETATM   17  C   UNL     1       8.939  22.774  55.390  1.00  0.00     0.145 A 
HETATM   18  N   UNL     1       9.339  21.494  55.177  1.00  0.00    -0.271 NA
HETATM   19  C   UNL     1       8.860  20.878  54.079  1.00  0.00     0.116 A 
HETATM   20  C   UNL     1       7.996  21.481  53.181  1.00  0.00     0.021 A 
HETATM   21  C   UNL     1       7.598  22.794  53.425  1.00  0.00     0.032 A 
ENDBRANCH  13  16
ENDBRANCH  10  12
BRANCH   9  22
HETATM   22  C   UNL     1       5.260  26.754  53.553  1.00  0.00    -0.011 A 
HETATM   23  C   UNL     1       5.803  27.575  52.566  1.00  0.00     0.125 A 
HETATM   24  N   UNL     1       5.854  27.252  51.255  1.00  0.00    -0.272 NA
HETATM   25  C   UNL     1       5.324  26.064  50.896  1.00  0.00     0.116 A 
HETATM   26  C   UNL     1       4.763  25.172  51.793  1.00  0.00     0.020 A 
HETATM   27  C   UNL     1       4.738  25.521  53.140  1.00  0.00     0.012 A 
ENDBRANCH   9  22
TORSDOF 3
ENDMDL
MODEL 2
REMARK VINA RESULT:      -8.1      2.063      3.594
REMARK  3 active torsions:
REMARK  status: ('A' for Active; 'I' for Inactive)
REMARK    1  A    between atoms: C_9  and  C_10 
REMARK    2  A    between atoms: C_16  and  C_17 
REMARK       I    between atoms: C_17  and  N_18 
REMARK    3  A    between atoms: N_18  and  C_19 
ROOT
HETATM    1  C   UNL     1       4.676  25.242  57.392  1.00  0.00     0.070 C 
HETATM    2  C   UNL     1       5.124  26.529  56.746  1.00  0.00     0.037 C 
HETATM    3  N   UNL     1       4.208  27.576  56.793  1.00  0.00    -0.191 N 
HETATM    4  C   UNL     1       4.354  28.711  56.078  1.00  0.00     0.735 A 
HETATM    5  N   UNL     1       5.509  28.915  55.376  1.00  0.00    -0.092 N 
HETATM    6  N   UNL     1       5.437  30.062  54.685  1.00  0.00     0.012 NA
HETATM    7  N   UNL     1       4.251  30.569  55.005  1.00  0.00     0.033 NA
HETATM    8  N   UNL     1       3.566  29.737  55.872  1.00  0.00     0.030 NA
HETATM    9  C   UNL     1       6.639  27.990  55.349  1.00  0.00     0.199 C 
HETATM   10  C   UNL     1       6.297  26.696  56.087  1.00  0.00     0.062 C 
HETATM   11  H   UNL     1       3.305  27.393  57.226  1.00  0.00     0.184 HD
ENDROOT
BRANCH  10  12
HETATM   12  C   UNL     1       7.315  25.625  55.919  1.00  0.00     0.256 C 
HETATM   13  N   UNL     1       6.972  24.681  54.980  1.00  0.00    -0.322 N 
HETATM   14  H   UNL     1       6.074  24.778  54.521  1.00  0.00     0.169 HD
HETATM   15  O   UNL     1       8.305  25.633  56.640  1.00  0.00    -0.267 OA
BRANCH  13  16
HETATM   16  C   UNL     1       7.749  23.570  54.586  1.00  0.00     0.052 A 
HETATM   17  C   UNL     1       8.779  23.004  55.333  1.00  0.00     0.145 A 
HETATM   18  N   UNL     1       9.522  21.944  54.924  1.00  0.00    -0.271 NA
HETATM   19  C   UNL     1       9.230  21.422  53.717  1.00  0.00     0.116 A 
HETATM   20  C   UNL     1       8.227  21.908  52.896  1.00  0.00     0.021 A 
HETATM   21  C   UNL     1       7.477  22.996  53.341  1.00  0.00     0.032 A 
ENDBRANCH  13  16
ENDBRANCH  10  12
BRANCH   9  22
HETATM   22  C   UNL     1       7.889  28.646  55.913  1.00  0.00    -0.011 A 
HETATM   23  C   UNL     1       8.958  29.032  55.105  1.00  0.00     0.125 A 
HETATM   24  N   UNL     1      10.061  29.667  55.559  1.00  0.00    -0.272 NA
HETATM   25  C   UNL     1      10.120  29.919  56.884  1.00  0.00     0.116 A 
HETATM   26  C   UNL     1       9.116  29.582  57.774  1.00  0.00     0.020 A 
HETATM   27  C   UNL     1       7.983  28.943  57.278  1.00  0.00     0.012 A 
ENDBRANCH   9  22
TORSDOF 3
ENDMDL
MODEL 3
REMARK VINA RESULT:      -7.9      3.200      5.148
REMARK  3 active torsions:
REMARK  status: ('A' for Active; 'I' for Inactive)
REMARK    1  A    between atoms: C_9  and  C_10 
REMARK    2  A    between atoms: C_16  and  C_17 
REMARK       I    between atoms: C_17  and  N_18 
REMARK    3  A    between atoms: N_18  and  C_19 
ROOT
HETATM    1  C   UNL     1      10.971  29.719  56.653  1.00  0.00     0.070 C 
HETATM    2  C   UNL     1       9.777  30.157  57.463  1.00  0.00     0.037 C 
HETATM    3  N   UNL     1       9.985  31.253  58.296  1.00  0.00    -0.191 N 
HETATM    4  C   UNL     1       9.102  31.633  59.243  1.00  0.00     0.735 A 
HETATM    5  N   UNL     1       7.889  31.009  59.314  1.00  0.00    -0.092 N 
HETATM    6  N   UNL     1       7.183  31.480  60.353  1.00  0.00     0.012 NA
HETATM    7  N   UNL     1       7.960  32.419  60.884  1.00  0.00     0.033 NA
HETATM    8  N   UNL     1       9.158  32.524  60.201  1.00  0.00     0.030 NA
HETATM    9  C   UNL     1       7.445  29.948  58.413  1.00  0.00     0.199 C 
HETATM   10  C   UNL     1       8.577  29.525  57.477  1.00  0.00     0.062 C 
HETATM   11  H   UNL     1      10.920  31.655  58.320  1.00  0.00     0.184 HD
ENDROOT
BRANCH  10  12
HETATM   12  C   UNL     1       8.270  28.308  56.680  1.00  0.00     0.256 C 
HETATM   13  N   UNL     1       8.249  27.152  57.425  1.00  0.00    -0.322 N 
HETATM   14  H   UNL     1       8.465  27.224  58.411  1.00  0.00     0.169 HD
HETATM   15  O   UNL     1       8.128  28.416  55.469  1.00  0.00    -0.267 OA
BRANCH  13  16
HETATM   16  C   UNL     1       7.959  25.855  56.950  1.00  0.00     0.052 A 
HETATM   17  C   UNL     1       6.834  25.503  56.208  1.00  0.00     0.145 A 
HETATM   18  N   UNL     1       6.571  24.244  55.775  1.00  0.00    -0.271 NA
HETATM   19  C   UNL     1       7.465  23.287  56.095  1.00  0.00     0.116 A 
HETATM   20  C   UNL     1       8.613  23.530  56.828  1.00  0.00     0.021 A 
HETATM   21  C   UNL     1       8.862  24.833  57.257  1.00  0.00     0.032 A 
ENDBRANCH  13  16
ENDBRANCH  10  12
BRANCH   9  22
HETATM   22  C   UNL     1       6.207  30.375  57.642  1.00  0.00    -0.011 A 
HETATM   23  C   UNL     1       6.053  31.663  57.132  1.00  0.00     0.125 A 
HETATM   24  N   UNL     1       4.995  32.066  56.394  1.00  0.00    -0.272 NA
HETATM   25  C   UNL     1       4.027  31.153  56.165  1.00  0.00     0.116 A 
HETATM   26  C   UNL     1       4.080  29.848  56.622  1.00  0.00     0.020 A 
HETATM   27  C   UNL     1       5.189  29.455  57.364  1.00  0.00     0.012 A 
ENDBRANCH   9  22
TORSDOF 3
ENDMDL
MODEL 4
REMARK VINA RESULT:      -7.9      1.711      3.767
REMARK  3 active torsions:
REMARK  status: ('A' for Active; 'I' for Inactive)
REMARK    1  A    between atoms: C_9  and  C_10 
REMARK    2  A    between atoms: C_16  and  C_17 
REMARK       I    between atoms: C_17  and  N_18 
REMARK    3  A    between atoms: N_18  and  C_19 
ROOT
HETATM    1  C   UNL     1       4.458  24.382  51.882  1.00  0.00     0.070 C 
HETATM    2  C   UNL     1       4.906  25.547  52.728  1.00  0.00     0.037 C 
HETATM    3  N   UNL     1       4.005  26.604  52.822  1.00  0.00    -0.191 N 
HETATM    4  C   UNL     1       4.332  27.803  53.347  1.00  0.00     0.735 A 
HETATM    5  N   UNL     1       5.555  27.963  53.935  1.00  0.00    -0.092 N 
HETATM    6  N   UNL     1       5.715  29.233  54.336  1.00  0.00     0.012 NA
HETATM    7  N   UNL     1       4.568  29.828  54.023  1.00  0.00     0.033 NA
HETATM    8  N   UNL     1       3.698  28.948  53.406  1.00  0.00     0.030 NA
HETATM    9  C   UNL     1       6.559  26.911  54.066  1.00  0.00     0.199 C 
HETATM   10  C   UNL     1       6.121  25.649  53.323  1.00  0.00     0.062 C 
HETATM   11  H   UNL     1       3.134  26.529  52.299  1.00  0.00     0.184 HD
ENDROOT
BRANCH  10  12
HETATM   12  C   UNL     1       7.181  24.611  53.229  1.00  0.00     0.256 C 
HETATM   13  N   UNL     1       6.923  23.490  53.984  1.00  0.00    -0.322 N 
HETATM   14  H   UNL     1       6.077  23.482  54.540  1.00  0.00     0.169 HD
HETATM   15  O   UNL     1       8.184  24.849  52.568  1.00  0.00    -0.267 OA
BRANCH  13  16
HETATM   16  C   UNL     1       7.729  22.335  54.070  1.00  0.00     0.052 A 
HETATM   17  C   UNL     1       8.479  21.959  55.180  1.00  0.00     0.145 A 
HETATM   18  N   UNL     1       9.259  20.848  55.232  1.00  0.00    -0.271 NA
HETATM   19  C   UNL     1       9.297  20.076  54.128  1.00  0.00     0.116 A 
HETATM   20  C   UNL     1       8.591  20.359  52.972  1.00  0.00     0.021 A 
HETATM   21  C   UNL     1       7.795  21.504  52.948  1.00  0.00     0.032 A 
ENDBRANCH  13  16
ENDBRANCH  10  12
BRANCH   9  22
HETATM   22  C   UNL     1       6.858  26.627  55.529  1.00  0.00    -0.011 A 
HETATM   23  C   UNL     1       7.998  27.115  56.166  1.00  0.00     0.125 A 
HETATM   24  N   UNL     1       8.272  26.932  57.476  1.00  0.00    -0.272 NA
HETATM   25  C   UNL     1       7.383  26.213  58.193  1.00  0.00     0.116 A 
HETATM   26  C   UNL     1       6.219  25.685  57.662  1.00  0.00     0.020 A 
HETATM   27  C   UNL     1       5.952  25.902  56.314  1.00  0.00     0.012 A 
ENDBRANCH   9  22
TORSDOF 3
ENDMDL
MODEL 5
REMARK VINA RESULT:      -7.8      6.144      8.853
REMARK  3 active torsions:
REMARK  status: ('A' for Active; 'I' for Inactive)
REMARK    1  A    between atoms: C_9  and  C_10 
REMARK    2  A    between atoms: C_16  and  C_17 
REMARK       I    between atoms: C_17  and  N_18 
REMARK    3  A    between atoms: N_18  and  C_19 
ROOT
HETATM    1  C   UNL     1       9.197  32.353  60.618  1.00  0.00     0.070 C 
HETATM    2  C   UNL     1       7.808  32.519  61.181  1.00  0.00     0.037 C 
HETATM    3  N   UNL     1       7.743  32.909  62.516  1.00  0.00    -0.191 N 
HETATM    4  C   UNL     1       6.600  32.887  63.232  1.00  0.00     0.735 A 
HETATM    5  N   UNL     1       5.423  32.599  62.602  1.00  0.00    -0.092 N 
HETATM    6  N   UNL     1       4.416  32.564  63.488  1.00  0.00     0.012 NA
HETATM    7  N   UNL     1       4.985  32.871  64.649  1.00  0.00     0.033 NA
HETATM    8  N   UNL     1       6.346  33.075  64.503  1.00  0.00     0.030 NA
HETATM    9  C   UNL     1       5.290  32.325  61.173  1.00  0.00     0.199 C 
HETATM   10  C   UNL     1       6.663  32.253  60.506  1.00  0.00     0.062 C 
HETATM   11  H   UNL     1       8.622  33.024  63.017  1.00  0.00     0.184 HD
ENDROOT
BRANCH  10  12
HETATM   12  C   UNL     1       6.621  31.766  59.101  1.00  0.00     0.256 C 
HETATM   13  N   UNL     1       6.951  30.437  58.969  1.00  0.00    -0.322 N 
HETATM   14  H   UNL     1       7.212  29.932  59.806  1.00  0.00     0.169 HD
HETATM   15  O   UNL     1       6.368  32.564  58.208  1.00  0.00    -0.267 OA
BRANCH  13  16
HETATM   16  C   UNL     1       6.969  29.695  57.768  1.00  0.00     0.052 A 
HETATM   17  C   UNL     1       5.885  29.004  57.234  1.00  0.00     0.145 A 
HETATM   18  N   UNL     1       5.933  28.284  56.084  1.00  0.00    -0.271 NA
HETATM   19  C   UNL     1       7.113  28.248  55.434  1.00  0.00     0.116 A 
HETATM   20  C   UNL     1       8.250  28.899  55.878  1.00  0.00     0.021 A 
HETATM   21  C   UNL     1       8.172  29.634  57.061  1.00  0.00     0.032 A 
ENDBRANCH  13  16
ENDBRANCH  10  12
BRANCH   9  22
HETATM   22  C   UNL     1       4.392  33.354  60.505  1.00  0.00    -0.011 A 
HETATM   23  C   UNL     1       3.220  33.002  59.839  1.00  0.00     0.125 A 
HETATM   24  N   UNL     1       2.367  33.890  59.282  1.00  0.00    -0.272 NA
HETATM   25  C   UNL     1       2.700  35.195  59.369  1.00  0.00     0.116 A 
HETATM   26  C   UNL     1       3.838  35.654  60.009  1.00  0.00     0.020 A 
HETATM   27  C   UNL     1       4.690  34.720  60.590  1.00  0.00     0.012 A 
ENDBRANCH   9  22
TORSDOF 3
ENDMDL
MODEL 6
REMARK VINA RESULT:      -7.8      2.581      5.624
REMARK  3 active torsions:
REMARK  status: ('A' for Active; 'I' for Inactive)
REMARK    1  A    between atoms: C_9  and  C_10 
REMARK    2  A    between atoms: C_16  and  C_17 
REMARK       I    between atoms: C_17  and  N_18 
REMARK    3  A    between atoms: N_18  and  C_19 
ROOT
HETATM    1  C   UNL     1       3.485  29.969  53.830  1.00  0.00     0.070 C 
HETATM    2  C   UNL     1       4.717  29.204  54.245  1.00  0.00     0.037 C 
HETATM    3  N   UNL     1       4.994  29.205  55.609  1.00  0.00    -0.191 N 
HETATM    4  C   UNL     1       6.162  28.765  56.120  1.00  0.00     0.735 A 
HETATM    5  N   UNL     1       7.071  28.168  55.292  1.00  0.00    -0.092 N 
HETATM    6  N   UNL     1       8.186  27.860  55.970  1.00  0.00     0.012 NA
HETATM    7  N   UNL     1       7.930  28.236  57.219  1.00  0.00     0.033 NA
HETATM    8  N   UNL     1       6.673  28.802  57.326  1.00  0.00     0.030 NA
HETATM    9  C   UNL     1       6.870  27.941  53.863  1.00  0.00     0.199 C 
HETATM   10  C   UNL     1       5.574  28.597  53.388  1.00  0.00     0.062 C 
HETATM   11  H   UNL     1       4.373  29.737  56.215  1.00  0.00     0.184 HD
ENDROOT
BRANCH  10  12
HETATM   12  C   UNL     1       5.409  28.594  51.910  1.00  0.00     0.256 C 
HETATM   13  N   UNL     1       4.496  27.668  51.460  1.00  0.00    -0.322 N 
HETATM   14  H   UNL     1       4.052  27.072  52.147  1.00  0.00     0.169 HD
HETATM   15  O   UNL     1       6.111  29.336  51.236  1.00  0.00    -0.267 OA
BRANCH  13  16
HETATM   16  C   UNL     1       4.110  27.457  50.119  1.00  0.00     0.052 A 
HETATM   17  C   UNL     1       3.257  28.279  49.388  1.00  0.00     0.145 A 
HETATM   18  N   UNL     1       2.890  28.045  48.102  1.00  0.00    -0.271 NA
HETATM   19  C   UNL     1       3.392  26.942  47.514  1.00  0.00     0.116 A 
HETATM   20  C   UNL     1       4.247  26.059  48.150  1.00  0.00     0.021 A 
HETATM   21  C   UNL     1       4.611  26.325  49.470  1.00  0.00     0.032 A 
ENDBRANCH  13  16
ENDBRANCH  10  12
BRANCH   9  22
HETATM   22  C   UNL     1       6.901  26.456  53.541  1.00  0.00    -0.011 A 
HETATM   23  C   UNL     1       5.980  25.557  54.077  1.00  0.00     0.125 A 
HETATM   24  N   UNL     1       5.939  24.241  53.773  1.00  0.00    -0.272 NA
HETATM   25  C   UNL     1       6.869  23.784  52.908  1.00  0.00     0.116 A 
HETATM   26  C   UNL     1       7.827  24.589  52.316  1.00  0.00     0.020 A 
HETATM   27  C   UNL     1       7.837  25.943  52.633  1.00  0.00     0.012 A 
ENDBRANCH   9  22
TORSDOF 3
ENDMDL
MODEL 7
REMARK VINA RESULT:      -7.7      3.531      8.122
REMARK  3 active torsions:
REMARK  status: ('A' for Active; 'I' for Inactive)
REMARK    1  A    between atoms: C_9  and  C_10 
REMARK    2  A    between atoms: C_16  and  C_17 
REMARK       I    between atoms: C_17  and  N_18 
REMARK    3  A    between atoms: N_18  and  C_19 
ROOT
HETATM    1  C   UNL     1       4.234  28.566  54.709  1.00  0.00     0.070 C 
HETATM    2  C   UNL     1       5.380  28.100  55.571  1.00  0.00     0.037 C 
HETATM    3  N   UNL     1       5.786  26.784  55.371  1.00  0.00    -0.191 N 
HETATM    4  C   UNL     1       6.637  26.145  56.201  1.00  0.00     0.735 A 
HETATM    5  N   UNL     1       7.237  26.844  57.210  1.00  0.00    -0.092 N 
HETATM    6  N   UNL     1       7.991  26.025  57.959  1.00  0.00     0.012 NA
HETATM    7  N   UNL     1       7.875  24.837  57.373  1.00  0.00     0.033 NA
HETATM    8  N   UNL     1       7.033  24.899  56.278  1.00  0.00     0.030 NA
HETATM    9  C   UNL     1       7.048  28.270  57.461  1.00  0.00     0.199 C 
HETATM   10  C   UNL     1       5.970  28.843  56.540  1.00  0.00     0.062 C 
HETATM   11  H   UNL     1       5.270  26.229  54.691  1.00  0.00     0.184 HD
ENDROOT
BRANCH  10  12
HETATM   12  C   UNL     1       5.570  30.233  56.881  1.00  0.00     0.256 C 
HETATM   13  N   UNL     1       5.142  30.381  58.180  1.00  0.00    -0.322 N 
HETATM   14  H   UNL     1       5.111  29.553  58.762  1.00  0.00     0.169 HD
HETATM   15  O   UNL     1       5.592  31.086  56.003  1.00  0.00    -0.267 OA
BRANCH  13  16
HETATM   16  C   UNL     1       4.730  31.583  58.794  1.00  0.00     0.052 A 
HETATM   17  C   UNL     1       3.477  32.173  58.647  1.00  0.00     0.145 A 
HETATM   18  N   UNL     1       3.110  33.339  59.238  1.00  0.00    -0.271 NA
HETATM   19  C   UNL     1       4.031  33.949  60.011  1.00  0.00     0.116 A 
HETATM   20  C   UNL     1       5.303  33.448  60.223  1.00  0.00     0.021 A 
HETATM   21  C   UNL     1       5.653  32.247  59.607  1.00  0.00     0.032 A 
ENDBRANCH  13  16
ENDBRANCH  10  12
BRANCH   9  22
HETATM   22  C   UNL     1       8.361  29.023  57.327  1.00  0.00    -0.011 A 
HETATM   23  C   UNL     1       9.084  29.058  56.136  1.00  0.00     0.125 A 
HETATM   24  N   UNL     1      10.224  29.760  55.960  1.00  0.00    -0.272 NA
HETATM   25  C   UNL     1      10.688  30.450  57.024  1.00  0.00     0.116 A 
HETATM   26  C   UNL     1      10.049  30.486  58.251  1.00  0.00     0.020 A 
HETATM   27  C   UNL     1       8.867  29.768  58.400  1.00  0.00     0.012 A 
ENDBRANCH   9  22
TORSDOF 3
ENDMDL
MODEL 8
REMARK VINA RESULT:      -7.5      2.538      5.520
REMARK  3 active torsions:
REMARK  status: ('A' for Active; 'I' for Inactive)
REMARK    1  A    between atoms: C_9  and  C_10 
REMARK    2  A    between atoms: C_16  and  C_17 
REMARK       I    between atoms: C_17  and  N_18 
REMARK    3  A    between atoms: N_18  and  C_19 
ROOT
HETATM    1  C   UNL     1       3.723  30.504  56.043  1.00  0.00     0.070 C 
HETATM    2  C   UNL     1       5.035  29.790  56.253  1.00  0.00     0.037 C 
HETATM    3  N   UNL     1       5.695  30.082  57.443  1.00  0.00    -0.191 N 
HETATM    4  C   UNL     1       6.969  29.709  57.686  1.00  0.00     0.735 A 
HETATM    5  N   UNL     1       7.609  28.897  56.793  1.00  0.00    -0.092 N 
HETATM    6  N   UNL     1       8.877  28.692  57.176  1.00  0.00     0.012 NA
HETATM    7  N   UNL     1       8.988  29.352  58.325  1.00  0.00     0.033 NA
HETATM    8  N   UNL     1       7.806  29.990  58.653  1.00  0.00     0.030 NA
HETATM    9  C   UNL     1       7.007  28.366  55.573  1.00  0.00     0.199 C 
HETATM   10  C   UNL     1       5.618  28.963  55.350  1.00  0.00     0.062 C 
HETATM   11  H   UNL     1       5.267  30.768  58.063  1.00  0.00     0.184 HD
ENDROOT
BRANCH  10  12
HETATM   12  C   UNL     1       5.032  28.637  54.023  1.00  0.00     0.256 C 
HETATM   13  N   UNL     1       5.836  28.991  52.964  1.00  0.00    -0.322 N 
HETATM   14  H   UNL     1       6.713  29.453  53.173  1.00  0.00     0.169 HD
HETATM   15  O   UNL     1       3.907  28.157  53.975  1.00  0.00    -0.267 OA
BRANCH  13  16
HETATM   16  C   UNL     1       5.560  28.780  51.596  1.00  0.00     0.052 A 
HETATM   17  C   UNL     1       5.414  29.783  50.641  1.00  0.00     0.145 A 
HETATM   18  N   UNL     1       5.134  29.554  49.333  1.00  0.00    -0.271 NA
HETATM   19  C   UNL     1       4.989  28.269  48.954  1.00  0.00     0.116 A 
HETATM   20  C   UNL     1       5.113  27.198  49.822  1.00  0.00     0.021 A 
HETATM   21  C   UNL     1       5.406  27.462  51.160  1.00  0.00     0.032 A 
ENDBRANCH  13  16
ENDBRANCH  10  12
BRANCH   9  22
HETATM   22  C   UNL     1       6.968  26.847  55.605  1.00  0.00    -0.011 A 
HETATM   23  C   UNL     1       6.352  26.137  56.634  1.00  0.00     0.125 A 
HETATM   24  N   UNL     1       6.248  24.791  56.671  1.00  0.00    -0.272 NA
HETATM   25  C   UNL     1       6.798  24.106  55.646  1.00  0.00     0.116 A 
HETATM   26  C   UNL     1       7.430  24.709  54.573  1.00  0.00     0.020 A 
HETATM   27  C   UNL     1       7.509  26.098  54.551  1.00  0.00     0.012 A 
ENDBRANCH   9  22
TORSDOF 3
ENDMDL
MODEL 9
REMARK VINA RESULT:      -7.4      4.336      8.566
REMARK  3 active torsions:
REMARK  status: ('A' for Active; 'I' for Inactive)
REMARK    1  A    between atoms: C_9  and  C_10 
REMARK    2  A    between atoms: C_16  and  C_17 
REMARK       I    between atoms: C_17  and  N_18 
REMARK    3  A    between atoms: N_18  and  C_19 
ROOT
HETATM    1  C   UNL     1       3.625  30.998  55.942  1.00  0.00     0.070 C 
HETATM    2  C   UNL     1       4.693  30.014  56.350  1.00  0.00     0.037 C 
HETATM    3  N   UNL     1       4.619  28.762  55.747  1.00  0.00    -0.191 N 
HETATM    4  C   UNL     1       5.350  27.705  56.158  1.00  0.00     0.735 A 
HETATM    5  N   UNL     1       6.304  27.886  57.120  1.00  0.00    -0.092 N 
HETATM    6  N   UNL     1       6.874  26.715  57.437  1.00  0.00     0.012 NA
HETATM    7  N   UNL     1       6.288  25.832  56.634  1.00  0.00     0.033 NA
HETATM    8  N   UNL     1       5.336  26.437  55.833  1.00  0.00     0.030 NA
HETATM    9  C   UNL     1       6.623  29.168  57.743  1.00  0.00     0.199 C 
HETATM   10  C   UNL     1       5.645  30.250  57.288  1.00  0.00     0.062 C 
HETATM   11  H   UNL     1       3.845  28.592  55.107  1.00  0.00     0.184 HD
ENDROOT
BRANCH  10  12
HETATM   12  C   UNL     1       5.771  31.526  58.040  1.00  0.00     0.256 C 
HETATM   13  N   UNL     1       5.537  31.396  59.389  1.00  0.00    -0.322 N 
HETATM   14  H   UNL     1       5.279  30.480  59.736  1.00  0.00     0.169 HD
HETATM   15  O   UNL     1       6.003  32.557  57.420  1.00  0.00    -0.267 OA
BRANCH  13  16
HETATM   16  C   UNL     1       5.613  32.422  60.355  1.00  0.00     0.052 A 
HETATM   17  C   UNL     1       4.617  33.359  60.614  1.00  0.00     0.145 A 
HETATM   18  N   UNL     1       4.721  34.347  61.539  1.00  0.00    -0.271 NA
HETATM   19  C   UNL     1       5.870  34.409  62.241  1.00  0.00     0.116 A 
HETATM   20  C   UNL     1       6.923  33.528  62.062  1.00  0.00     0.021 A 
HETATM   21  C   UNL     1       6.787  32.520  61.107  1.00  0.00     0.032 A 
ENDBRANCH  13  16
ENDBRANCH  10  12
BRANCH   9  22
HETATM   22  C   UNL     1       8.065  29.561  57.466  1.00  0.00    -0.011 A 
HETATM   23  C   UNL     1       8.896  30.094  58.450  1.00  0.00     0.125 A 
HETATM   24  N   UNL     1      10.197  30.402  58.260  1.00  0.00    -0.272 NA
HETATM   25  C   UNL     1      10.701  30.192  57.025  1.00  0.00     0.116 A 
HETATM   26  C   UNL     1       9.967  29.667  55.977  1.00  0.00     0.020 A 
HETATM   27  C   UNL     1       8.633  29.341  56.205  1.00  0.00     0.012 A 
ENDBRANCH   9  22
TORSDOF 3
ENDMDL
MODEL 10
REMARK VINA RESULT:      -7.2      2.370      7.474
REMARK  3 active torsions:
REMARK  status: ('A' for Active; 'I' for Inactive)
REMARK    1  A    between atoms: C_9  and  C_10 
REMARK    2  A    between atoms: C_16  and  C_17 
REMARK       I    between atoms: C_17  and  N_18 
REMARK    3  A    between atoms: N_18  and  C_19 
ROOT
HETATM    1  C   UNL     1       4.931  27.793  52.101  1.00  0.00     0.070 C 
HETATM    2  C   UNL     1       5.767  27.240  53.228  1.00  0.00     0.037 C 
HETATM    3  N   UNL     1       6.626  26.200  52.885  1.00  0.00    -0.191 N 
HETATM    4  C   UNL     1       7.273  25.451  53.801  1.00  0.00     0.735 A 
HETATM    5  N   UNL     1       7.197  25.797  55.121  1.00  0.00    -0.092 N 
HETATM    6  N   UNL     1       7.848  24.900  55.876  1.00  0.00     0.012 NA
HETATM    7  N   UNL     1       8.351  24.033  55.002  1.00  0.00     0.033 NA
HETATM    8  N   UNL     1       7.999  24.365  53.707  1.00  0.00     0.030 NA
HETATM    9  C   UNL     1       6.471  26.955  55.637  1.00  0.00     0.199 C 
HETATM   10  C   UNL     1       5.681  27.639  54.521  1.00  0.00     0.062 C 
HETATM   11  H   UNL     1       6.607  25.872  51.921  1.00  0.00     0.184 HD
ENDROOT
BRANCH  10  12
HETATM   12  C   UNL     1       4.751  28.692  55.006  1.00  0.00     0.256 C 
HETATM   13  N   UNL     1       5.066  29.955  54.558  1.00  0.00    -0.322 N 
HETATM   14  H   UNL     1       5.891  30.057  53.980  1.00  0.00     0.169 HD
HETATM   15  O   UNL     1       3.856  28.379  55.780  1.00  0.00    -0.267 OA
BRANCH  13  16
HETATM   16  C   UNL     1       4.350  31.141  54.827  1.00  0.00     0.052 A 
HETATM   17  C   UNL     1       3.229  31.580  54.128  1.00  0.00     0.145 A 
HETATM   18  N   UNL     1       2.567  32.735  54.398  1.00  0.00    -0.271 NA
HETATM   19  C   UNL     1       3.042  33.490  55.408  1.00  0.00     0.116 A 
HETATM   20  C   UNL     1       4.148  33.145  56.166  1.00  0.00     0.021 A 
HETATM   21  C   UNL     1       4.807  31.952  55.869  1.00  0.00     0.032 A 
ENDBRANCH  13  16
ENDBRANCH  10  12
BRANCH   9  22
HETATM   22  C   UNL     1       7.416  27.921  56.333  1.00  0.00    -0.011 A 
HETATM   23  C   UNL     1       7.421  28.093  57.716  1.00  0.00     0.125 A 
HETATM   24  N   UNL     1       8.282  28.898  58.377  1.00  0.00    -0.272 NA
HETATM   25  C   UNL     1       9.172  29.586  57.630  1.00  0.00     0.116 A 
HETATM   26  C   UNL     1       9.255  29.488  56.252  1.00  0.00     0.020 A 
HETATM   27  C   UNL     1       8.368  28.638  55.598  1.00  0.00     0.012 A 
ENDBRANCH   9  22
TORSDOF 3
ENDMDL
