MODEL 1
REMARK VINA RESULT:      -8.8      0.000      0.000
REMARK  7 active torsions:
REMARK  status: ('A' for Active; 'I' for Inactive)
REMARK    1  A    between atoms: C_5  and  N_6 
REMARK    2  A    between atoms: N_6  and  C_9 
REMARK    3  A    between atoms: C_9  and  C_10 
REMARK    4  A    between atoms: C_10  and  C_11 
REMARK    5  A    between atoms: C_10  and  C_13 
REMARK    6  A    between atoms: C_11  and  O_12 
REMARK    7  A    between atoms: C_13  and  C_14 
ROOT
HETATM    1  N   UNL     1       6.828  24.851  56.471  1.00  0.00    -0.066 N 
HETATM    2  H   UNL     1       6.225  25.304  55.762  1.00  0.00     0.278 HD
HETATM    3  H   UNL     1       6.303  24.013  56.790  1.00  0.00     0.278 HD
ENDROOT
BRANCH   1   4
HETATM    4  C   UNL     1       8.105  24.403  55.869  1.00  0.00     0.220 C 
HETATM    5  C   UNL     1       8.187  22.912  55.772  1.00  0.00    -0.021 A 
HETATM    6  C   UNL     1       8.020  22.467  54.452  1.00  0.00    -0.040 A 
HETATM    7  C   UNL     1       8.382  22.019  56.816  1.00  0.00     0.010 A 
HETATM    8  C   UNL     1       8.068  21.108  54.147  1.00  0.00    -0.055 A 
HETATM    9  C   UNL     1       7.797  23.627  53.520  1.00  0.00     0.018 C 
HETATM   10  C   UNL     1       7.881  20.585  52.754  1.00  0.00     0.049 C 
HETATM   11  C   UNL     1       8.253  20.208  55.207  1.00  0.00     0.007 A 
HETATM   12  C   UNL     1       8.412  20.657  56.525  1.00  0.00     0.001 A 
HETATM   13  C   UNL     1       8.216  24.832  54.397  1.00  0.00     0.047 C 
HETATM   14  C   UNL     1       6.354  23.717  53.038  1.00  0.00     0.015 C 
ENDBRANCH   1   4
BRANCH   1  15
HETATM   15  C   UNL     1       6.925  25.768  57.640  1.00  0.00     0.240 C 
BRANCH  15  16
HETATM   16  C   UNL     1       6.750  27.237  57.203  1.00  0.00     0.040 C 
BRANCH  16  17
HETATM   17  C   UNL     1       5.543  27.362  56.260  1.00  0.00     0.170 C 
BRANCH  17  18
HETATM   18  O   UNL     1       4.431  26.663  56.825  1.00  0.00    -0.400 OA
HETATM   19  H   UNL     1       4.116  27.209  57.575  1.00  0.00     0.209 HD
ENDBRANCH  17  18
ENDBRANCH  16  17
BRANCH  16  20
HETATM   20  C   UNL     1       7.990  27.854  56.518  1.00  0.00     0.067 C 
BRANCH  20  21
HETATM   21  C   UNL     1       8.640  28.944  57.327  1.00  0.00     0.034 A 
HETATM   22  N   UNL     1       8.036  29.264  58.502  1.00  0.00    -0.266 NA
HETATM   23  C   UNL     1       8.629  30.237  59.240  1.00  0.00     0.117 A 
HETATM   24  C   UNL     1       9.779  30.909  58.861  1.00  0.00     0.019 A 
HETATM   25  C   UNL     1      10.369  30.568  57.653  1.00  0.00     0.003 A 
HETATM   26  C   UNL     1       9.795  29.572  56.870  1.00  0.00     0.027 A 
ENDBRANCH  20  21
ENDBRANCH  16  20
ENDBRANCH  15  16
ENDBRANCH   1  15
TORSDOF 7
ENDMDL
MODEL 2
REMARK VINA RESULT:      -8.6      2.416      3.880
REMARK  7 active torsions:
REMARK  status: ('A' for Active; 'I' for Inactive)
REMARK    1  A    between atoms: C_5  and  N_6 
REMARK    2  A    between atoms: N_6  and  C_9 
REMARK    3  A    between atoms: C_9  and  C_10 
REMARK    4  A    between atoms: C_10  and  C_11 
REMARK    5  A    between atoms: C_10  and  C_13 
REMARK    6  A    between atoms: C_11  and  O_12 
REMARK    7  A    between atoms: C_13  and  C_14 
ROOT
HETATM    1  N   UNL     1       7.874  25.030  53.363  1.00  0.00    -0.066 N 
HETATM    2  H   UNL     1       8.174  25.708  54.085  1.00  0.00     0.278 HD
HETATM    3  H   UNL     1       8.736  24.527  53.074  1.00  0.00     0.278 HD
ENDROOT
BRANCH   1   4
HETATM    4  C   UNL     1       6.923  24.044  53.927  1.00  0.00     0.220 C 
HETATM    5  C   UNL     1       7.503  22.665  53.968  1.00  0.00    -0.021 A 
HETATM    6  C   UNL     1       7.851  22.286  55.273  1.00  0.00    -0.040 A 
HETATM    7  C   UNL     1       7.718  21.819  52.889  1.00  0.00     0.010 A 
HETATM    8  C   UNL     1       8.404  21.033  55.528  1.00  0.00    -0.055 A 
HETATM    9  C   UNL     1       7.544  23.388  56.251  1.00  0.00     0.018 C 
HETATM   10  C   UNL     1       8.804  20.589  56.904  1.00  0.00     0.049 C 
HETATM   11  C   UNL     1       8.631  20.185  54.433  1.00  0.00     0.007 A 
HETATM   12  C   UNL     1       8.290  20.571  53.130  1.00  0.00     0.001 A 
HETATM   13  C   UNL     1       6.637  24.321  55.412  1.00  0.00     0.047 C 
HETATM   14  C   UNL     1       8.802  24.082  56.759  1.00  0.00     0.015 C 
ENDBRANCH   1   4
BRANCH   1  15
HETATM   15  C   UNL     1       7.410  25.802  52.177  1.00  0.00     0.240 C 
BRANCH  15  16
HETATM   16  C   UNL     1       6.117  26.580  52.500  1.00  0.00     0.040 C 
BRANCH  16  17
HETATM   17  C   UNL     1       5.293  26.780  51.218  1.00  0.00     0.170 C 
BRANCH  17  18
HETATM   18  O   UNL     1       4.611  25.564  50.903  1.00  0.00    -0.400 OA
HETATM   19  H   UNL     1       3.998  25.777  50.168  1.00  0.00     0.209 HD
ENDBRANCH  17  18
ENDBRANCH  16  17
BRANCH  16  20
HETATM   20  C   UNL     1       6.345  27.952  53.172  1.00  0.00     0.067 C 
BRANCH  20  21
HETATM   21  C   UNL     1       6.503  27.868  54.666  1.00  0.00     0.034 A 
HETATM   22  N   UNL     1       7.779  27.825  55.135  1.00  0.00    -0.266 NA
HETATM   23  C   UNL     1       7.925  27.764  56.483  1.00  0.00     0.117 A 
HETATM   24  C   UNL     1       6.870  27.733  57.379  1.00  0.00     0.019 A 
HETATM   25  C   UNL     1       5.579  27.770  56.873  1.00  0.00     0.003 A 
HETATM   26  C   UNL     1       5.387  27.838  55.497  1.00  0.00     0.027 A 
ENDBRANCH  20  21
ENDBRANCH  16  20
ENDBRANCH  15  16
ENDBRANCH   1  15
TORSDOF 7
ENDMDL
MODEL 3
REMARK VINA RESULT:      -8.3      3.699      6.326
REMARK  7 active torsions:
REMARK  status: ('A' for Active; 'I' for Inactive)
REMARK    1  A    between atoms: C_5  and  N_6 
REMARK    2  A    between atoms: N_6  and  C_9 
REMARK    3  A    between atoms: C_9  and  C_10 
REMARK    4  A    between atoms: C_10  and  C_11 
REMARK    5  A    between atoms: C_10  and  C_13 
REMARK    6  A    between atoms: C_11  and  O_12 
REMARK    7  A    between atoms: C_13  and  C_14 
ROOT
HETATM    1  N   UNL     1       7.677  25.369  53.766  1.00  0.00    -0.066 N 
HETATM    2  H   UNL     1       7.558  26.239  54.313  1.00  0.00     0.278 HD
HETATM    3  H   UNL     1       8.658  25.068  53.927  1.00  0.00     0.278 HD
ENDROOT
BRANCH   1   4
HETATM    4  C   UNL     1       6.774  24.305  54.262  1.00  0.00     0.220 C 
HETATM    5  C   UNL     1       7.379  22.944  54.121  1.00  0.00    -0.021 A 
HETATM    6  C   UNL     1       7.800  22.430  55.356  1.00  0.00    -0.040 A 
HETATM    7  C   UNL     1       7.553  22.228  52.944  1.00  0.00     0.010 A 
HETATM    8  C   UNL     1       8.387  21.169  55.441  1.00  0.00    -0.055 A 
HETATM    9  C   UNL     1       7.525  23.410  56.465  1.00  0.00     0.018 C 
HETATM   10  C   UNL     1       8.865  20.586  56.738  1.00  0.00     0.049 C 
HETATM   11  C   UNL     1       8.572  20.454  54.248  1.00  0.00     0.007 A 
HETATM   12  C   UNL     1       8.157  20.974  53.015  1.00  0.00     0.001 A 
HETATM   13  C   UNL     1       6.561  24.409  55.781  1.00  0.00     0.047 C 
HETATM   14  C   UNL     1       8.795  24.072  56.984  1.00  0.00     0.015 C 
ENDBRANCH   1   4
BRANCH   1  15
HETATM   15  C   UNL     1       7.566  25.719  52.323  1.00  0.00     0.240 C 
BRANCH  15  16
HETATM   16  C   UNL     1       6.601  26.905  52.118  1.00  0.00     0.040 C 
BRANCH  16  17
HETATM   17  C   UNL     1       6.429  27.674  53.437  1.00  0.00     0.170 C 
BRANCH  17  18
HETATM   18  O   UNL     1       7.560  28.524  53.637  1.00  0.00    -0.400 OA
HETATM   19  H   UNL     1       7.533  28.799  54.578  1.00  0.00     0.209 HD
ENDBRANCH  17  18
ENDBRANCH  16  17
BRANCH  16  20
HETATM   20  C   UNL     1       5.208  26.513  51.577  1.00  0.00     0.067 C 
BRANCH  20  21
HETATM   21  C   UNL     1       4.994  26.896  50.138  1.00  0.00     0.034 A 
HETATM   22  N   UNL     1       5.472  28.113  49.762  1.00  0.00    -0.266 NA
HETATM   23  C   UNL     1       5.293  28.454  48.460  1.00  0.00     0.117 A 
HETATM   24  C   UNL     1       4.655  27.655  47.527  1.00  0.00     0.019 A 
HETATM   25  C   UNL     1       4.169  26.424  47.941  1.00  0.00     0.003 A 
HETATM   26  C   UNL     1       4.338  26.033  49.265  1.00  0.00     0.027 A 
ENDBRANCH  20  21
ENDBRANCH  16  20
ENDBRANCH  15  16
ENDBRANCH   1  15
TORSDOF 7
ENDMDL
MODEL 4
REMARK VINA RESULT:      -8.3      1.558      2.726
REMARK  7 active torsions:
REMARK  status: ('A' for Active; 'I' for Inactive)
REMARK    1  A    between atoms: C_5  and  N_6 
REMARK    2  A    between atoms: N_6  and  C_9 
REMARK    3  A    between atoms: C_9  and  C_10 
REMARK    4  A    between atoms: C_10  and  C_11 
REMARK    5  A    between atoms: C_10  and  C_13 
REMARK    6  A    between atoms: C_11  and  O_12 
REMARK    7  A    between atoms: C_13  and  C_14 
ROOT
HETATM    1  N   UNL     1       7.141  26.798  55.338  1.00  0.00    -0.066 N 
HETATM    2  H   UNL     1       7.891  26.826  56.051  1.00  0.00     0.278 HD
HETATM    3  H   UNL     1       7.624  26.861  54.421  1.00  0.00     0.278 HD
ENDROOT
BRANCH   1   4
HETATM    4  C   UNL     1       6.405  25.514  55.394  1.00  0.00     0.220 C 
HETATM    5  C   UNL     1       7.053  24.459  54.553  1.00  0.00    -0.021 A 
HETATM    6  C   UNL     1       7.719  23.505  55.336  1.00  0.00    -0.040 A 
HETATM    7  C   UNL     1       7.053  24.383  53.167  1.00  0.00     0.010 A 
HETATM    8  C   UNL     1       8.384  22.434  54.743  1.00  0.00    -0.055 A 
HETATM    9  C   UNL     1       7.592  23.831  56.800  1.00  0.00     0.018 C 
HETATM   10  C   UNL     1       9.122  21.398  55.539  1.00  0.00     0.049 C 
HETATM   11  C   UNL     1       8.393  22.367  53.341  1.00  0.00     0.007 A 
HETATM   12  C   UNL     1       7.732  23.327  52.563  1.00  0.00     0.001 A 
HETATM   13  C   UNL     1       6.464  24.891  56.799  1.00  0.00     0.047 C 
HETATM   14  C   UNL     1       8.895  24.352  57.395  1.00  0.00     0.015 C 
ENDBRANCH   1   4
BRANCH   1  15
HETATM   15  C   UNL     1       6.329  28.039  55.482  1.00  0.00     0.240 C 
BRANCH  15  16
HETATM   16  C   UNL     1       6.275  28.492  56.956  1.00  0.00     0.040 C 
BRANCH  16  17
HETATM   17  C   UNL     1       6.085  30.015  57.029  1.00  0.00     0.170 C 
BRANCH  17  18
HETATM   18  O   UNL     1       5.442  30.350  58.260  1.00  0.00    -0.400 OA
HETATM   19  H   UNL     1       6.018  30.003  58.973  1.00  0.00     0.209 HD
ENDBRANCH  17  18
ENDBRANCH  16  17
BRANCH  16  20
HETATM   20  C   UNL     1       7.511  28.098  57.794  1.00  0.00     0.067 C 
BRANCH  20  21
HETATM   21  C   UNL     1       8.605  29.131  57.773  1.00  0.00     0.034 A 
HETATM   22  N   UNL     1       8.576  30.058  58.769  1.00  0.00    -0.266 NA
HETATM   23  C   UNL     1       9.570  30.982  58.761  1.00  0.00     0.117 A 
HETATM   24  C   UNL     1      10.575  31.036  57.810  1.00  0.00     0.019 A 
HETATM   25  C   UNL     1      10.574  30.084  56.801  1.00  0.00     0.003 A 
HETATM   26  C   UNL     1       9.577  29.115  56.777  1.00  0.00     0.027 A 
ENDBRANCH  20  21
ENDBRANCH  16  20
ENDBRANCH  15  16
ENDBRANCH   1  15
TORSDOF 7
ENDMDL
MODEL 5
REMARK VINA RESULT:      -8.2      1.759      3.120
REMARK  7 active torsions:
REMARK  status: ('A' for Active; 'I' for Inactive)
REMARK    1  A    between atoms: C_5  and  N_6 
REMARK    2  A    between atoms: N_6  and  C_9 
REMARK    3  A    between atoms: C_9  and  C_10 
REMARK    4  A    between atoms: C_10  and  C_11 
REMARK    5  A    between atoms: C_10  and  C_13 
REMARK    6  A    between atoms: C_11  and  O_12 
REMARK    7  A    between atoms: C_13  and  C_14 
ROOT
HETATM    1  N   UNL     1       7.667  27.039  55.994  1.00  0.00    -0.066 N 
HETATM    2  H   UNL     1       8.602  26.735  55.671  1.00  0.00     0.278 HD
HETATM    3  H   UNL     1       7.515  27.975  55.569  1.00  0.00     0.278 HD
ENDROOT
BRANCH   1   4
HETATM    4  C   UNL     1       6.613  26.124  55.500  1.00  0.00     0.220 C 
HETATM    5  C   UNL     1       7.059  25.349  54.300  1.00  0.00    -0.021 A 
HETATM    6  C   UNL     1       7.335  24.011  54.617  1.00  0.00    -0.040 A 
HETATM    7  C   UNL     1       7.222  25.834  53.009  1.00  0.00     0.010 A 
HETATM    8  C   UNL     1       7.760  23.119  53.635  1.00  0.00    -0.055 A 
HETATM    9  C   UNL     1       7.107  23.750  56.081  1.00  0.00     0.018 C 
HETATM   10  C   UNL     1       8.080  21.683  53.929  1.00  0.00     0.049 C 
HETATM   11  C   UNL     1       7.936  23.616  52.334  1.00  0.00     0.007 A 
HETATM   12  C   UNL     1       7.667  24.955  52.024  1.00  0.00     0.001 A 
HETATM   13  C   UNL     1       6.315  25.007  56.515  1.00  0.00     0.047 C 
HETATM   14  C   UNL     1       8.411  23.575  56.850  1.00  0.00     0.015 C 
ENDBRANCH   1   4
BRANCH   1  15
HETATM   15  C   UNL     1       7.738  27.243  57.468  1.00  0.00     0.240 C 
BRANCH  15  16
HETATM   16  C   UNL     1       7.481  28.720  57.830  1.00  0.00     0.040 C 
BRANCH  16  17
HETATM   17  C   UNL     1       6.343  29.283  56.963  1.00  0.00     0.170 C 
BRANCH  17  18
HETATM   18  O   UNL     1       6.900  29.908  55.805  1.00  0.00    -0.400 OA
HETATM   19  H   UNL     1       7.874  29.850  55.904  1.00  0.00     0.209 HD
ENDBRANCH  17  18
ENDBRANCH  16  17
BRANCH  16  20
HETATM   20  C   UNL     1       8.716  29.638  57.698  1.00  0.00     0.067 C 
BRANCH  20  21
HETATM   21  C   UNL     1       9.001  30.443  58.937  1.00  0.00     0.034 A 
HETATM   22  N   UNL     1       8.547  29.924  60.109  1.00  0.00    -0.266 NA
HETATM   23  C   UNL     1       8.815  30.641  61.230  1.00  0.00     0.117 A 
HETATM   24  C   UNL     1       9.498  31.846  61.238  1.00  0.00     0.019 A 
HETATM   25  C   UNL     1       9.941  32.356  60.027  1.00  0.00     0.003 A 
HETATM   26  C   UNL     1       9.692  31.649  58.856  1.00  0.00     0.027 A 
ENDBRANCH  20  21
ENDBRANCH  16  20
ENDBRANCH  15  16
ENDBRANCH   1  15
TORSDOF 7
ENDMDL
MODEL 6
REMARK VINA RESULT:      -7.9      4.943      8.528
REMARK  7 active torsions:
REMARK  status: ('A' for Active; 'I' for Inactive)
REMARK    1  A    between atoms: C_5  and  N_6 
REMARK    2  A    between atoms: N_6  and  C_9 
REMARK    3  A    between atoms: C_9  and  C_10 
REMARK    4  A    between atoms: C_10  and  C_11 
REMARK    5  A    between atoms: C_10  and  C_13 
REMARK    6  A    between atoms: C_11  and  O_12 
REMARK    7  A    between atoms: C_13  and  C_14 
ROOT
HETATM    1  N   UNL     1       5.194  25.978  50.961  1.00  0.00    -0.066 N 
HETATM    2  H   UNL     1       4.443  26.279  51.607  1.00  0.00     0.278 HD
HETATM    3  H   UNL     1       4.930  25.022  50.652  1.00  0.00     0.278 HD
ENDROOT
BRANCH   1   4
HETATM    4  C   UNL     1       5.250  26.857  49.771  1.00  0.00     0.220 C 
HETATM    5  C   UNL     1       3.990  26.794  48.966  1.00  0.00    -0.021 A 
HETATM    6  C   UNL     1       3.211  27.949  49.128  1.00  0.00    -0.040 A 
HETATM    7  C   UNL     1       3.570  25.747  48.156  1.00  0.00     0.010 A 
HETATM    8  C   UNL     1       1.998  28.090  48.458  1.00  0.00    -0.055 A 
HETATM    9  C   UNL     1       3.873  28.913  50.075  1.00  0.00     0.018 C 
HETATM   10  C   UNL     1       1.125  29.301  48.611  1.00  0.00     0.049 C 
HETATM   11  C   UNL     1       1.571  27.025  47.650  1.00  0.00     0.007 A 
HETATM   12  C   UNL     1       2.348  25.869  47.498  1.00  0.00     0.001 A 
HETATM   13  C   UNL     1       5.308  28.341  50.167  1.00  0.00     0.047 C 
HETATM   14  C   UNL     1       3.171  28.975  51.426  1.00  0.00     0.015 C 
ENDBRANCH   1   4
BRANCH   1  15
HETATM   15  C   UNL     1       6.449  25.842  51.751  1.00  0.00     0.240 C 
BRANCH  15  16
HETATM   16  C   UNL     1       6.293  24.772  52.851  1.00  0.00     0.040 C 
BRANCH  16  17
HETATM   17  C   UNL     1       5.218  25.208  53.858  1.00  0.00     0.170 C 
BRANCH  17  18
HETATM   18  O   UNL     1       3.924  24.955  53.304  1.00  0.00    -0.400 OA
HETATM   19  H   UNL     1       3.292  25.006  54.052  1.00  0.00     0.209 HD
ENDBRANCH  17  18
ENDBRANCH  16  17
BRANCH  16  20
HETATM   20  C   UNL     1       7.594  24.442  53.614  1.00  0.00     0.067 C 
BRANCH  20  21
HETATM   21  C   UNL     1       7.729  22.985  53.969  1.00  0.00     0.034 A 
HETATM   22  N   UNL     1       7.668  22.680  55.293  1.00  0.00    -0.266 NA
HETATM   23  C   UNL     1       7.774  21.366  55.615  1.00  0.00     0.117 A 
HETATM   24  C   UNL     1       7.949  20.351  54.690  1.00  0.00     0.019 A 
HETATM   25  C   UNL     1       8.017  20.691  53.347  1.00  0.00     0.003 A 
HETATM   26  C   UNL     1       7.906  22.027  52.975  1.00  0.00     0.027 A 
ENDBRANCH  20  21
ENDBRANCH  16  20
ENDBRANCH  15  16
ENDBRANCH   1  15
TORSDOF 7
ENDMDL
MODEL 7
REMARK VINA RESULT:      -7.7      4.502      7.297
REMARK  7 active torsions:
REMARK  status: ('A' for Active; 'I' for Inactive)
REMARK    1  A    between atoms: C_5  and  N_6 
REMARK    2  A    between atoms: N_6  and  C_9 
REMARK    3  A    between atoms: C_9  and  C_10 
REMARK    4  A    between atoms: C_10  and  C_11 
REMARK    5  A    between atoms: C_10  and  C_13 
REMARK    6  A    between atoms: C_11  and  O_12 
REMARK    7  A    between atoms: C_13  and  C_14 
ROOT
HETATM    1  N   UNL     1       6.460  25.710  52.163  1.00  0.00    -0.066 N 
HETATM    2  H   UNL     1       6.824  26.545  52.653  1.00  0.00     0.278 HD
HETATM    3  H   UNL     1       7.275  25.298  51.668  1.00  0.00     0.278 HD
ENDROOT
BRANCH   1   4
HETATM    4  C   UNL     1       5.946  24.712  53.129  1.00  0.00     0.220 C 
HETATM    5  C   UNL     1       7.035  23.836  53.664  1.00  0.00    -0.021 A 
HETATM    6  C   UNL     1       7.365  24.166  54.987  1.00  0.00    -0.040 A 
HETATM    7  C   UNL     1       7.694  22.819  52.987  1.00  0.00     0.010 A 
HETATM    8  C   UNL     1       8.355  23.463  55.670  1.00  0.00    -0.055 A 
HETATM    9  C   UNL     1       6.529  25.316  55.477  1.00  0.00     0.018 C 
HETATM   10  C   UNL     1       8.753  23.789  57.080  1.00  0.00     0.049 C 
HETATM   11  C   UNL     1       9.028  22.444  54.978  1.00  0.00     0.007 A 
HETATM   12  C   UNL     1       8.700  22.123  53.655  1.00  0.00     0.001 A 
HETATM   13  C   UNL     1       5.414  25.384  54.406  1.00  0.00     0.047 C 
HETATM   14  C   UNL     1       7.326  26.610  55.588  1.00  0.00     0.015 C 
ENDBRANCH   1   4
BRANCH   1  15
HETATM   15  C   UNL     1       5.510  26.175  51.114  1.00  0.00     0.240 C 
BRANCH  15  16
HETATM   16  C   UNL     1       5.569  27.709  50.961  1.00  0.00     0.040 C 
BRANCH  16  17
HETATM   17  C   UNL     1       4.550  28.368  51.904  1.00  0.00     0.170 C 
BRANCH  17  18
HETATM   18  O   UNL     1       3.632  27.378  52.371  1.00  0.00    -0.400 OA
HETATM   19  H   UNL     1       3.892  27.177  53.295  1.00  0.00     0.209 HD
ENDBRANCH  17  18
ENDBRANCH  16  17
BRANCH  16  20
HETATM   20  C   UNL     1       5.329  28.220  49.524  1.00  0.00     0.067 C 
BRANCH  20  21
HETATM   21  C   UNL     1       4.159  27.563  48.841  1.00  0.00     0.034 A 
HETATM   22  N   UNL     1       4.439  26.458  48.098  1.00  0.00    -0.266 NA
HETATM   23  C   UNL     1       3.383  25.856  47.494  1.00  0.00     0.117 A 
HETATM   24  C   UNL     1       2.076  26.304  47.582  1.00  0.00     0.019 A 
HETATM   25  C   UNL     1       1.822  27.438  48.339  1.00  0.00     0.003 A 
HETATM   26  C   UNL     1       2.875  28.081  48.980  1.00  0.00     0.027 A 
ENDBRANCH  20  21
ENDBRANCH  16  20
ENDBRANCH  15  16
ENDBRANCH   1  15
TORSDOF 7
ENDMDL
MODEL 8
REMARK VINA RESULT:      -7.6      5.064     10.877
REMARK  7 active torsions:
REMARK  status: ('A' for Active; 'I' for Inactive)
REMARK    1  A    between atoms: C_5  and  N_6 
REMARK    2  A    between atoms: N_6  and  C_9 
REMARK    3  A    between atoms: C_9  and  C_10 
REMARK    4  A    between atoms: C_10  and  C_11 
REMARK    5  A    between atoms: C_10  and  C_13 
REMARK    6  A    between atoms: C_11  and  O_12 
REMARK    7  A    between atoms: C_13  and  C_14 
ROOT
HETATM    1  N   UNL     1       7.087  32.986  60.876  1.00  0.00    -0.066 N 
HETATM    2  H   UNL     1       6.555  33.054  59.991  1.00  0.00     0.278 HD
HETATM    3  H   UNL     1       7.166  33.959  61.231  1.00  0.00     0.278 HD
ENDROOT
BRANCH   1   4
HETATM    4  C   UNL     1       6.350  32.180  61.875  1.00  0.00     0.220 C 
HETATM    5  C   UNL     1       6.351  32.824  63.226  1.00  0.00    -0.021 A 
HETATM    6  C   UNL     1       5.103  33.384  63.537  1.00  0.00    -0.040 A 
HETATM    7  C   UNL     1       7.421  32.911  64.107  1.00  0.00     0.010 A 
HETATM    8  C   UNL     1       4.894  34.028  64.755  1.00  0.00    -0.055 A 
HETATM    9  C   UNL     1       4.128  33.179  62.409  1.00  0.00     0.018 C 
HETATM   10  C   UNL     1       3.582  34.654  65.124  1.00  0.00     0.049 C 
HETATM   11  C   UNL     1       5.982  34.125  65.637  1.00  0.00     0.007 A 
HETATM   12  C   UNL     1       7.228  33.570  65.319  1.00  0.00     0.001 A 
HETATM   13  C   UNL     1       4.849  32.112  61.550  1.00  0.00     0.047 C 
HETATM   14  C   UNL     1       3.845  34.465  61.643  1.00  0.00     0.015 C 
ENDBRANCH   1   4
BRANCH   1  15
HETATM   15  C   UNL     1       8.468  32.538  60.544  1.00  0.00     0.240 C 
BRANCH  15  16
HETATM   16  C   UNL     1       8.567  30.998  60.571  1.00  0.00     0.040 C 
BRANCH  16  17
HETATM   17  C   UNL     1       9.539  30.555  61.676  1.00  0.00     0.170 C 
BRANCH  17  18
HETATM   18  O   UNL     1       8.973  29.449  62.383  1.00  0.00    -0.400 OA
HETATM   19  H   UNL     1       9.690  29.088  62.946  1.00  0.00     0.209 HD
ENDBRANCH  17  18
ENDBRANCH  16  17
BRANCH  16  20
HETATM   20  C   UNL     1       9.001  30.360  59.233  1.00  0.00     0.067 C 
BRANCH  20  21
HETATM   21  C   UNL     1       7.872  29.701  58.488  1.00  0.00     0.034 A 
HETATM   22  N   UNL     1       8.035  28.385  58.187  1.00  0.00    -0.266 NA
HETATM   23  C   UNL     1       7.011  27.786  57.528  1.00  0.00     0.117 A 
HETATM   24  C   UNL     1       5.847  28.431  57.147  1.00  0.00     0.019 A 
HETATM   25  C   UNL     1       5.711  29.776  57.459  1.00  0.00     0.003 A 
HETATM   26  C   UNL     1       6.735  30.426  58.140  1.00  0.00     0.027 A 
ENDBRANCH  20  21
ENDBRANCH  16  20
ENDBRANCH  15  16
ENDBRANCH   1  15
TORSDOF 7
ENDMDL
MODEL 9
REMARK VINA RESULT:      -7.6      8.978     12.758
REMARK  7 active torsions:
REMARK  status: ('A' for Active; 'I' for Inactive)
REMARK    1  A    between atoms: C_5  and  N_6 
REMARK    2  A    between atoms: N_6  and  C_9 
REMARK    3  A    between atoms: C_9  and  C_10 
REMARK    4  A    between atoms: C_10  and  C_11 
REMARK    5  A    between atoms: C_10  and  C_13 
REMARK    6  A    between atoms: C_11  and  O_12 
REMARK    7  A    between atoms: C_13  and  C_14 
ROOT
HETATM    1  N   UNL     1       5.282  33.858  64.489  1.00  0.00    -0.066 N 
HETATM    2  H   UNL     1       4.406  34.409  64.501  1.00  0.00     0.278 HD
HETATM    3  H   UNL     1       5.002  32.895  64.217  1.00  0.00     0.278 HD
ENDROOT
BRANCH   1   4
HETATM    4  C   UNL     1       6.221  34.379  63.469  1.00  0.00     0.220 C 
HETATM    5  C   UNL     1       6.967  33.280  62.780  1.00  0.00    -0.021 A 
HETATM    6  C   UNL     1       6.497  33.069  61.476  1.00  0.00    -0.040 A 
HETATM    7  C   UNL     1       7.993  32.510  63.310  1.00  0.00     0.010 A 
HETATM    8  C   UNL     1       7.065  32.090  60.662  1.00  0.00    -0.055 A 
HETATM    9  C   UNL     1       5.367  34.010  61.155  1.00  0.00     0.018 C 
HETATM   10  C   UNL     1       6.585  31.820  59.267  1.00  0.00     0.049 C 
HETATM   11  C   UNL     1       8.093  31.306  61.207  1.00  0.00     0.007 A 
HETATM   12  C   UNL     1       8.555  31.515  62.513  1.00  0.00     0.001 A 
HETATM   13  C   UNL     1       5.473  35.044  62.302  1.00  0.00     0.047 C 
HETATM   14  C   UNL     1       4.017  33.305  61.115  1.00  0.00     0.015 C 
ENDBRANCH   1   4
BRANCH   1  15
HETATM   15  C   UNL     1       5.791  33.779  65.886  1.00  0.00     0.240 C 
BRANCH  15  16
HETATM   16  C   UNL     1       4.692  34.174  66.894  1.00  0.00     0.040 C 
BRANCH  16  17
HETATM   17  C   UNL     1       3.458  34.700  66.144  1.00  0.00     0.170 C 
BRANCH  17  18
HETATM   18  O   UNL     1       2.856  35.748  66.907  1.00  0.00    -0.400 OA
HETATM   19  H   UNL     1       3.587  36.339  67.185  1.00  0.00     0.209 HD
ENDBRANCH  17  18
ENDBRANCH  16  17
BRANCH  16  20
HETATM   20  C   UNL     1       5.128  35.221  67.942  1.00  0.00     0.067 C 
BRANCH  20  21
HETATM   21  C   UNL     1       6.078  34.676  68.975  1.00  0.00     0.034 A 
HETATM   22  N   UNL     1       5.613  33.650  69.738  1.00  0.00    -0.266 NA
HETATM   23  C   UNL     1       6.473  33.147  70.660  1.00  0.00     0.117 A 
HETATM   24  C   UNL     1       7.758  33.620  70.865  1.00  0.00     0.019 A 
HETATM   25  C   UNL     1       8.203  34.673  70.079  1.00  0.00     0.003 A 
HETATM   26  C   UNL     1       7.354  35.213  69.118  1.00  0.00     0.027 A 
ENDBRANCH  20  21
ENDBRANCH  16  20
ENDBRANCH  15  16
ENDBRANCH   1  15
TORSDOF 7
ENDMDL
MODEL 10
REMARK VINA RESULT:      -7.6      2.697      4.132
REMARK  7 active torsions:
REMARK  status: ('A' for Active; 'I' for Inactive)
REMARK    1  A    between atoms: C_5  and  N_6 
REMARK    2  A    between atoms: N_6  and  C_9 
REMARK    3  A    between atoms: C_9  and  C_10 
REMARK    4  A    between atoms: C_10  and  C_11 
REMARK    5  A    between atoms: C_10  and  C_13 
REMARK    6  A    between atoms: C_11  and  O_12 
REMARK    7  A    between atoms: C_13  and  C_14 
ROOT
HETATM    1  N   UNL     1       8.106  27.310  56.013  1.00  0.00    -0.066 N 
HETATM    2  H   UNL     1       8.984  26.762  55.978  1.00  0.00     0.278 HD
HETATM    3  H   UNL     1       8.226  28.075  55.320  1.00  0.00     0.278 HD
ENDROOT
BRANCH   1   4
HETATM    4  C   UNL     1       6.949  26.482  55.603  1.00  0.00     0.220 C 
HETATM    5  C   UNL     1       7.279  25.591  54.447  1.00  0.00    -0.021 A 
HETATM    6  C   UNL     1       7.421  24.254  54.844  1.00  0.00    -0.040 A 
HETATM    7  C   UNL     1       7.456  25.974  53.124  1.00  0.00     0.010 A 
HETATM    8  C   UNL     1       7.724  23.262  53.914  1.00  0.00    -0.055 A 
HETATM    9  C   UNL     1       7.208  24.111  56.327  1.00  0.00     0.018 C 
HETATM   10  C   UNL     1       7.900  21.821  54.295  1.00  0.00     0.049 C 
HETATM   11  C   UNL     1       7.914  23.654  52.580  1.00  0.00     0.007 A 
HETATM   12  C   UNL     1       7.778  24.993  52.188  1.00  0.00     0.001 A 
HETATM   13  C   UNL     1       6.564  25.470  56.694  1.00  0.00     0.047 C 
HETATM   14  C   UNL     1       8.507  23.847  57.079  1.00  0.00     0.015 C 
ENDBRANCH   1   4
BRANCH   1  15
HETATM   15  C   UNL     1       8.024  27.955  57.353  1.00  0.00     0.240 C 
BRANCH  15  16
HETATM   16  C   UNL     1       8.221  29.481  57.242  1.00  0.00     0.040 C 
BRANCH  16  17
HETATM   17  C   UNL     1       9.715  29.806  57.088  1.00  0.00     0.170 C 
BRANCH  17  18
HETATM   18  O   UNL     1      10.038  29.889  55.698  1.00  0.00    -0.400 OA
HETATM   19  H   UNL     1      10.085  28.965  55.373  1.00  0.00     0.209 HD
ENDBRANCH  17  18
ENDBRANCH  16  17
BRANCH  16  20
HETATM   20  C   UNL     1       7.649  30.289  58.427  1.00  0.00     0.067 C 
BRANCH  20  21
HETATM   21  C   UNL     1       6.341  30.966  58.115  1.00  0.00     0.034 A 
HETATM   22  N   UNL     1       6.299  32.312  58.309  1.00  0.00    -0.266 NA
HETATM   23  C   UNL     1       5.126  32.927  58.014  1.00  0.00     0.117 A 
HETATM   24  C   UNL     1       3.998  32.271  57.550  1.00  0.00     0.019 A 
HETATM   25  C   UNL     1       4.067  30.897  57.370  1.00  0.00     0.003 A 
HETATM   26  C   UNL     1       5.254  30.230  57.654  1.00  0.00     0.027 A 
ENDBRANCH  20  21
ENDBRANCH  16  20
ENDBRANCH  15  16
ENDBRANCH   1  15
TORSDOF 7
ENDMDL
