MODEL 1
REMARK VINA RESULT:      -9.4      0.000      0.000
REMARK  6 active torsions:
REMARK  status: ('A' for Active; 'I' for Inactive)
REMARK    1  A    between atoms: C_2  and  C_3 
REMARK    2  A    between atoms: C_7  and  O_8 
REMARK    3  A    between atoms: O_8  and  C_9 
REMARK    4  A    between atoms: C_9  and  C_10 
REMARK       I    between atoms: C_10  and  N_11 
REMARK    5  A    between atoms: N_11  and  N_12 
REMARK    6  A    between atoms: C_13  and  C_14 
ROOT
HETATM    1  C   UNL     1       5.325  27.294  53.752  1.00  0.00     0.261 C 
HETATM    2  N   UNL     1       4.987  28.138  54.781  1.00  0.00    -0.246 N 
HETATM    3  O   UNL     1       4.477  26.530  53.283  1.00  0.00    -0.269 OA
HETATM    4  H   UNL     1       4.017  28.119  55.077  1.00  0.00     0.192 HD
ENDROOT
BRANCH   1   5
HETATM    5  C   UNL     1       6.768  27.307  53.259  1.00  0.00     0.280 C 
BRANCH   5   6
HETATM    6  O   UNL     1       7.605  26.591  54.158  1.00  0.00    -0.341 OA
BRANCH   6   7
HETATM    7  C   UNL     1       7.607  25.226  54.056  1.00  0.00     0.086 A 
HETATM    8  C   UNL     1       7.481  24.492  55.243  1.00  0.00     0.044 A 
HETATM    9  C   UNL     1       7.520  23.093  55.230  1.00  0.00     0.029 A 
HETATM   10 BR   UNL     1       7.243  25.355  56.921  1.00  0.00    -0.048 Br
HETATM   11  C   UNL     1       7.690  22.390  54.028  1.00  0.00    -0.053 A 
HETATM   12  C   UNL     1       7.823  23.128  52.844  1.00  0.00     0.010 A 
HETATM   13  C   UNL     1       7.777  24.528  52.857  1.00  0.00     0.039 A 
BRANCH  11  14
HETATM   14  C   UNL     1       7.776  20.874  54.049  1.00  0.00     0.010 C 
HETATM   15  C   UNL     1       8.200  20.383  55.436  1.00  0.00     0.015 C 
HETATM   16  C   UNL     1       8.703  20.306  52.969  1.00  0.00     0.015 C 
ENDBRANCH  11  14
ENDBRANCH   6   7
ENDBRANCH   5   6
ENDBRANCH   1   5
BRANCH   2  17
HETATM   17  N   UNL     1       5.875  29.000  55.349  1.00  0.00    -0.184 NA
HETATM   18  C   UNL     1       6.001  28.889  56.633  1.00  0.00     0.152 C 
BRANCH  18  19
HETATM   19  C   UNL     1       6.895  29.776  57.347  1.00  0.00     0.011 A 
HETATM   20  C   UNL     1       8.325  29.809  57.274  1.00  0.00     0.004 A 
HETATM   21  C   UNL     1       8.763  30.810  58.142  1.00  0.00     0.043 A 
HETATM   22  C   UNL     1       9.292  29.082  56.547  1.00  0.00     0.014 A 
HETATM   23  C   UNL     1      10.117  31.119  58.322  1.00  0.00     0.030 A 
HETATM   24  N   UNL     1       7.645  31.362  58.723  1.00  0.00    -0.364 N 
HETATM   25  C   UNL     1      11.053  30.384  57.589  1.00  0.00     0.002 A 
HETATM   26  C   UNL     1      10.650  29.381  56.714  1.00  0.00     0.001 A 
HETATM   27  H   UNL     1       7.661  32.109  59.404  1.00  0.00     0.165 HD
HETATM   28  C   UNL     1       6.517  30.752  58.249  1.00  0.00     0.102 A 
ENDBRANCH  18  19
ENDBRANCH   2  17
TORSDOF 6
ENDMDL
MODEL 2
REMARK VINA RESULT:      -9.0      1.116      1.924
REMARK  6 active torsions:
REMARK  status: ('A' for Active; 'I' for Inactive)
REMARK    1  A    between atoms: C_2  and  C_3 
REMARK    2  A    between atoms: C_7  and  O_8 
REMARK    3  A    between atoms: O_8  and  C_9 
REMARK    4  A    between atoms: C_9  and  C_10 
REMARK       I    between atoms: C_10  and  N_11 
REMARK    5  A    between atoms: N_11  and  N_12 
REMARK    6  A    between atoms: C_13  and  C_14 
ROOT
HETATM    1  C   UNL     1       5.471  27.705  54.102  1.00  0.00     0.261 C 
HETATM    2  N   UNL     1       5.446  28.600  55.144  1.00  0.00    -0.246 N 
HETATM    3  O   UNL     1       4.425  27.162  53.737  1.00  0.00    -0.269 OA
HETATM    4  H   UNL     1       4.535  28.806  55.537  1.00  0.00     0.192 HD
ENDROOT
BRANCH   1   5
HETATM    5  C   UNL     1       6.818  27.384  53.465  1.00  0.00     0.280 C 
BRANCH   5   6
HETATM    6  O   UNL     1       7.615  26.611  54.354  1.00  0.00    -0.341 OA
BRANCH   6   7
HETATM    7  C   UNL     1       7.613  25.254  54.173  1.00  0.00     0.086 A 
HETATM    8  C   UNL     1       7.278  24.459  55.277  1.00  0.00     0.044 A 
HETATM    9  C   UNL     1       7.298  23.062  55.189  1.00  0.00     0.029 A 
HETATM   10 BR   UNL     1       6.773  25.233  56.940  1.00  0.00    -0.048 Br
HETATM   11  C   UNL     1       7.657  22.423  53.993  1.00  0.00    -0.053 A 
HETATM   12  C   UNL     1       7.999  23.222  52.894  1.00  0.00     0.010 A 
HETATM   13  C   UNL     1       7.973  24.619  52.981  1.00  0.00     0.039 A 
BRANCH  11  14
HETATM   14  C   UNL     1       7.716  20.907  53.939  1.00  0.00     0.010 C 
HETATM   15  C   UNL     1       8.272  20.346  55.251  1.00  0.00     0.015 C 
HETATM   16  C   UNL     1       8.514  20.374  52.745  1.00  0.00     0.015 C 
ENDBRANCH  11  14
ENDBRANCH   6   7
ENDBRANCH   5   6
ENDBRANCH   1   5
BRANCH   2  17
HETATM   17  N   UNL     1       6.565  29.228  55.602  1.00  0.00    -0.184 NA
HETATM   18  C   UNL     1       6.850  29.001  56.844  1.00  0.00     0.152 C 
BRANCH  18  19
HETATM   19  C   UNL     1       8.000  29.643  57.446  1.00  0.00     0.011 A 
HETATM   20  C   UNL     1       7.996  30.639  58.474  1.00  0.00     0.004 A 
HETATM   21  C   UNL     1       9.327  30.976  58.731  1.00  0.00     0.043 A 
HETATM   22  C   UNL     1       6.986  31.287  59.217  1.00  0.00     0.014 A 
HETATM   23  C   UNL     1       9.696  31.929  59.689  1.00  0.00     0.030 A 
HETATM   24  N   UNL     1      10.107  30.218  57.890  1.00  0.00    -0.364 N 
HETATM   25  C   UNL     1       8.675  32.554  60.410  1.00  0.00     0.002 A 
HETATM   26  C   UNL     1       7.339  32.240  60.180  1.00  0.00     0.001 A 
HETATM   27  H   UNL     1      11.116  30.259  57.852  1.00  0.00     0.165 HD
HETATM   28  C   UNL     1       9.321  29.409  57.118  1.00  0.00     0.102 A 
ENDBRANCH  18  19
ENDBRANCH   2  17
TORSDOF 6
ENDMDL
MODEL 3
REMARK VINA RESULT:      -8.9      2.465      8.403
REMARK  6 active torsions:
REMARK  status: ('A' for Active; 'I' for Inactive)
REMARK    1  A    between atoms: C_2  and  C_3 
REMARK    2  A    between atoms: C_7  and  O_8 
REMARK    3  A    between atoms: O_8  and  C_9 
REMARK    4  A    between atoms: C_9  and  C_10 
REMARK       I    between atoms: C_10  and  N_11 
REMARK    5  A    between atoms: N_11  and  N_12 
REMARK    6  A    between atoms: C_13  and  C_14 
ROOT
HETATM    1  C   UNL     1       5.629  28.115  55.041  1.00  0.00     0.261 C 
HETATM    2  N   UNL     1       5.554  26.844  54.525  1.00  0.00    -0.246 N 
HETATM    3  O   UNL     1       5.206  29.069  54.384  1.00  0.00    -0.269 OA
HETATM    4  H   UNL     1       5.097  26.752  53.624  1.00  0.00     0.192 HD
ENDROOT
BRANCH   1   5
HETATM    5  C   UNL     1       6.286  28.295  56.405  1.00  0.00     0.280 C 
BRANCH   5   6
HETATM    6  O   UNL     1       7.409  29.162  56.303  1.00  0.00    -0.341 OA
BRANCH   6   7
HETATM    7  C   UNL     1       7.632  30.020  57.347  1.00  0.00     0.086 A 
HETATM    8  C   UNL     1       8.961  30.212  57.748  1.00  0.00     0.044 A 
HETATM    9  C   UNL     1       9.270  31.037  58.836  1.00  0.00     0.029 A 
HETATM   10 BR   UNL     1      10.404  29.373  56.837  1.00  0.00    -0.048 Br
HETATM   11  C   UNL     1       8.257  31.690  59.554  1.00  0.00    -0.053 A 
HETATM   12  C   UNL     1       6.929  31.490  59.153  1.00  0.00     0.010 A 
HETATM   13  C   UNL     1       6.621  30.669  58.061  1.00  0.00     0.039 A 
BRANCH  11  14
HETATM   14  C   UNL     1       8.617  32.541  60.758  1.00  0.00     0.010 C 
HETATM   15  C   UNL     1       9.727  31.871  61.573  1.00  0.00     0.015 C 
HETATM   16  C   UNL     1       7.415  32.867  61.650  1.00  0.00     0.015 C 
ENDBRANCH  11  14
ENDBRANCH   6   7
ENDBRANCH   5   6
ENDBRANCH   1   5
BRANCH   2  17
HETATM   17  N   UNL     1       6.009  25.749  55.194  1.00  0.00    -0.184 NA
HETATM   18  C   UNL     1       7.070  25.203  54.692  1.00  0.00     0.152 C 
BRANCH  18  19
HETATM   19  C   UNL     1       7.624  24.013  55.302  1.00  0.00     0.011 A 
HETATM   20  C   UNL     1       7.888  22.756  54.669  1.00  0.00     0.004 A 
HETATM   21  C   UNL     1       8.405  21.900  55.643  1.00  0.00     0.043 A 
HETATM   22  C   UNL     1       7.741  22.264  53.354  1.00  0.00     0.014 A 
HETATM   23  C   UNL     1       8.777  20.578  55.370  1.00  0.00     0.030 A 
HETATM   24  N   UNL     1       8.450  22.606  56.822  1.00  0.00    -0.364 N 
HETATM   25  C   UNL     1       8.621  20.116  54.060  1.00  0.00     0.002 A 
HETATM   26  C   UNL     1       8.111  20.945  53.065  1.00  0.00     0.001 A 
HETATM   27  H   UNL     1       8.775  22.232  57.703  1.00  0.00     0.165 HD
HETATM   28  C   UNL     1       7.988  23.878  56.628  1.00  0.00     0.102 A 
ENDBRANCH  18  19
ENDBRANCH   2  17
TORSDOF 6
ENDMDL
MODEL 4
REMARK VINA RESULT:      -8.9      2.233      3.143
REMARK  6 active torsions:
REMARK  status: ('A' for Active; 'I' for Inactive)
REMARK    1  A    between atoms: C_2  and  C_3 
REMARK    2  A    between atoms: C_7  and  O_8 
REMARK    3  A    between atoms: O_8  and  C_9 
REMARK    4  A    between atoms: C_9  and  C_10 
REMARK       I    between atoms: C_10  and  N_11 
REMARK    5  A    between atoms: N_11  and  N_12 
REMARK    6  A    between atoms: C_13  and  C_14 
ROOT
HETATM    1  C   UNL     1       7.258  28.172  55.082  1.00  0.00     0.261 C 
HETATM    2  N   UNL     1       7.462  29.442  55.563  1.00  0.00    -0.246 N 
HETATM    3  O   UNL     1       7.829  27.808  54.051  1.00  0.00    -0.269 OA
HETATM    4  H   UNL     1       8.127  30.014  55.054  1.00  0.00     0.192 HD
ENDROOT
BRANCH   1   5
HETATM    5  C   UNL     1       6.283  27.271  55.832  1.00  0.00     0.280 C 
BRANCH   5   6
HETATM    6  O   UNL     1       5.753  26.281  54.959  1.00  0.00    -0.341 OA
BRANCH   6   7
HETATM    7  C   UNL     1       6.432  25.094  54.876  1.00  0.00     0.086 A 
HETATM    8  C   UNL     1       6.572  24.522  53.605  1.00  0.00     0.044 A 
HETATM    9  C   UNL     1       7.212  23.287  53.440  1.00  0.00     0.029 A 
HETATM   10 BR   UNL     1       5.911  25.390  52.048  1.00  0.00    -0.048 Br
HETATM   11  C   UNL     1       7.727  22.592  54.544  1.00  0.00    -0.053 A 
HETATM   12  C   UNL     1       7.579  23.165  55.814  1.00  0.00     0.010 A 
HETATM   13  C   UNL     1       6.943  24.402  55.978  1.00  0.00     0.039 A 
BRANCH  11  14
HETATM   14  C   UNL     1       8.374  21.234  54.341  1.00  0.00     0.010 C 
HETATM   15  C   UNL     1       7.899  20.606  53.027  1.00  0.00     0.015 C 
HETATM   16  C   UNL     1       8.144  20.272  55.512  1.00  0.00     0.015 C 
ENDBRANCH  11  14
ENDBRANCH   6   7
ENDBRANCH   5   6
ENDBRANCH   1   5
BRANCH   2  17
HETATM   17  N   UNL     1       6.857  29.909  56.690  1.00  0.00    -0.184 NA
HETATM   18  C   UNL     1       7.598  30.665  57.436  1.00  0.00     0.152 C 
BRANCH  18  19
HETATM   19  C   UNL     1       7.068  31.192  58.676  1.00  0.00     0.011 A 
HETATM   20  C   UNL     1       7.786  31.437  59.890  1.00  0.00     0.004 A 
HETATM   21  C   UNL     1       6.871  31.930  60.822  1.00  0.00     0.043 A 
HETATM   22  C   UNL     1       9.133  31.290  60.287  1.00  0.00     0.014 A 
HETATM   23  C   UNL     1       7.234  32.280  62.129  1.00  0.00     0.030 A 
HETATM   24  N   UNL     1       5.645  31.979  60.201  1.00  0.00    -0.364 N 
HETATM   25  C   UNL     1       8.574  32.125  62.495  1.00  0.00     0.002 A 
HETATM   26  C   UNL     1       9.512  31.638  61.589  1.00  0.00     0.001 A 
HETATM   27  H   UNL     1       4.791  32.291  60.642  1.00  0.00     0.165 HD
HETATM   28  C   UNL     1       5.753  31.543  58.910  1.00  0.00     0.102 A 
ENDBRANCH  18  19
ENDBRANCH   2  17
TORSDOF 6
ENDMDL
MODEL 5
REMARK VINA RESULT:      -8.8      2.540      3.609
REMARK  6 active torsions:
REMARK  status: ('A' for Active; 'I' for Inactive)
REMARK    1  A    between atoms: C_2  and  C_3 
REMARK    2  A    between atoms: C_7  and  O_8 
REMARK    3  A    between atoms: O_8  and  C_9 
REMARK    4  A    between atoms: C_9  and  C_10 
REMARK       I    between atoms: C_10  and  N_11 
REMARK    5  A    between atoms: N_11  and  N_12 
REMARK    6  A    between atoms: C_13  and  C_14 
ROOT
HETATM    1  C   UNL     1       6.489  28.628  55.479  1.00  0.00     0.261 C 
HETATM    2  N   UNL     1       6.847  29.794  56.110  1.00  0.00    -0.246 N 
HETATM    3  O   UNL     1       5.929  28.673  54.380  1.00  0.00    -0.269 OA
HETATM    4  H   UNL     1       6.667  30.653  55.602  1.00  0.00     0.192 HD
ENDROOT
BRANCH   1   5
HETATM    5  C   UNL     1       6.764  27.311  56.197  1.00  0.00     0.280 C 
BRANCH   5   6
HETATM    6  O   UNL     1       6.078  26.244  55.554  1.00  0.00    -0.341 OA
BRANCH   6   7
HETATM    7  C   UNL     1       6.807  25.125  55.254  1.00  0.00     0.086 A 
HETATM    8  C   UNL     1       6.494  24.454  54.064  1.00  0.00     0.044 A 
HETATM    9  C   UNL     1       7.161  23.276  53.708  1.00  0.00     0.029 A 
HETATM   10 BR   UNL     1       5.162  25.111  52.876  1.00  0.00    -0.048 Br
HETATM   11  C   UNL     1       8.157  22.735  54.534  1.00  0.00    -0.053 A 
HETATM   12  C   UNL     1       8.461  23.405  55.727  1.00  0.00     0.010 A 
HETATM   13  C   UNL     1       7.798  24.587  56.080  1.00  0.00     0.039 A 
BRANCH  11  14
HETATM   14  C   UNL     1       8.830  21.431  54.146  1.00  0.00     0.010 C 
HETATM   15  C   UNL     1       8.116  20.797  52.950  1.00  0.00     0.015 C 
HETATM   16  C   UNL     1       8.931  20.434  55.305  1.00  0.00     0.015 C 
ENDBRANCH  11  14
ENDBRANCH   6   7
ENDBRANCH   5   6
ENDBRANCH   1   5
BRANCH   2  17
HETATM   17  N   UNL     1       7.460  29.815  57.326  1.00  0.00    -0.184 NA
HETATM   18  C   UNL     1       7.132  30.810  58.088  1.00  0.00     0.152 C 
BRANCH  18  19
HETATM   19  C   UNL     1       7.746  30.951  59.391  1.00  0.00     0.011 A 
HETATM   20  C   UNL     1       7.336  31.821  60.452  1.00  0.00     0.004 A 
HETATM   21  C   UNL     1       8.227  31.632  61.511  1.00  0.00     0.043 A 
HETATM   22  C   UNL     1       6.287  32.751  60.616  1.00  0.00     0.014 A 
HETATM   23  C   UNL     1       8.123  32.328  62.722  1.00  0.00     0.030 A 
HETATM   24  N   UNL     1       9.143  30.690  61.108  1.00  0.00    -0.364 N 
HETATM   25  C   UNL     1       7.074  33.243  62.857  1.00  0.00     0.002 A 
HETATM   26  C   UNL     1       6.168  33.452  61.822  1.00  0.00     0.001 A 
HETATM   27  H   UNL     1       9.914  30.360  61.673  1.00  0.00     0.165 HD
HETATM   28  C   UNL     1       8.861  30.269  59.839  1.00  0.00     0.102 A 
ENDBRANCH  18  19
ENDBRANCH   2  17
TORSDOF 6
ENDMDL
MODEL 6
REMARK VINA RESULT:      -8.6      3.943      7.103
REMARK  6 active torsions:
REMARK  status: ('A' for Active; 'I' for Inactive)
REMARK    1  A    between atoms: C_2  and  C_3 
REMARK    2  A    between atoms: C_7  and  O_8 
REMARK    3  A    between atoms: O_8  and  C_9 
REMARK    4  A    between atoms: C_9  and  C_10 
REMARK       I    between atoms: C_10  and  N_11 
REMARK    5  A    between atoms: N_11  and  N_12 
REMARK    6  A    between atoms: C_13  and  C_14 
ROOT
HETATM    1  C   UNL     1       6.387  28.156  53.378  1.00  0.00     0.261 C 
HETATM    2  N   UNL     1       6.065  29.077  52.412  1.00  0.00    -0.246 N 
HETATM    3  O   UNL     1       7.269  28.414  54.201  1.00  0.00    -0.269 OA
HETATM    4  H   UNL     1       6.552  29.965  52.458  1.00  0.00     0.192 HD
ENDROOT
BRANCH   1   5
HETATM    5  C   UNL     1       5.661  26.815  53.360  1.00  0.00     0.280 C 
BRANCH   5   6
HETATM    6  O   UNL     1       5.951  26.079  54.541  1.00  0.00    -0.341 OA
BRANCH   6   7
HETATM    7  C   UNL     1       6.567  24.866  54.386  1.00  0.00     0.086 A 
HETATM    8  C   UNL     1       7.187  24.310  55.513  1.00  0.00     0.044 A 
HETATM    9  C   UNL     1       7.878  23.096  55.426  1.00  0.00     0.029 A 
HETATM   10 BR   UNL     1       7.114  25.168  57.209  1.00  0.00    -0.048 Br
HETATM   11  C   UNL     1       7.970  22.406  54.208  1.00  0.00    -0.053 A 
HETATM   12  C   UNL     1       7.355  22.970  53.082  1.00  0.00     0.010 A 
HETATM   13  C   UNL     1       6.659  24.181  53.170  1.00  0.00     0.039 A 
BRANCH  11  14
HETATM   14  C   UNL     1       8.766  21.116  54.134  1.00  0.00     0.010 C 
HETATM   15  C   UNL     1       8.459  20.373  52.830  1.00  0.00     0.015 C 
HETATM   16  C   UNL     1       8.546  20.198  55.341  1.00  0.00     0.015 C 
ENDBRANCH  11  14
ENDBRANCH   6   7
ENDBRANCH   5   6
ENDBRANCH   1   5
BRANCH   2  17
HETATM   17  N   UNL     1       5.108  28.852  51.469  1.00  0.00    -0.184 NA
HETATM   18  C   UNL     1       5.483  29.063  50.248  1.00  0.00     0.152 C 
BRANCH  18  19
HETATM   19  C   UNL     1       4.539  28.887  49.165  1.00  0.00     0.011 A 
HETATM   20  C   UNL     1       3.992  27.653  48.684  1.00  0.00     0.004 A 
HETATM   21  C   UNL     1       3.140  27.962  47.623  1.00  0.00     0.043 A 
HETATM   22  C   UNL     1       4.139  26.299  49.054  1.00  0.00     0.014 A 
HETATM   23  C   UNL     1       2.431  26.986  46.911  1.00  0.00     0.030 A 
HETATM   24  N   UNL     1       3.170  29.327  47.462  1.00  0.00    -0.364 N 
HETATM   25  C   UNL     1       2.594  25.653  47.299  1.00  0.00     0.002 A 
HETATM   26  C   UNL     1       3.434  25.312  48.354  1.00  0.00     0.001 A 
HETATM   27  H   UNL     1       2.650  29.834  46.757  1.00  0.00     0.165 HD
HETATM   28  C   UNL     1       4.002  29.893  48.386  1.00  0.00     0.102 A 
ENDBRANCH  18  19
ENDBRANCH   2  17
TORSDOF 6
ENDMDL
MODEL 7
REMARK VINA RESULT:      -8.6      3.227      7.288
REMARK  6 active torsions:
REMARK  status: ('A' for Active; 'I' for Inactive)
REMARK    1  A    between atoms: C_2  and  C_3 
REMARK    2  A    between atoms: C_7  and  O_8 
REMARK    3  A    between atoms: O_8  and  C_9 
REMARK    4  A    between atoms: C_9  and  C_10 
REMARK       I    between atoms: C_10  and  N_11 
REMARK    5  A    between atoms: N_11  and  N_12 
REMARK    6  A    between atoms: C_13  and  C_14 
ROOT
HETATM    1  C   UNL     1       7.685  26.878  57.417  1.00  0.00     0.261 C 
HETATM    2  N   UNL     1       7.634  25.621  57.967  1.00  0.00    -0.246 N 
HETATM    3  O   UNL     1       7.807  27.863  58.150  1.00  0.00    -0.269 OA
HETATM    4  H   UNL     1       7.750  25.566  58.973  1.00  0.00     0.192 HD
ENDROOT
BRANCH   1   5
HETATM    5  C   UNL     1       7.539  27.005  55.904  1.00  0.00     0.280 C 
BRANCH   5   6
HETATM    6  O   UNL     1       6.187  26.790  55.518  1.00  0.00    -0.341 OA
BRANCH   6   7
HETATM    7  C   UNL     1       5.882  26.961  54.194  1.00  0.00     0.086 A 
HETATM    8  C   UNL     1       4.984  27.986  53.868  1.00  0.00     0.044 A 
HETATM    9  C   UNL     1       4.585  28.196  52.543  1.00  0.00     0.029 A 
HETATM   10 BR   UNL     1       4.273  29.142  55.201  1.00  0.00    -0.048 Br
HETATM   11  C   UNL     1       5.071  27.384  51.508  1.00  0.00    -0.053 A 
HETATM   12  C   UNL     1       5.963  26.356  51.840  1.00  0.00     0.010 A 
HETATM   13  C   UNL     1       6.367  26.149  53.164  1.00  0.00     0.039 A 
BRANCH  11  14
HETATM   14  C   UNL     1       4.584  27.605  50.087  1.00  0.00     0.010 C 
HETATM   15  C   UNL     1       4.477  26.270  49.345  1.00  0.00     0.015 C 
HETATM   16  C   UNL     1       5.450  28.592  49.297  1.00  0.00     0.015 C 
ENDBRANCH  11  14
ENDBRANCH   6   7
ENDBRANCH   5   6
ENDBRANCH   1   5
BRANCH   2  17
HETATM   17  N   UNL     1       7.492  24.493  57.216  1.00  0.00    -0.184 NA
HETATM   18  C   UNL     1       8.400  23.591  57.406  1.00  0.00     0.152 C 
BRANCH  18  19
HETATM   19  C   UNL     1       8.367  22.364  56.639  1.00  0.00     0.011 A 
HETATM   20  C   UNL     1       8.214  22.232  55.221  1.00  0.00     0.004 A 
HETATM   21  C   UNL     1       8.224  20.868  54.927  1.00  0.00     0.043 A 
HETATM   22  C   UNL     1       8.073  23.146  54.155  1.00  0.00     0.014 A 
HETATM   23  C   UNL     1       8.096  20.372  53.623  1.00  0.00     0.030 A 
HETATM   24  N   UNL     1       8.372  20.196  56.118  1.00  0.00    -0.364 N 
HETATM   25  C   UNL     1       7.957  21.300  52.587  1.00  0.00     0.002 A 
HETATM   26  C   UNL     1       7.946  22.667  52.846  1.00  0.00     0.001 A 
HETATM   27  H   UNL     1       8.405  19.190  56.210  1.00  0.00     0.165 HD
HETATM   28  C   UNL     1       8.464  21.085  57.152  1.00  0.00     0.102 A 
ENDBRANCH  18  19
ENDBRANCH   2  17
TORSDOF 6
ENDMDL
MODEL 8
REMARK VINA RESULT:      -8.6      3.379      6.537
REMARK  6 active torsions:
REMARK  status: ('A' for Active; 'I' for Inactive)
REMARK    1  A    between atoms: C_2  and  C_3 
REMARK    2  A    between atoms: C_7  and  O_8 
REMARK    3  A    between atoms: O_8  and  C_9 
REMARK    4  A    between atoms: C_9  and  C_10 
REMARK       I    between atoms: C_10  and  N_11 
REMARK    5  A    between atoms: N_11  and  N_12 
REMARK    6  A    between atoms: C_13  and  C_14 
ROOT
HETATM    1  C   UNL     1       6.432  28.598  55.029  1.00  0.00     0.261 C 
HETATM    2  N   UNL     1       5.854  29.064  53.874  1.00  0.00    -0.246 N 
HETATM    3  O   UNL     1       6.997  29.384  55.793  1.00  0.00    -0.269 OA
HETATM    4  H   UNL     1       5.883  30.068  53.731  1.00  0.00     0.192 HD
ENDROOT
BRANCH   1   5
HETATM    5  C   UNL     1       6.389  27.097  55.296  1.00  0.00     0.280 C 
BRANCH   5   6
HETATM    6  O   UNL     1       7.611  26.488  54.899  1.00  0.00    -0.341 OA
BRANCH   6   7
HETATM    7  C   UNL     1       7.586  25.142  54.649  1.00  0.00     0.086 A 
HETATM    8  C   UNL     1       7.989  24.288  55.685  1.00  0.00     0.044 A 
HETATM    9  C   UNL     1       8.036  22.902  55.495  1.00  0.00     0.029 A 
HETATM   10 BR   UNL     1       8.481  24.964  57.393  1.00  0.00    -0.048 Br
HETATM   11  C   UNL     1       7.684  22.333  54.262  1.00  0.00    -0.053 A 
HETATM   12  C   UNL     1       7.288  23.191  53.228  1.00  0.00     0.010 A 
HETATM   13  C   UNL     1       7.236  24.577  53.419  1.00  0.00     0.039 A 
BRANCH  11  14
HETATM   14  C   UNL     1       7.789  20.830  54.071  1.00  0.00     0.010 C 
HETATM   15  C   UNL     1       8.503  20.188  55.263  1.00  0.00     0.015 C 
HETATM   16  C   UNL     1       8.472  20.435  52.757  1.00  0.00     0.015 C 
ENDBRANCH  11  14
ENDBRANCH   6   7
ENDBRANCH   5   6
ENDBRANCH   1   5
BRANCH   2  17
HETATM   17  N   UNL     1       5.222  28.249  52.984  1.00  0.00    -0.184 NA
HETATM   18  C   UNL     1       5.580  28.404  51.750  1.00  0.00     0.152 C 
BRANCH  18  19
HETATM   19  C   UNL     1       4.951  27.613  50.714  1.00  0.00     0.011 A 
HETATM   20  C   UNL     1       4.236  28.093  49.570  1.00  0.00     0.004 A 
HETATM   21  C   UNL     1       3.794  26.977  48.857  1.00  0.00     0.043 A 
HETATM   22  C   UNL     1       3.925  29.375  49.067  1.00  0.00     0.014 A 
HETATM   23  C   UNL     1       3.055  27.078  47.672  1.00  0.00     0.030 A 
HETATM   24  N   UNL     1       4.219  25.863  49.542  1.00  0.00    -0.364 N 
HETATM   25  C   UNL     1       2.761  28.360  47.197  1.00  0.00     0.002 A 
HETATM   26  C   UNL     1       3.189  29.493  47.882  1.00  0.00     0.001 A 
HETATM   27  H   UNL     1       4.035  24.910  49.259  1.00  0.00     0.165 HD
HETATM   28  C   UNL     1       4.920  26.233  50.656  1.00  0.00     0.102 A 
ENDBRANCH  18  19
ENDBRANCH   2  17
TORSDOF 6
ENDMDL
MODEL 9
REMARK VINA RESULT:      -8.6      3.492      5.086
REMARK  6 active torsions:
REMARK  status: ('A' for Active; 'I' for Inactive)
REMARK    1  A    between atoms: C_2  and  C_3 
REMARK    2  A    between atoms: C_7  and  O_8 
REMARK    3  A    between atoms: O_8  and  C_9 
REMARK    4  A    between atoms: C_9  and  C_10 
REMARK       I    between atoms: C_10  and  N_11 
REMARK    5  A    between atoms: N_11  and  N_12 
REMARK    6  A    between atoms: C_13  and  C_14 
ROOT
HETATM    1  C   UNL     1       8.911  29.335  57.713  1.00  0.00     0.261 C 
HETATM    2  N   UNL     1       8.864  30.598  58.252  1.00  0.00    -0.246 N 
HETATM    3  O   UNL     1       9.933  28.953  57.136  1.00  0.00    -0.269 OA
HETATM    4  H   UNL     1       9.714  31.146  58.185  1.00  0.00     0.192 HD
ENDROOT
BRANCH   1   5
HETATM    5  C   UNL     1       7.662  28.466  57.813  1.00  0.00     0.280 C 
BRANCH   5   6
HETATM    6  O   UNL     1       7.202  28.108  56.517  1.00  0.00    -0.341 OA
BRANCH   6   7
HETATM    7  C   UNL     1       7.446  26.827  56.099  1.00  0.00     0.086 A 
HETATM    8  C   UNL     1       7.251  26.546  54.741  1.00  0.00     0.044 A 
HETATM    9  C   UNL     1       7.434  25.250  54.243  1.00  0.00     0.029 A 
HETATM   10 BR   UNL     1       6.739  27.902  53.510  1.00  0.00    -0.048 Br
HETATM   11  C   UNL     1       7.814  24.200  55.092  1.00  0.00    -0.053 A 
HETATM   12  C   UNL     1       8.001  24.485  56.451  1.00  0.00     0.010 A 
HETATM   13  C   UNL     1       7.824  25.783  56.948  1.00  0.00     0.039 A 
BRANCH  11  14
HETATM   14  C   UNL     1       7.959  22.796  54.534  1.00  0.00     0.010 C 
HETATM   15  C   UNL     1       9.282  22.174  54.988  1.00  0.00     0.015 C 
HETATM   16  C   UNL     1       7.831  22.736  53.008  1.00  0.00     0.015 C 
ENDBRANCH  11  14
ENDBRANCH   6   7
ENDBRANCH   5   6
ENDBRANCH   1   5
BRANCH   2  17
HETATM   17  N   UNL     1       7.766  31.084  58.894  1.00  0.00    -0.184 NA
HETATM   18  C   UNL     1       8.012  31.727  59.990  1.00  0.00     0.152 C 
BRANCH  18  19
HETATM   19  C   UNL     1       6.918  32.261  60.772  1.00  0.00     0.011 A 
HETATM   20  C   UNL     1       6.941  32.631  62.155  1.00  0.00     0.004 A 
HETATM   21  C   UNL     1       5.661  33.080  62.487  1.00  0.00     0.043 A 
HETATM   22  C   UNL     1       7.932  32.632  63.160  1.00  0.00     0.014 A 
HETATM   23  C   UNL     1       5.323  33.525  63.771  1.00  0.00     0.030 A 
HETATM   24  N   UNL     1       4.890  32.983  61.353  1.00  0.00    -0.364 N 
HETATM   25  C   UNL     1       6.324  33.515  64.747  1.00  0.00     0.002 A 
HETATM   26  C   UNL     1       7.610  33.076  64.448  1.00  0.00     0.001 A 
HETATM   27  H   UNL     1       3.912  33.233  61.300  1.00  0.00     0.165 HD
HETATM   28  C   UNL     1       5.636  32.497  60.315  1.00  0.00     0.102 A 
ENDBRANCH  18  19
ENDBRANCH   2  17
TORSDOF 6
ENDMDL
MODEL 10
REMARK VINA RESULT:      -8.4      3.435      7.358
REMARK  6 active torsions:
REMARK  status: ('A' for Active; 'I' for Inactive)
REMARK    1  A    between atoms: C_2  and  C_3 
REMARK    2  A    between atoms: C_7  and  O_8 
REMARK    3  A    between atoms: O_8  and  C_9 
REMARK    4  A    between atoms: C_9  and  C_10 
REMARK       I    between atoms: C_10  and  N_11 
REMARK    5  A    between atoms: N_11  and  N_12 
REMARK    6  A    between atoms: C_13  and  C_14 
ROOT
HETATM    1  C   UNL     1       5.731  27.806  56.037  1.00  0.00     0.261 C 
HETATM    2  N   UNL     1       6.359  26.635  56.386  1.00  0.00    -0.246 N 
HETATM    3  O   UNL     1       5.141  28.465  56.896  1.00  0.00    -0.269 OA
HETATM    4  H   UNL     1       6.342  26.394  57.371  1.00  0.00     0.192 HD
ENDROOT
BRANCH   1   5
HETATM    5  C   UNL     1       5.753  28.220  54.569  1.00  0.00     0.280 C 
BRANCH   5   6
HETATM    6  O   UNL     1       4.543  27.836  53.928  1.00  0.00    -0.341 OA
BRANCH   6   7
HETATM    7  C   UNL     1       4.625  27.459  52.614  1.00  0.00     0.086 A 
HETATM    8  C   UNL     1       4.122  28.350  51.657  1.00  0.00     0.044 A 
HETATM    9  C   UNL     1       4.127  28.019  50.296  1.00  0.00     0.029 A 
HETATM   10 BR   UNL     1       3.420  30.046  52.153  1.00  0.00    -0.048 Br
HETATM   11  C   UNL     1       4.632  26.787  49.858  1.00  0.00    -0.053 A 
HETATM   12  C   UNL     1       5.127  25.896  50.819  1.00  0.00     0.010 A 
HETATM   13  C   UNL     1       5.128  26.229  52.179  1.00  0.00     0.039 A 
BRANCH  11  14
HETATM   14  C   UNL     1       4.581  26.436  48.382  1.00  0.00     0.010 C 
HETATM   15  C   UNL     1       4.906  27.665  47.528  1.00  0.00     0.015 C 
HETATM   16  C   UNL     1       3.245  25.820  47.952  1.00  0.00     0.015 C 
ENDBRANCH  11  14
ENDBRANCH   6   7
ENDBRANCH   5   6
ENDBRANCH   1   5
BRANCH   2  17
HETATM   17  N   UNL     1       7.020  25.857  55.485  1.00  0.00    -0.184 NA
HETATM   18  C   UNL     1       6.533  24.667  55.328  1.00  0.00     0.152 C 
BRANCH  18  19
HETATM   19  C   UNL     1       7.175  23.742  54.419  1.00  0.00     0.011 A 
HETATM   20  C   UNL     1       7.659  22.428  54.718  1.00  0.00     0.004 A 
HETATM   21  C   UNL     1       8.213  21.912  53.545  1.00  0.00     0.043 A 
HETATM   22  C   UNL     1       7.677  21.624  55.878  1.00  0.00     0.014 A 
HETATM   23  C   UNL     1       8.786  20.636  53.475  1.00  0.00     0.030 A 
HETATM   24  N   UNL     1       8.075  22.874  52.573  1.00  0.00    -0.364 N 
HETATM   25  C   UNL     1       8.789  19.860  54.638  1.00  0.00     0.002 A 
HETATM   26  C   UNL     1       8.243  20.344  55.823  1.00  0.00     0.001 A 
HETATM   27  H   UNL     1       8.395  22.777  51.619  1.00  0.00     0.165 HD
HETATM   28  C   UNL     1       7.447  23.975  53.085  1.00  0.00     0.102 A 
ENDBRANCH  18  19
ENDBRANCH   2  17
TORSDOF 6
ENDMDL
