MODEL 1
REMARK VINA RESULT:      -9.9      0.000      0.000
REMARK  5 active torsions:
REMARK  status: ('A' for Active; 'I' for Inactive)
REMARK    1  A    between atoms: C_4  and  N_5 
REMARK       I    between atoms: N_5  and  C_6 
REMARK       I    between atoms: C_6  and  N_7 
REMARK    2  A    between atoms: N_7  and  C_8 
REMARK    3  A    between atoms: C_8  and  C_9 
REMARK       I    between atoms: C_9  and  N_10 
REMARK    4  A    between atoms: N_10  and  C_11 
REMARK    5  A    between atoms: C_13  and  C_14 
ROOT
HETATM    1  C   UNL     1       7.015  27.448  56.271  1.00  0.00     0.239 C 
HETATM    2  N   UNL     1       6.616  26.216  55.786  1.00  0.00    -0.326 N 
HETATM    3  O   UNL     1       8.028  28.068  55.955  1.00  0.00    -0.271 OA
HETATM    4  H   UNL     1       5.846  25.777  56.296  1.00  0.00     0.169 HD
ENDROOT
BRANCH   1   5
HETATM    5  C   UNL     1       5.990  28.058  57.242  1.00  0.00     0.227 C 
BRANCH   5   6
HETATM    6  N   UNL     1       6.435  29.227  57.983  1.00  0.00    -0.334 N 
HETATM    7  C   UNL     1       5.971  30.465  57.676  1.00  0.00     0.321 C 
HETATM    8  N   UNL     1       6.567  31.538  58.263  1.00  0.00    -0.309 N 
HETATM    9  O   UNL     1       5.074  30.643  56.852  1.00  0.00    -0.247 OA
HETATM   10  H   UNL     1       6.246  32.401  57.839  1.00  0.00     0.170 HD
HETATM   11  H   UNL     1       7.423  29.229  58.188  1.00  0.00     0.164 HD
BRANCH   8  12
HETATM   12  C   UNL     1       7.540  31.675  59.273  1.00  0.00     0.036 A 
HETATM   13  C   UNL     1       7.264  31.897  60.626  1.00  0.00     0.036 A 
HETATM   14  C   UNL     1       8.301  31.950  61.574  1.00  0.00    -0.060 A 
HETATM   15  C   UNL     1       7.995  32.179  63.026  1.00  0.00     0.048 C 
HETATM   16  C   UNL     1       9.628  31.846  61.146  1.00  0.00     0.007 A 
HETATM   17  C   UNL     1       9.916  31.679  59.796  1.00  0.00     0.003 A 
HETATM   18  C   UNL     1       8.878  31.598  58.866  1.00  0.00     0.029 A 
ENDBRANCH   8  12
ENDBRANCH   5   6
ENDBRANCH   1   5
BRANCH   2  19
HETATM   19  C   UNL     1       7.146  25.492  54.701  1.00  0.00     0.035 A 
HETATM   20  C   UNL     1       7.569  24.178  54.960  1.00  0.00     0.042 A 
HETATM   21  C   UNL     1       8.036  23.345  53.930  1.00  0.00    -0.021 A 
HETATM   22  C   UNL     1       8.112  23.865  52.632  1.00  0.00     0.012 A 
HETATM   23  C   UNL     1       7.712  25.176  52.371  1.00  0.00     0.003 A 
HETATM   24  C   UNL     1       7.224  25.983  53.401  1.00  0.00     0.029 A 
BRANCH  21  25
HETATM   25  C   UNL     1       8.416  21.964  54.187  1.00  0.00     0.010 A 
HETATM   26  C   UNL     1       8.367  20.817  53.358  1.00  0.00     0.152 A 
HETATM   27  N   UNL     1       8.775  19.706  53.978  1.00  0.00    -0.187 NA
HETATM   28  N   UNL     1       9.084  20.134  55.211  1.00  0.00    -0.289 N 
HETATM   29  H   UNL     1       9.418  19.455  55.886  1.00  0.00     0.188 HD
HETATM   30  C   UNL     1       8.886  21.473  55.388  1.00  0.00     0.123 A 
ENDBRANCH  21  25
ENDBRANCH   2  19
TORSDOF 5
ENDMDL
MODEL 2
REMARK VINA RESULT:      -9.6      2.530     10.040
REMARK  5 active torsions:
REMARK  status: ('A' for Active; 'I' for Inactive)
REMARK    1  A    between atoms: C_4  and  N_5 
REMARK       I    between atoms: N_5  and  C_6 
REMARK       I    between atoms: C_6  and  N_7 
REMARK    2  A    between atoms: N_7  and  C_8 
REMARK    3  A    between atoms: C_8  and  C_9 
REMARK       I    between atoms: C_9  and  N_10 
REMARK    4  A    between atoms: N_10  and  C_11 
REMARK    5  A    between atoms: C_13  and  C_14 
ROOT
HETATM    1  C   UNL     1       7.665  29.470  57.766  1.00  0.00     0.239 C 
HETATM    2  N   UNL     1       7.790  30.776  58.205  1.00  0.00    -0.326 N 
HETATM    3  O   UNL     1       7.965  28.455  58.391  1.00  0.00    -0.271 OA
HETATM    4  H   UNL     1       7.662  31.490  57.484  1.00  0.00     0.169 HD
ENDROOT
BRANCH   1   5
HETATM    5  C   UNL     1       7.010  29.375  56.379  1.00  0.00     0.227 C 
BRANCH   5   6
HETATM    6  N   UNL     1       6.674  28.036  55.925  1.00  0.00    -0.334 N 
HETATM    7  C   UNL     1       5.411  27.552  56.052  1.00  0.00     0.321 C 
HETATM    8  N   UNL     1       5.200  26.233  55.799  1.00  0.00    -0.309 N 
HETATM    9  O   UNL     1       4.477  28.255  56.437  1.00  0.00    -0.247 OA
HETATM   10  H   UNL     1       4.265  25.961  56.079  1.00  0.00     0.170 HD
HETATM   11  H   UNL     1       7.372  27.342  56.147  1.00  0.00     0.164 HD
BRANCH   8  12
HETATM   12  C   UNL     1       6.012  25.201  55.286  1.00  0.00     0.036 A 
HETATM   13  C   UNL     1       6.817  24.357  56.056  1.00  0.00     0.036 A 
HETATM   14  C   UNL     1       7.539  23.308  55.461  1.00  0.00    -0.060 A 
HETATM   15  C   UNL     1       8.394  22.400  56.297  1.00  0.00     0.048 C 
HETATM   16  C   UNL     1       7.501  23.151  54.072  1.00  0.00     0.007 A 
HETATM   17  C   UNL     1       6.746  24.019  53.291  1.00  0.00     0.003 A 
HETATM   18  C   UNL     1       6.009  25.040  53.895  1.00  0.00     0.029 A 
ENDBRANCH   8  12
ENDBRANCH   5   6
ENDBRANCH   1   5
BRANCH   2  19
HETATM   19  C   UNL     1       8.086  31.237  59.501  1.00  0.00     0.035 A 
HETATM   20  C   UNL     1       7.001  31.639  60.297  1.00  0.00     0.042 A 
HETATM   21  C   UNL     1       7.182  32.037  61.632  1.00  0.00    -0.021 A 
HETATM   22  C   UNL     1       8.482  32.065  62.151  1.00  0.00     0.012 A 
HETATM   23  C   UNL     1       9.568  31.686  61.360  1.00  0.00     0.003 A 
HETATM   24  C   UNL     1       9.369  31.266  60.043  1.00  0.00     0.029 A 
BRANCH  21  25
HETATM   25  C   UNL     1       6.051  32.395  62.475  1.00  0.00     0.010 A 
HETATM   26  C   UNL     1       5.994  32.794  63.832  1.00  0.00     0.152 A 
HETATM   27  N   UNL     1       4.747  33.003  64.263  1.00  0.00    -0.187 NA
HETATM   28  N   UNL     1       3.996  32.734  63.184  1.00  0.00    -0.289 N 
HETATM   29  H   UNL     1       2.989  32.814  63.267  1.00  0.00     0.188 HD
HETATM   30  C   UNL     1       4.726  32.364  62.092  1.00  0.00     0.123 A 
ENDBRANCH  21  25
ENDBRANCH   2  19
TORSDOF 5
ENDMDL
MODEL 3
REMARK VINA RESULT:      -9.4      2.147      9.266
REMARK  5 active torsions:
REMARK  status: ('A' for Active; 'I' for Inactive)
REMARK    1  A    between atoms: C_4  and  N_5 
REMARK       I    between atoms: N_5  and  C_6 
REMARK       I    between atoms: C_6  and  N_7 
REMARK    2  A    between atoms: N_7  and  C_8 
REMARK    3  A    between atoms: C_8  and  C_9 
REMARK       I    between atoms: C_9  and  N_10 
REMARK    4  A    between atoms: N_10  and  C_11 
REMARK    5  A    between atoms: C_13  and  C_14 
ROOT
HETATM    1  C   UNL     1       6.137  27.999  55.603  1.00  0.00     0.239 C 
HETATM    2  N   UNL     1       7.063  27.789  56.609  1.00  0.00    -0.326 N 
HETATM    3  O   UNL     1       5.867  29.070  55.066  1.00  0.00    -0.271 OA
HETATM    4  H   UNL     1       7.020  26.869  57.054  1.00  0.00     0.169 HD
ENDROOT
BRANCH   1   5
HETATM    5  C   UNL     1       5.483  26.692  55.123  1.00  0.00     0.227 C 
BRANCH   5   6
HETATM    6  N   UNL     1       6.395  25.603  54.813  1.00  0.00    -0.334 N 
HETATM    7  C   UNL     1       7.408  25.773  53.925  1.00  0.00     0.321 C 
HETATM    8  N   UNL     1       8.101  24.674  53.522  1.00  0.00    -0.309 N 
HETATM    9  O   UNL     1       7.676  26.873  53.441  1.00  0.00    -0.247 OA
HETATM   10  H   UNL     1       8.716  24.903  52.750  1.00  0.00     0.170 HD
HETATM   11  H   UNL     1       5.941  24.708  54.707  1.00  0.00     0.164 HD
BRANCH   8  12
HETATM   12  C   UNL     1       8.097  23.324  53.924  1.00  0.00     0.036 A 
HETATM   13  C   UNL     1       8.288  22.877  55.235  1.00  0.00     0.036 A 
HETATM   14  C   UNL     1       8.197  21.510  55.552  1.00  0.00    -0.060 A 
HETATM   15  C   UNL     1       8.395  21.040  56.964  1.00  0.00     0.048 C 
HETATM   16  C   UNL     1       7.977  20.582  54.530  1.00  0.00     0.007 A 
HETATM   17  C   UNL     1       7.839  21.011  53.214  1.00  0.00     0.003 A 
HETATM   18  C   UNL     1       7.902  22.373  52.914  1.00  0.00     0.029 A 
ENDBRANCH   8  12
ENDBRANCH   5   6
ENDBRANCH   1   5
BRANCH   2  19
HETATM   19  C   UNL     1       8.033  28.681  57.102  1.00  0.00     0.035 A 
HETATM   20  C   UNL     1       7.750  29.317  58.323  1.00  0.00     0.042 A 
HETATM   21  C   UNL     1       8.686  30.162  58.940  1.00  0.00    -0.021 A 
HETATM   22  C   UNL     1       9.905  30.395  58.293  1.00  0.00     0.012 A 
HETATM   23  C   UNL     1      10.186  29.783  57.070  1.00  0.00     0.003 A 
HETATM   24  C   UNL     1       9.256  28.924  56.482  1.00  0.00     0.029 A 
BRANCH  21  25
HETATM   25  C   UNL     1       8.417  30.772  60.234  1.00  0.00     0.010 A 
HETATM   26  C   UNL     1       7.414  31.685  60.640  1.00  0.00     0.152 A 
HETATM   27  N   UNL     1       7.523  32.044  61.922  1.00  0.00    -0.187 NA
HETATM   28  N   UNL     1       8.602  31.367  62.344  1.00  0.00    -0.289 N 
HETATM   29  H   UNL     1       8.898  31.486  63.307  1.00  0.00     0.188 HD
HETATM   30  C   UNL     1       9.173  30.595  61.374  1.00  0.00     0.123 A 
ENDBRANCH  21  25
ENDBRANCH   2  19
TORSDOF 5
ENDMDL
MODEL 4
REMARK VINA RESULT:      -9.3      4.809      8.350
REMARK  5 active torsions:
REMARK  status: ('A' for Active; 'I' for Inactive)
REMARK    1  A    between atoms: C_4  and  N_5 
REMARK       I    between atoms: N_5  and  C_6 
REMARK       I    between atoms: C_6  and  N_7 
REMARK    2  A    between atoms: N_7  and  C_8 
REMARK    3  A    between atoms: C_8  and  C_9 
REMARK       I    between atoms: C_9  and  N_10 
REMARK    4  A    between atoms: N_10  and  C_11 
REMARK    5  A    between atoms: C_13  and  C_14 
ROOT
HETATM    1  C   UNL     1       5.573  26.893  54.096  1.00  0.00     0.239 C 
HETATM    2  N   UNL     1       5.462  25.892  55.045  1.00  0.00    -0.326 N 
HETATM    3  O   UNL     1       6.613  27.343  53.623  1.00  0.00    -0.271 OA
HETATM    4  H   UNL     1       4.529  25.778  55.448  1.00  0.00     0.169 HD
ENDROOT
BRANCH   1   5
HETATM    5  C   UNL     1       4.204  27.376  53.589  1.00  0.00     0.227 C 
BRANCH   5   6
HETATM    6  N   UNL     1       4.085  27.547  52.150  1.00  0.00    -0.334 N 
HETATM    7  C   UNL     1       4.351  28.743  51.565  1.00  0.00     0.321 C 
HETATM    8  N   UNL     1       4.030  28.902  50.253  1.00  0.00    -0.309 N 
HETATM    9  O   UNL     1       4.817  29.691  52.197  1.00  0.00    -0.247 OA
HETATM   10  H   UNL     1       4.127  29.872  49.977  1.00  0.00     0.170 HD
HETATM   11  H   UNL     1       3.273  27.100  51.752  1.00  0.00     0.164 HD
BRANCH   8  12
HETATM   12  C   UNL     1       3.566  28.023  49.254  1.00  0.00     0.036 A 
HETATM   13  C   UNL     1       2.299  28.075  48.667  1.00  0.00     0.036 A 
HETATM   14  C   UNL     1       1.949  27.198  47.625  1.00  0.00    -0.060 A 
HETATM   15  C   UNL     1       0.589  27.267  46.994  1.00  0.00     0.048 C 
HETATM   16  C   UNL     1       2.860  26.218  47.219  1.00  0.00     0.007 A 
HETATM   17  C   UNL     1       4.104  26.123  47.834  1.00  0.00     0.003 A 
HETATM   18  C   UNL     1       4.453  27.018  48.847  1.00  0.00     0.029 A 
ENDBRANCH   8  12
ENDBRANCH   5   6
ENDBRANCH   1   5
BRANCH   2  19
HETATM   19  C   UNL     1       6.467  25.036  55.532  1.00  0.00     0.035 A 
HETATM   20  C   UNL     1       6.709  23.860  54.803  1.00  0.00     0.042 A 
HETATM   21  C   UNL     1       7.744  22.979  55.158  1.00  0.00    -0.021 A 
HETATM   22  C   UNL     1       8.516  23.277  56.287  1.00  0.00     0.012 A 
HETATM   23  C   UNL     1       8.270  24.435  57.028  1.00  0.00     0.003 A 
HETATM   24  C   UNL     1       7.254  25.314  56.647  1.00  0.00     0.029 A 
BRANCH  21  25
HETATM   25  C   UNL     1       8.033  21.793  54.367  1.00  0.00     0.010 A 
HETATM   26  C   UNL     1       8.649  20.568  54.722  1.00  0.00     0.152 A 
HETATM   27  N   UNL     1       8.770  19.727  53.691  1.00  0.00    -0.187 NA
HETATM   28  N   UNL     1       8.236  20.410  52.668  1.00  0.00    -0.289 N 
HETATM   29  H   UNL     1       8.220  19.973  51.753  1.00  0.00     0.188 HD
HETATM   30  C   UNL     1       7.783  21.649  53.018  1.00  0.00     0.123 A 
ENDBRANCH  21  25
ENDBRANCH   2  19
TORSDOF 5
ENDMDL
MODEL 5
REMARK VINA RESULT:      -9.2      4.752      8.585
REMARK  5 active torsions:
REMARK  status: ('A' for Active; 'I' for Inactive)
REMARK    1  A    between atoms: C_4  and  N_5 
REMARK       I    between atoms: N_5  and  C_6 
REMARK       I    between atoms: C_6  and  N_7 
REMARK    2  A    between atoms: N_7  and  C_8 
REMARK    3  A    between atoms: C_8  and  C_9 
REMARK       I    between atoms: C_9  and  N_10 
REMARK    4  A    between atoms: N_10  and  C_11 
REMARK    5  A    between atoms: C_13  and  C_14 
ROOT
HETATM    1  C   UNL     1       5.362  25.914  53.730  1.00  0.00     0.239 C 
HETATM    2  N   UNL     1       6.498  26.185  54.472  1.00  0.00    -0.326 N 
HETATM    3  O   UNL     1       4.863  24.810  53.530  1.00  0.00    -0.271 OA
HETATM    4  H   UNL     1       6.862  27.137  54.377  1.00  0.00     0.169 HD
ENDROOT
BRANCH   1   5
HETATM    5  C   UNL     1       4.683  27.191  53.207  1.00  0.00     0.227 C 
BRANCH   5   6
HETATM    6  N   UNL     1       4.467  27.252  51.771  1.00  0.00    -0.334 N 
HETATM    7  C   UNL     1       5.083  28.195  51.013  1.00  0.00     0.321 C 
HETATM    8  N   UNL     1       4.693  28.334  49.717  1.00  0.00    -0.309 N 
HETATM    9  O   UNL     1       5.936  28.953  51.476  1.00  0.00    -0.247 OA
HETATM   10  H   UNL     1       5.106  29.164  49.307  1.00  0.00     0.170 HD
HETATM   11  H   UNL     1       3.507  27.109  51.495  1.00  0.00     0.164 HD
BRANCH   8  12
HETATM   12  C   UNL     1       3.826  27.603  48.882  1.00  0.00     0.036 A 
HETATM   13  C   UNL     1       2.582  28.053  48.428  1.00  0.00     0.036 A 
HETATM   14  C   UNL     1       1.816  27.280  47.538  1.00  0.00    -0.060 A 
HETATM   15  C   UNL     1       0.486  27.775  47.048  1.00  0.00     0.048 C 
HETATM   16  C   UNL     1       2.277  26.016  47.155  1.00  0.00     0.007 A 
HETATM   17  C   UNL     1       3.487  25.536  47.644  1.00  0.00     0.003 A 
HETATM   18  C   UNL     1       4.254  26.324  48.504  1.00  0.00     0.029 A 
ENDBRANCH   8  12
ENDBRANCH   5   6
ENDBRANCH   1   5
BRANCH   2  19
HETATM   19  C   UNL     1       7.217  25.318  55.316  1.00  0.00     0.035 A 
HETATM   20  C   UNL     1       7.446  24.016  54.843  1.00  0.00     0.042 A 
HETATM   21  C   UNL     1       8.221  23.099  55.572  1.00  0.00    -0.021 A 
HETATM   22  C   UNL     1       8.737  23.497  56.811  1.00  0.00     0.012 A 
HETATM   23  C   UNL     1       8.497  24.784  57.298  1.00  0.00     0.003 A 
HETATM   24  C   UNL     1       7.746  25.692  56.548  1.00  0.00     0.029 A 
BRANCH  21  25
HETATM   25  C   UNL     1       8.510  21.771  55.053  1.00  0.00     0.010 A 
HETATM   26  C   UNL     1       8.413  21.245  53.742  1.00  0.00     0.152 A 
HETATM   27  N   UNL     1       8.736  19.950  53.673  1.00  0.00    -0.187 NA
HETATM   28  N   UNL     1       9.038  19.638  54.943  1.00  0.00    -0.289 N 
HETATM   29  H   UNL     1       9.312  18.684  55.151  1.00  0.00     0.188 HD
HETATM   30  C   UNL     1       8.917  20.689  55.805  1.00  0.00     0.123 A 
ENDBRANCH  21  25
ENDBRANCH   2  19
TORSDOF 5
ENDMDL
MODEL 6
REMARK VINA RESULT:      -9.1      1.925      2.737
REMARK  5 active torsions:
REMARK  status: ('A' for Active; 'I' for Inactive)
REMARK    1  A    between atoms: C_4  and  N_5 
REMARK       I    between atoms: N_5  and  C_6 
REMARK       I    between atoms: C_6  and  N_7 
REMARK    2  A    between atoms: N_7  and  C_8 
REMARK    3  A    between atoms: C_8  and  C_9 
REMARK       I    between atoms: C_9  and  N_10 
REMARK    4  A    between atoms: N_10  and  C_11 
REMARK    5  A    between atoms: C_13  and  C_14 
ROOT
HETATM    1  C   UNL     1       7.874  28.332  56.876  1.00  0.00     0.239 C 
HETATM    2  N   UNL     1       7.993  27.846  55.586  1.00  0.00    -0.326 N 
HETATM    3  O   UNL     1       6.919  28.176  57.633  1.00  0.00    -0.271 OA
HETATM    4  H   UNL     1       8.776  28.229  55.049  1.00  0.00     0.169 HD
ENDROOT
BRANCH   1   5
HETATM    5  C   UNL     1       9.142  29.063  57.349  1.00  0.00     0.227 C 
BRANCH   5   6
HETATM    6  N   UNL     1       8.938  30.117  58.330  1.00  0.00    -0.334 N 
HETATM    7  C   UNL     1       9.809  31.154  58.430  1.00  0.00     0.321 C 
HETATM    8  N   UNL     1       9.684  31.998  59.489  1.00  0.00    -0.309 N 
HETATM    9  O   UNL     1      10.728  31.317  57.627  1.00  0.00    -0.247 OA
HETATM   10  H   UNL     1      10.477  32.627  59.539  1.00  0.00     0.170 HD
HETATM   11  H   UNL     1       8.639  29.781  59.234  1.00  0.00     0.164 HD
BRANCH   8  12
HETATM   12  C   UNL     1       8.728  32.132  60.515  1.00  0.00     0.036 A 
HETATM   13  C   UNL     1       7.390  32.488  60.323  1.00  0.00     0.036 A 
HETATM   14  C   UNL     1       6.491  32.528  61.403  1.00  0.00    -0.060 A 
HETATM   15  C   UNL     1       5.053  32.902  61.185  1.00  0.00     0.048 C 
HETATM   16  C   UNL     1       6.959  32.272  62.695  1.00  0.00     0.007 A 
HETATM   17  C   UNL     1       8.300  31.969  62.905  1.00  0.00     0.003 A 
HETATM   18  C   UNL     1       9.179  31.903  61.822  1.00  0.00     0.029 A 
ENDBRANCH   8  12
ENDBRANCH   5   6
ENDBRANCH   1   5
BRANCH   2  19
HETATM   19  C   UNL     1       7.170  26.918  54.924  1.00  0.00     0.035 A 
HETATM   20  C   UNL     1       7.633  25.594  54.852  1.00  0.00     0.042 A 
HETATM   21  C   UNL     1       6.850  24.575  54.284  1.00  0.00    -0.021 A 
HETATM   22  C   UNL     1       5.601  24.913  53.749  1.00  0.00     0.012 A 
HETATM   23  C   UNL     1       5.142  26.230  53.798  1.00  0.00     0.003 A 
HETATM   24  C   UNL     1       5.921  27.226  54.390  1.00  0.00     0.029 A 
BRANCH  21  25
HETATM   25  C   UNL     1       7.304  23.193  54.266  1.00  0.00     0.010 A 
HETATM   26  C   UNL     1       7.505  22.268  55.319  1.00  0.00     0.152 A 
HETATM   27  N   UNL     1       7.972  21.090  54.896  1.00  0.00    -0.187 NA
HETATM   28  N   UNL     1       8.077  21.255  53.569  1.00  0.00    -0.289 N 
HETATM   29  H   UNL     1       8.428  20.482  53.014  1.00  0.00     0.188 HD
HETATM   30  C   UNL     1       7.693  22.493  53.143  1.00  0.00     0.123 A 
ENDBRANCH  21  25
ENDBRANCH   2  19
TORSDOF 5
ENDMDL
MODEL 7
REMARK VINA RESULT:      -8.7      4.783      8.525
REMARK  5 active torsions:
REMARK  status: ('A' for Active; 'I' for Inactive)
REMARK    1  A    between atoms: C_4  and  N_5 
REMARK       I    between atoms: N_5  and  C_6 
REMARK       I    between atoms: C_6  and  N_7 
REMARK    2  A    between atoms: N_7  and  C_8 
REMARK    3  A    between atoms: C_8  and  C_9 
REMARK       I    between atoms: C_9  and  N_10 
REMARK    4  A    between atoms: N_10  and  C_11 
REMARK    5  A    between atoms: C_13  and  C_14 
ROOT
HETATM    1  C   UNL     1       5.658  27.157  55.306  1.00  0.00     0.239 C 
HETATM    2  N   UNL     1       4.637  27.046  54.380  1.00  0.00    -0.326 N 
HETATM    3  O   UNL     1       6.585  27.963  55.282  1.00  0.00    -0.271 OA
HETATM    4  H   UNL     1       4.062  26.204  54.467  1.00  0.00     0.169 HD
ENDROOT
BRANCH   1   5
HETATM    5  C   UNL     1       5.493  26.183  56.485  1.00  0.00     0.227 C 
BRANCH   5   6
HETATM    6  N   UNL     1       6.382  25.033  56.489  1.00  0.00    -0.334 N 
HETATM    7  C   UNL     1       7.613  25.106  57.059  1.00  0.00     0.321 C 
HETATM    8  N   UNL     1       8.475  24.073  56.858  1.00  0.00    -0.309 N 
HETATM    9  O   UNL     1       7.981  26.091  57.698  1.00  0.00    -0.247 OA
HETATM   10  H   UNL     1       9.401  24.311  57.194  1.00  0.00     0.170 HD
HETATM   11  H   UNL     1       6.394  24.523  55.619  1.00  0.00     0.164 HD
BRANCH   8  12
HETATM   12  C   UNL     1       8.347  22.805  56.258  1.00  0.00     0.036 A 
HETATM   13  C   UNL     1       8.192  22.578  54.888  1.00  0.00     0.036 A 
HETATM   14  C   UNL     1       8.143  21.271  54.373  1.00  0.00    -0.060 A 
HETATM   15  C   UNL     1       7.985  21.038  52.898  1.00  0.00     0.048 C 
HETATM   16  C   UNL     1       8.184  20.186  55.253  1.00  0.00     0.007 A 
HETATM   17  C   UNL     1       8.283  20.400  56.623  1.00  0.00     0.003 A 
HETATM   18  C   UNL     1       8.361  21.702  57.122  1.00  0.00     0.029 A 
ENDBRANCH   8  12
ENDBRANCH   5   6
ENDBRANCH   1   5
BRANCH   2  19
HETATM   19  C   UNL     1       4.307  27.927  53.334  1.00  0.00     0.035 A 
HETATM   20  C   UNL     1       4.408  27.428  52.026  1.00  0.00     0.042 A 
HETATM   21  C   UNL     1       4.025  28.200  50.917  1.00  0.00    -0.021 A 
HETATM   22  C   UNL     1       3.571  29.506  51.137  1.00  0.00     0.012 A 
HETATM   23  C   UNL     1       3.486  30.017  52.434  1.00  0.00     0.003 A 
HETATM   24  C   UNL     1       3.845  29.227  53.528  1.00  0.00     0.029 A 
BRANCH  21  25
HETATM   25  C   UNL     1       4.072  27.661  49.566  1.00  0.00     0.010 A 
HETATM   26  C   UNL     1       4.610  26.450  49.068  1.00  0.00     0.152 A 
HETATM   27  N   UNL     1       4.490  26.331  47.743  1.00  0.00    -0.187 NA
HETATM   28  N   UNL     1       3.877  27.469  47.383  1.00  0.00    -0.289 N 
HETATM   29  H   UNL     1       3.681  27.619  46.400  1.00  0.00     0.188 HD
HETATM   30  C   UNL     1       3.609  28.298  48.434  1.00  0.00     0.123 A 
ENDBRANCH  21  25
ENDBRANCH   2  19
TORSDOF 5
ENDMDL
MODEL 8
REMARK VINA RESULT:      -8.4      2.144     10.081
REMARK  5 active torsions:
REMARK  status: ('A' for Active; 'I' for Inactive)
REMARK    1  A    between atoms: C_4  and  N_5 
REMARK       I    between atoms: N_5  and  C_6 
REMARK       I    between atoms: C_6  and  N_7 
REMARK    2  A    between atoms: N_7  and  C_8 
REMARK    3  A    between atoms: C_8  and  C_9 
REMARK       I    between atoms: C_9  and  N_10 
REMARK    4  A    between atoms: N_10  and  C_11 
REMARK    5  A    between atoms: C_13  and  C_14 
ROOT
HETATM    1  C   UNL     1       7.785  29.017  56.707  1.00  0.00     0.239 C 
HETATM    2  N   UNL     1       7.314  29.871  57.689  1.00  0.00    -0.326 N 
HETATM    3  O   UNL     1       8.940  28.940  56.295  1.00  0.00    -0.271 OA
HETATM    4  H   UNL     1       6.295  29.920  57.769  1.00  0.00     0.169 HD
ENDROOT
BRANCH   1   5
HETATM    5  C   UNL     1       6.700  28.057  56.192  1.00  0.00     0.227 C 
BRANCH   5   6
HETATM    6  N   UNL     1       7.178  26.871  55.501  1.00  0.00    -0.334 N 
HETATM    7  C   UNL     1       7.330  26.864  54.152  1.00  0.00     0.321 C 
HETATM    8  N   UNL     1       7.584  25.676  53.540  1.00  0.00    -0.309 N 
HETATM    9  O   UNL     1       7.191  27.881  53.472  1.00  0.00    -0.247 OA
HETATM   10  H   UNL     1       7.519  25.772  52.534  1.00  0.00     0.170 HD
HETATM   11  H   UNL     1       6.781  26.010  55.845  1.00  0.00     0.164 HD
BRANCH   8  12
HETATM   12  C   UNL     1       7.865  24.380  54.017  1.00  0.00     0.036 A 
HETATM   13  C   UNL     1       7.814  23.214  53.247  1.00  0.00     0.036 A 
HETATM   14  C   UNL     1       8.181  21.972  53.793  1.00  0.00    -0.060 A 
HETATM   15  C   UNL     1       8.132  20.727  52.956  1.00  0.00     0.048 C 
HETATM   16  C   UNL     1       8.538  21.894  55.142  1.00  0.00     0.007 A 
HETATM   17  C   UNL     1       8.541  23.040  55.932  1.00  0.00     0.003 A 
HETATM   18  C   UNL     1       8.203  24.273  55.372  1.00  0.00     0.029 A 
ENDBRANCH   8  12
ENDBRANCH   5   6
ENDBRANCH   1   5
BRANCH   2  19
HETATM   19  C   UNL     1       8.054  30.685  58.566  1.00  0.00     0.035 A 
HETATM   20  C   UNL     1       7.415  31.091  59.749  1.00  0.00     0.042 A 
HETATM   21  C   UNL     1       8.093  31.836  60.727  1.00  0.00    -0.021 A 
HETATM   22  C   UNL     1       9.421  32.207  60.483  1.00  0.00     0.012 A 
HETATM   23  C   UNL     1      10.058  31.825  59.301  1.00  0.00     0.003 A 
HETATM   24  C   UNL     1       9.378  31.060  58.350  1.00  0.00     0.029 A 
BRANCH  21  25
HETATM   25  C   UNL     1       7.451  32.203  61.980  1.00  0.00     0.010 A 
HETATM   26  C   UNL     1       6.088  32.430  62.293  1.00  0.00     0.152 A 
HETATM   27  N   UNL     1       5.898  32.791  63.565  1.00  0.00    -0.187 NA
HETATM   28  N   UNL     1       7.139  32.802  64.074  1.00  0.00    -0.289 N 
HETATM   29  H   UNL     1       7.258  33.062  65.047  1.00  0.00     0.188 HD
HETATM   30  C   UNL     1       8.102  32.462  63.168  1.00  0.00     0.123 A 
ENDBRANCH  21  25
ENDBRANCH   2  19
TORSDOF 5
ENDMDL
MODEL 9
REMARK VINA RESULT:      -8.4      2.149      9.612
REMARK  5 active torsions:
REMARK  status: ('A' for Active; 'I' for Inactive)
REMARK    1  A    between atoms: C_4  and  N_5 
REMARK       I    between atoms: N_5  and  C_6 
REMARK       I    between atoms: C_6  and  N_7 
REMARK    2  A    between atoms: N_7  and  C_8 
REMARK    3  A    between atoms: C_8  and  C_9 
REMARK       I    between atoms: C_9  and  N_10 
REMARK    4  A    between atoms: N_10  and  C_11 
REMARK    5  A    between atoms: C_13  and  C_14 
ROOT
HETATM    1  C   UNL     1       6.011  27.485  56.028  1.00  0.00     0.239 C 
HETATM    2  N   UNL     1       6.806  28.599  56.231  1.00  0.00    -0.326 N 
HETATM    3  O   UNL     1       4.963  27.216  56.610  1.00  0.00    -0.271 OA
HETATM    4  H   UNL     1       7.727  28.561  55.788  1.00  0.00     0.169 HD
ENDROOT
BRANCH   1   5
HETATM    5  C   UNL     1       6.530  26.590  54.890  1.00  0.00     0.227 C 
BRANCH   5   6
HETATM    6  N   UNL     1       7.103  25.317  55.295  1.00  0.00    -0.334 N 
HETATM    7  C   UNL     1       8.074  25.258  56.243  1.00  0.00     0.321 C 
HETATM    8  N   UNL     1       8.711  24.073  56.437  1.00  0.00    -0.309 N 
HETATM    9  O   UNL     1       8.423  26.250  56.884  1.00  0.00    -0.247 OA
HETATM   10  H   UNL     1       9.511  24.194  57.047  1.00  0.00     0.170 HD
HETATM   11  H   UNL     1       7.280  24.687  54.528  1.00  0.00     0.164 HD
BRANCH   8  12
HETATM   12  C   UNL     1       8.511  22.770  55.938  1.00  0.00     0.036 A 
HETATM   13  C   UNL     1       8.484  22.426  54.584  1.00  0.00     0.036 A 
HETATM   14  C   UNL     1       8.347  21.085  54.183  1.00  0.00    -0.060 A 
HETATM   15  C   UNL     1       8.329  20.723  52.726  1.00  0.00     0.048 C 
HETATM   16  C   UNL     1       8.171  20.094  55.152  1.00  0.00     0.007 A 
HETATM   17  C   UNL     1       8.142  20.432  56.501  1.00  0.00     0.003 A 
HETATM   18  C   UNL     1       8.307  21.763  56.890  1.00  0.00     0.029 A 
ENDBRANCH   8  12
ENDBRANCH   5   6
ENDBRANCH   1   5
BRANCH   2  19
HETATM   19  C   UNL     1       6.515  29.754  56.980  1.00  0.00     0.035 A 
HETATM   20  C   UNL     1       7.217  29.924  58.185  1.00  0.00     0.042 A 
HETATM   21  C   UNL     1       7.060  31.082  58.965  1.00  0.00    -0.021 A 
HETATM   22  C   UNL     1       6.152  32.058  58.536  1.00  0.00     0.012 A 
HETATM   23  C   UNL     1       5.436  31.887  57.350  1.00  0.00     0.003 A 
HETATM   24  C   UNL     1       5.624  30.743  56.572  1.00  0.00     0.029 A 
BRANCH  21  25
HETATM   25  C   UNL     1       7.832  31.286  60.181  1.00  0.00     0.010 A 
HETATM   26  C   UNL     1       7.602  32.126  61.297  1.00  0.00     0.152 A 
HETATM   27  N   UNL     1       8.574  32.059  62.210  1.00  0.00    -0.187 NA
HETATM   28  N   UNL     1       9.437  31.178  61.682  1.00  0.00    -0.289 N 
HETATM   29  H   UNL     1      10.282  30.963  62.199  1.00  0.00     0.188 HD
HETATM   30  C   UNL     1       9.041  30.689  60.471  1.00  0.00     0.123 A 
ENDBRANCH  21  25
ENDBRANCH   2  19
TORSDOF 5
ENDMDL
MODEL 10
REMARK VINA RESULT:      -8.3      2.701      4.382
REMARK  5 active torsions:
REMARK  status: ('A' for Active; 'I' for Inactive)
REMARK    1  A    between atoms: C_4  and  N_5 
REMARK       I    between atoms: N_5  and  C_6 
REMARK       I    between atoms: C_6  and  N_7 
REMARK    2  A    between atoms: N_7  and  C_8 
REMARK    3  A    between atoms: C_8  and  C_9 
REMARK       I    between atoms: C_9  and  N_10 
REMARK    4  A    between atoms: N_10  and  C_11 
REMARK    5  A    between atoms: C_13  and  C_14 
ROOT
HETATM    1  C   UNL     1       6.864  30.177  57.682  1.00  0.00     0.239 C 
HETATM    2  N   UNL     1       7.789  29.309  57.130  1.00  0.00    -0.326 N 
HETATM    3  O   UNL     1       5.663  29.970  57.832  1.00  0.00    -0.271 OA
HETATM    4  H   UNL     1       8.702  29.722  56.923  1.00  0.00     0.169 HD
ENDROOT
BRANCH   1   5
HETATM    5  C   UNL     1       7.509  31.474  58.198  1.00  0.00     0.227 C 
BRANCH   5   6
HETATM    6  N   UNL     1       7.486  31.666  59.639  1.00  0.00    -0.334 N 
HETATM    7  C   UNL     1       8.091  30.779  60.470  1.00  0.00     0.321 C 
HETATM    8  N   UNL     1       7.868  30.896  61.806  1.00  0.00    -0.309 N 
HETATM    9  O   UNL     1       8.783  29.853  60.047  1.00  0.00    -0.247 OA
HETATM   10  H   UNL     1       8.239  30.093  62.301  1.00  0.00     0.170 HD
HETATM   11  H   UNL     1       6.595  31.976  59.995  1.00  0.00     0.164 HD
BRANCH   8  12
HETATM   12  C   UNL     1       7.209  31.856  62.600  1.00  0.00     0.036 A 
HETATM   13  C   UNL     1       5.865  32.215  62.471  1.00  0.00     0.036 A 
HETATM   14  C   UNL     1       5.275  33.134  63.357  1.00  0.00    -0.060 A 
HETATM   15  C   UNL     1       3.828  33.507  63.217  1.00  0.00     0.048 C 
HETATM   16  C   UNL     1       6.064  33.745  64.336  1.00  0.00     0.007 A 
HETATM   17  C   UNL     1       7.416  33.435  64.439  1.00  0.00     0.003 A 
HETATM   18  C   UNL     1       7.985  32.499  63.573  1.00  0.00     0.029 A 
ENDBRANCH   8  12
ENDBRANCH   5   6
ENDBRANCH   1   5
BRANCH   2  19
HETATM   19  C   UNL     1       7.625  27.950  56.806  1.00  0.00     0.035 A 
HETATM   20  C   UNL     1       7.397  27.641  55.455  1.00  0.00     0.042 A 
HETATM   21  C   UNL     1       7.301  26.311  55.015  1.00  0.00    -0.021 A 
HETATM   22  C   UNL     1       7.399  25.285  55.963  1.00  0.00     0.012 A 
HETATM   23  C   UNL     1       7.606  25.584  57.311  1.00  0.00     0.003 A 
HETATM   24  C   UNL     1       7.726  26.911  57.728  1.00  0.00     0.029 A 
BRANCH  21  25
HETATM   25  C   UNL     1       7.127  25.990  53.606  1.00  0.00     0.010 A 
HETATM   26  C   UNL     1       6.108  26.351  52.691  1.00  0.00     0.152 A 
HETATM   27  N   UNL     1       6.285  25.821  51.478  1.00  0.00    -0.187 NA
HETATM   28  N   UNL     1       7.417  25.113  51.610  1.00  0.00    -0.289 N 
HETATM   29  H   UNL     1       7.760  24.600  50.805  1.00  0.00     0.188 HD
HETATM   30  C   UNL     1       7.957  25.180  52.861  1.00  0.00     0.123 A 
ENDBRANCH  21  25
ENDBRANCH   2  19
TORSDOF 5
ENDMDL
