MODEL 1
REMARK VINA RESULT:     -11.2      0.000      0.000
REMARK  5 active torsions:
REMARK  status: ('A' for Active; 'I' for Inactive)
REMARK    1  A    between atoms: C_5  and  N_6 
REMARK       I    between atoms: N_6  and  C_7 
REMARK       I    between atoms: C_7  and  N_8 
REMARK    2  A    between atoms: N_8  and  C_9 
REMARK    3  A    between atoms: C_11  and  C_12 
REMARK       I    between atoms: C_12  and  N_13 
REMARK    4  A    between atoms: N_13  and  C_14 
REMARK    5  A    between atoms: C_14  and  C_15 
ROOT
HETATM    1  C   UNL     1       8.830  28.927  56.990  1.00  0.00     0.175 A 
HETATM    2  S   UNL     1       8.242  28.831  55.405  1.00  0.00    -0.044 SA
HETATM    3  C   UNL     1       7.341  27.430  55.819  1.00  0.00     0.100 A 
HETATM    4  C   UNL     1       7.654  27.078  57.132  1.00  0.00     0.056 A 
HETATM    5  C   UNL     1       7.163  25.881  57.874  1.00  0.00     0.072 C 
HETATM    6  N   UNL     1       8.499  27.959  57.803  1.00  0.00    -0.228 NA
ENDROOT
BRANCH   1   7
HETATM    7  N   UNL     1       9.592  30.025  57.241  1.00  0.00    -0.287 N 
HETATM    8  C   UNL     1       9.496  30.861  58.313  1.00  0.00     0.326 C 
HETATM    9  N   UNL     1       8.600  30.522  59.291  1.00  0.00    -0.309 N 
HETATM   10  O   UNL     1      10.237  31.844  58.319  1.00  0.00    -0.247 OA
HETATM   11  H   UNL     1       8.131  29.630  59.155  1.00  0.00     0.170 HD
HETATM   12  H   UNL     1      10.277  30.295  56.552  1.00  0.00     0.172 HD
BRANCH   9  13
HETATM   13  C   UNL     1       8.309  31.223  60.477  1.00  0.00     0.036 A 
HETATM   14  C   UNL     1       7.531  32.381  60.524  1.00  0.00     0.030 A 
HETATM   15  C   UNL     1       7.287  33.025  61.742  1.00  0.00     0.009 A 
HETATM   16  C   UNL     1       7.817  32.523  62.933  1.00  0.00    -0.062 A 
HETATM   17  C   UNL     1       7.573  33.246  64.224  1.00  0.00     0.048 C 
HETATM   18  C   UNL     1       8.598  31.365  62.889  1.00  0.00     0.009 A 
HETATM   19  C   UNL     1       8.832  30.714  61.670  1.00  0.00     0.030 A 
ENDBRANCH   9  13
ENDBRANCH   1   7
BRANCH   3  20
HETATM   20  C   UNL     1       6.504  26.689  54.889  1.00  0.00     0.260 C 
HETATM   21  N   UNL     1       6.876  25.475  54.358  1.00  0.00    -0.352 N 
HETATM   22  H   UNL     1       6.145  25.080  53.775  1.00  0.00     0.163 HD
HETATM   23  O   UNL     1       5.420  27.132  54.500  1.00  0.00    -0.267 OA
BRANCH  21  24
HETATM   24  C   UNL     1       8.098  24.713  54.510  1.00  0.00     0.167 C 
BRANCH  24  25
HETATM   25  C   UNL     1       7.952  23.220  54.416  1.00  0.00     0.037 A 
HETATM   26  C   UNL     1       7.962  22.626  53.149  1.00  0.00     0.127 A 
HETATM   27  F   UNL     1       8.047  23.400  52.057  1.00  0.00    -0.205 F 
HETATM   28  C   UNL     1       7.904  21.244  52.980  1.00  0.00     0.043 A 
HETATM   29  C   UNL     1       7.843  20.415  54.097  1.00  0.00     0.006 A 
HETATM   30  C   UNL     1       7.846  20.980  55.371  1.00  0.00     0.043 A 
HETATM   31  C   UNL     1       7.908  22.367  55.518  1.00  0.00     0.127 A 
HETATM   32  F   UNL     1       7.929  22.870  56.761  1.00  0.00    -0.205 F 
ENDBRANCH  24  25
ENDBRANCH  21  24
ENDBRANCH   3  20
TORSDOF 5
ENDMDL
MODEL 2
REMARK VINA RESULT:     -11.0      0.164      1.534
REMARK  5 active torsions:
REMARK  status: ('A' for Active; 'I' for Inactive)
REMARK    1  A    between atoms: C_5  and  N_6 
REMARK       I    between atoms: N_6  and  C_7 
REMARK       I    between atoms: C_7  and  N_8 
REMARK    2  A    between atoms: N_8  and  C_9 
REMARK    3  A    between atoms: C_11  and  C_12 
REMARK       I    between atoms: C_12  and  N_13 
REMARK    4  A    between atoms: N_13  and  C_14 
REMARK    5  A    between atoms: C_14  and  C_15 
ROOT
HETATM    1  C   UNL     1       8.833  29.043  57.020  1.00  0.00     0.175 A 
HETATM    2  S   UNL     1       8.323  28.881  55.414  1.00  0.00    -0.044 SA
HETATM    3  C   UNL     1       7.432  27.475  55.834  1.00  0.00     0.100 A 
HETATM    4  C   UNL     1       7.688  27.174  57.171  1.00  0.00     0.056 A 
HETATM    5  C   UNL     1       7.187  25.992  57.929  1.00  0.00     0.072 C 
HETATM    6  N   UNL     1       8.482  28.095  57.850  1.00  0.00    -0.228 NA
ENDROOT
BRANCH   1   7
HETATM    7  N   UNL     1       9.560  30.165  57.269  1.00  0.00    -0.287 N 
HETATM    8  C   UNL     1       9.449  30.990  58.349  1.00  0.00     0.326 C 
HETATM    9  N   UNL     1       8.579  30.614  59.336  1.00  0.00    -0.309 N 
HETATM   10  O   UNL     1      10.155  31.998  58.351  1.00  0.00    -0.247 OA
HETATM   11  H   UNL     1       8.139  29.707  59.200  1.00  0.00     0.170 HD
HETATM   12  H   UNL     1      10.225  30.463  56.573  1.00  0.00     0.172 HD
BRANCH   9  13
HETATM   13  C   UNL     1       8.280  31.296  60.531  1.00  0.00     0.036 A 
HETATM   14  C   UNL     1       7.493  32.447  60.592  1.00  0.00     0.030 A 
HETATM   15  C   UNL     1       7.241  33.072  61.818  1.00  0.00     0.009 A 
HETATM   16  C   UNL     1       7.774  32.559  63.004  1.00  0.00    -0.062 A 
HETATM   17  C   UNL     1       7.521  33.262  64.303  1.00  0.00     0.048 C 
HETATM   18  C   UNL     1       8.563  31.407  62.944  1.00  0.00     0.009 A 
HETATM   19  C   UNL     1       8.805  30.775  61.718  1.00  0.00     0.030 A 
ENDBRANCH   9  13
ENDBRANCH   1   7
BRANCH   3  20
HETATM   20  C   UNL     1       6.655  26.685  54.891  1.00  0.00     0.260 C 
HETATM   21  N   UNL     1       7.023  25.418  54.502  1.00  0.00    -0.352 N 
HETATM   22  H   UNL     1       6.335  24.999  53.885  1.00  0.00     0.163 HD
HETATM   23  O   UNL     1       5.632  27.129  54.363  1.00  0.00    -0.267 OA
BRANCH  21  24
HETATM   24  C   UNL     1       8.192  24.630  54.835  1.00  0.00     0.167 C 
BRANCH  24  25
HETATM   25  C   UNL     1       8.126  23.176  54.463  1.00  0.00     0.037 A 
HETATM   26  C   UNL     1       8.055  22.226  55.489  1.00  0.00     0.127 A 
HETATM   27  F   UNL     1       8.102  22.630  56.767  1.00  0.00    -0.205 F 
HETATM   28  C   UNL     1       7.919  20.864  55.227  1.00  0.00     0.043 A 
HETATM   29  C   UNL     1       7.839  20.420  53.911  1.00  0.00     0.006 A 
HETATM   30  C   UNL     1       7.894  21.345  52.871  1.00  0.00     0.043 A 
HETATM   31  C   UNL     1       8.027  22.706  53.154  1.00  0.00     0.127 A 
HETATM   32  F   UNL     1       8.055  23.566  52.125  1.00  0.00    -0.205 F 
ENDBRANCH  24  25
ENDBRANCH  21  24
ENDBRANCH   3  20
TORSDOF 5
ENDMDL
MODEL 3
REMARK VINA RESULT:      -9.6      1.759      2.429
REMARK  5 active torsions:
REMARK  status: ('A' for Active; 'I' for Inactive)
REMARK    1  A    between atoms: C_5  and  N_6 
REMARK       I    between atoms: N_6  and  C_7 
REMARK       I    between atoms: C_7  and  N_8 
REMARK    2  A    between atoms: N_8  and  C_9 
REMARK    3  A    between atoms: C_11  and  C_12 
REMARK       I    between atoms: C_12  and  N_13 
REMARK    4  A    between atoms: N_13  and  C_14 
REMARK    5  A    between atoms: C_14  and  C_15 
ROOT
HETATM    1  C   UNL     1       7.589  29.719  56.841  1.00  0.00     0.175 A 
HETATM    2  S   UNL     1       7.766  28.478  55.704  1.00  0.00    -0.044 SA
HETATM    3  C   UNL     1       6.071  28.477  55.435  1.00  0.00     0.100 A 
HETATM    4  C   UNL     1       5.482  29.367  56.333  1.00  0.00     0.056 A 
HETATM    5  C   UNL     1       4.023  29.623  56.505  1.00  0.00     0.072 C 
HETATM    6  N   UNL     1       6.369  30.092  57.125  1.00  0.00    -0.228 NA
ENDROOT
BRANCH   1   7
HETATM    7  N   UNL     1       8.762  30.199  57.336  1.00  0.00    -0.287 N 
HETATM    8  C   UNL     1       8.953  30.815  58.537  1.00  0.00     0.326 C 
HETATM    9  N   UNL     1       7.879  30.885  59.381  1.00  0.00    -0.309 N 
HETATM   10  O   UNL     1      10.085  31.241  58.768  1.00  0.00    -0.247 OA
HETATM   11  H   UNL     1       7.042  30.406  59.056  1.00  0.00     0.170 HD
HETATM   12  H   UNL     1       9.581  30.147  56.750  1.00  0.00     0.172 HD
BRANCH   9  13
HETATM   13  C   UNL     1       7.819  31.476  60.658  1.00  0.00     0.036 A 
HETATM   14  C   UNL     1       8.495  30.983  61.775  1.00  0.00     0.030 A 
HETATM   15  C   UNL     1       8.384  31.623  63.014  1.00  0.00     0.009 A 
HETATM   16  C   UNL     1       7.594  32.767  63.158  1.00  0.00    -0.062 A 
HETATM   17  C   UNL     1       7.461  33.420  64.501  1.00  0.00     0.048 C 
HETATM   18  C   UNL     1       6.915  33.262  62.041  1.00  0.00     0.009 A 
HETATM   19  C   UNL     1       7.036  32.627  60.799  1.00  0.00     0.030 A 
ENDBRANCH   9  13
ENDBRANCH   1   7
BRANCH   3  20
HETATM   20  C   UNL     1       5.388  27.588  54.508  1.00  0.00     0.260 C 
HETATM   21  N   UNL     1       5.062  26.290  54.826  1.00  0.00    -0.352 N 
HETATM   22  H   UNL     1       4.541  25.839  54.081  1.00  0.00     0.163 HD
HETATM   23  O   UNL     1       5.092  27.948  53.366  1.00  0.00    -0.267 OA
BRANCH  21  24
HETATM   24  C   UNL     1       5.337  25.512  56.017  1.00  0.00     0.167 C 
BRANCH  24  25
HETATM   25  C   UNL     1       6.640  24.763  56.021  1.00  0.00     0.037 A 
HETATM   26  C   UNL     1       6.961  23.975  54.909  1.00  0.00     0.127 A 
HETATM   27  F   UNL     1       6.083  23.865  53.901  1.00  0.00    -0.205 F 
HETATM   28  C   UNL     1       8.180  23.308  54.803  1.00  0.00     0.043 A 
HETATM   29  C   UNL     1       9.122  23.428  55.822  1.00  0.00     0.006 A 
HETATM   30  C   UNL     1       8.833  24.217  56.933  1.00  0.00     0.043 A 
HETATM   31  C   UNL     1       7.607  24.880  57.018  1.00  0.00     0.127 A 
HETATM   32  F   UNL     1       7.376  25.646  58.094  1.00  0.00    -0.205 F 
ENDBRANCH  24  25
ENDBRANCH  21  24
ENDBRANCH   3  20
TORSDOF 5
ENDMDL
MODEL 4
REMARK VINA RESULT:      -9.6      1.596      2.535
REMARK  5 active torsions:
REMARK  status: ('A' for Active; 'I' for Inactive)
REMARK    1  A    between atoms: C_5  and  N_6 
REMARK       I    between atoms: N_6  and  C_7 
REMARK       I    between atoms: C_7  and  N_8 
REMARK    2  A    between atoms: N_8  and  C_9 
REMARK    3  A    between atoms: C_11  and  C_12 
REMARK       I    between atoms: C_12  and  N_13 
REMARK    4  A    between atoms: N_13  and  C_14 
REMARK    5  A    between atoms: C_14  and  C_15 
ROOT
HETATM    1  C   UNL     1       7.559  29.600  56.860  1.00  0.00     0.175 A 
HETATM    2  S   UNL     1       7.697  28.460  55.616  1.00  0.00    -0.044 SA
HETATM    3  C   UNL     1       5.997  28.500  55.384  1.00  0.00     0.100 A 
HETATM    4  C   UNL     1       5.437  29.315  56.368  1.00  0.00     0.056 A 
HETATM    5  C   UNL     1       3.985  29.570  56.592  1.00  0.00     0.072 C 
HETATM    6  N   UNL     1       6.349  29.959  57.201  1.00  0.00    -0.228 NA
ENDROOT
BRANCH   1   7
HETATM    7  N   UNL     1       8.746  30.024  57.369  1.00  0.00    -0.287 N 
HETATM    8  C   UNL     1       8.950  30.647  58.564  1.00  0.00     0.326 C 
HETATM    9  N   UNL     1       7.866  30.789  59.387  1.00  0.00    -0.309 N 
HETATM   10  O   UNL     1      10.099  31.016  58.809  1.00  0.00    -0.247 OA
HETATM   11  H   UNL     1       7.011  30.352  59.053  1.00  0.00     0.170 HD
HETATM   12  H   UNL     1       9.571  29.918  56.799  1.00  0.00     0.172 HD
BRANCH   9  13
HETATM   13  C   UNL     1       7.816  31.403  60.653  1.00  0.00     0.036 A 
HETATM   14  C   UNL     1       8.500  30.929  61.774  1.00  0.00     0.030 A 
HETATM   15  C   UNL     1       8.398  31.592  63.002  1.00  0.00     0.009 A 
HETATM   16  C   UNL     1       7.609  32.739  63.131  1.00  0.00    -0.062 A 
HETATM   17  C   UNL     1       7.486  33.416  64.463  1.00  0.00     0.048 C 
HETATM   18  C   UNL     1       6.922  33.214  62.010  1.00  0.00     0.009 A 
HETATM   19  C   UNL     1       7.035  32.556  60.779  1.00  0.00     0.030 A 
ENDBRANCH   9  13
ENDBRANCH   1   7
BRANCH   3  20
HETATM   20  C   UNL     1       5.285  27.701  54.399  1.00  0.00     0.260 C 
HETATM   21  N   UNL     1       5.152  26.336  54.504  1.00  0.00    -0.352 N 
HETATM   22  H   UNL     1       4.578  25.955  53.758  1.00  0.00     0.163 HD
HETATM   23  O   UNL     1       4.787  28.210  53.392  1.00  0.00    -0.267 OA
BRANCH  21  24
HETATM   24  C   UNL     1       5.681  25.408  55.482  1.00  0.00     0.167 C 
BRANCH  24  25
HETATM   25  C   UNL     1       6.740  24.466  54.981  1.00  0.00     0.037 A 
HETATM   26  C   UNL     1       7.774  24.100  55.851  1.00  0.00     0.127 A 
HETATM   27  F   UNL     1       7.825  24.636  57.079  1.00  0.00    -0.205 F 
HETATM   28  C   UNL     1       8.754  23.177  55.488  1.00  0.00     0.043 A 
HETATM   29  C   UNL     1       8.709  22.585  54.229  1.00  0.00     0.006 A 
HETATM   30  C   UNL     1       7.682  22.920  53.349  1.00  0.00     0.043 A 
HETATM   31  C   UNL     1       6.709  23.845  53.733  1.00  0.00     0.127 A 
HETATM   32  F   UNL     1       5.726  24.125  52.865  1.00  0.00    -0.205 F 
ENDBRANCH  24  25
ENDBRANCH  21  24
ENDBRANCH   3  20
TORSDOF 5
ENDMDL
MODEL 5
REMARK VINA RESULT:      -9.6      2.389      3.334
REMARK  5 active torsions:
REMARK  status: ('A' for Active; 'I' for Inactive)
REMARK    1  A    between atoms: C_5  and  N_6 
REMARK       I    between atoms: N_6  and  C_7 
REMARK       I    between atoms: C_7  and  N_8 
REMARK    2  A    between atoms: N_8  and  C_9 
REMARK    3  A    between atoms: C_11  and  C_12 
REMARK       I    between atoms: C_12  and  N_13 
REMARK    4  A    between atoms: N_13  and  C_14 
REMARK    5  A    between atoms: C_14  and  C_15 
ROOT
HETATM    1  C   UNL     1       7.651  29.451  57.295  1.00  0.00     0.175 A 
HETATM    2  S   UNL     1       8.175  27.846  57.414  1.00  0.00    -0.044 SA
HETATM    3  C   UNL     1       6.661  27.302  56.818  1.00  0.00     0.100 A 
HETATM    4  C   UNL     1       5.821  28.406  56.676  1.00  0.00     0.056 A 
HETATM    5  C   UNL     1       4.388  28.388  56.263  1.00  0.00     0.072 C 
HETATM    6  N   UNL     1       6.408  29.642  56.935  1.00  0.00    -0.228 NA
ENDROOT
BRANCH   1   7
HETATM    7  N   UNL     1       8.603  30.377  57.587  1.00  0.00    -0.287 N 
HETATM    8  C   UNL     1       8.660  31.172  58.693  1.00  0.00     0.326 C 
HETATM    9  N   UNL     1       7.714  30.966  59.660  1.00  0.00    -0.309 N 
HETATM   10  O   UNL     1       9.571  31.999  58.736  1.00  0.00    -0.247 OA
HETATM   11  H   UNL     1       7.087  30.183  59.490  1.00  0.00     0.170 HD
HETATM   12  H   UNL     1       9.329  30.542  56.907  1.00  0.00     0.172 HD
BRANCH   9  13
HETATM   13  C   UNL     1       7.554  31.659  60.876  1.00  0.00     0.036 A 
HETATM   14  C   UNL     1       6.640  32.697  61.063  1.00  0.00     0.030 A 
HETATM   15  C   UNL     1       6.540  33.342  62.300  1.00  0.00     0.009 A 
HETATM   16  C   UNL     1       7.354  32.962  63.371  1.00  0.00    -0.062 A 
HETATM   17  C   UNL     1       7.256  33.687  64.680  1.00  0.00     0.048 C 
HETATM   18  C   UNL     1       8.271  31.923  63.185  1.00  0.00     0.009 A 
HETATM   19  C   UNL     1       8.361  31.271  61.950  1.00  0.00     0.030 A 
ENDBRANCH   9  13
ENDBRANCH   1   7
BRANCH   3  20
HETATM   20  C   UNL     1       6.308  25.903  56.630  1.00  0.00     0.260 C 
HETATM   21  N   UNL     1       6.735  25.168  55.548  1.00  0.00    -0.352 N 
HETATM   22  H   UNL     1       6.440  24.199  55.612  1.00  0.00     0.163 HD
HETATM   23  O   UNL     1       5.574  25.309  57.423  1.00  0.00    -0.267 OA
BRANCH  21  24
HETATM   24  C   UNL     1       7.514  25.556  54.390  1.00  0.00     0.167 C 
BRANCH  24  25
HETATM   25  C   UNL     1       6.734  26.137  53.245  1.00  0.00     0.037 A 
HETATM   26  C   UNL     1       6.027  25.266  52.407  1.00  0.00     0.127 A 
HETATM   27  F   UNL     1       6.107  23.943  52.612  1.00  0.00    -0.205 F 
HETATM   28  C   UNL     1       5.223  25.730  51.368  1.00  0.00     0.043 A 
HETATM   29  C   UNL     1       5.100  27.100  51.151  1.00  0.00     0.006 A 
HETATM   30  C   UNL     1       5.781  27.989  51.979  1.00  0.00     0.043 A 
HETATM   31  C   UNL     1       6.580  27.504  53.016  1.00  0.00     0.127 A 
HETATM   32  F   UNL     1       7.202  28.393  53.804  1.00  0.00    -0.205 F 
ENDBRANCH  24  25
ENDBRANCH  21  24
ENDBRANCH   3  20
TORSDOF 5
ENDMDL
MODEL 6
REMARK VINA RESULT:      -9.5      5.380      8.514
REMARK  5 active torsions:
REMARK  status: ('A' for Active; 'I' for Inactive)
REMARK    1  A    between atoms: C_5  and  N_6 
REMARK       I    between atoms: N_6  and  C_7 
REMARK       I    between atoms: C_7  and  N_8 
REMARK    2  A    between atoms: N_8  and  C_9 
REMARK    3  A    between atoms: C_11  and  C_12 
REMARK       I    between atoms: C_12  and  N_13 
REMARK    4  A    between atoms: N_13  and  C_14 
REMARK    5  A    between atoms: C_14  and  C_15 
ROOT
HETATM    1  C   UNL     1       5.429  25.976  52.042  1.00  0.00     0.175 A 
HETATM    2  S   UNL     1       4.960  24.904  53.266  1.00  0.00    -0.044 SA
HETATM    3  C   UNL     1       5.905  25.779  54.401  1.00  0.00     0.100 A 
HETATM    4  C   UNL     1       6.603  26.775  53.718  1.00  0.00     0.056 A 
HETATM    5  C   UNL     1       7.602  27.719  54.297  1.00  0.00     0.072 C 
HETATM    6  N   UNL     1       6.306  26.891  52.362  1.00  0.00    -0.228 NA
ENDROOT
BRANCH   1   7
HETATM    7  N   UNL     1       4.824  25.760  50.844  1.00  0.00    -0.287 N 
HETATM    8  C   UNL     1       4.614  26.675  49.856  1.00  0.00     0.326 C 
HETATM    9  N   UNL     1       5.140  27.925  50.039  1.00  0.00    -0.309 N 
HETATM   10  O   UNL     1       3.982  26.293  48.871  1.00  0.00    -0.247 OA
HETATM   11  H   UNL     1       5.703  28.036  50.879  1.00  0.00     0.170 HD
HETATM   12  H   UNL     1       4.441  24.845  50.664  1.00  0.00     0.172 HD
BRANCH   9  13
HETATM   13  C   UNL     1       5.050  29.037  49.180  1.00  0.00     0.036 A 
HETATM   14  C   UNL     1       4.598  28.964  47.862  1.00  0.00     0.030 A 
HETATM   15  C   UNL     1       4.539  30.114  47.066  1.00  0.00     0.009 A 
HETATM   16  C   UNL     1       4.932  31.355  47.574  1.00  0.00    -0.062 A 
HETATM   17  C   UNL     1       4.893  32.569  46.696  1.00  0.00     0.048 C 
HETATM   18  C   UNL     1       5.386  31.429  48.894  1.00  0.00     0.009 A 
HETATM   19  C   UNL     1       5.434  30.280  49.693  1.00  0.00     0.030 A 
ENDBRANCH   9  13
ENDBRANCH   1   7
BRANCH   3  20
HETATM   20  C   UNL     1       6.031  25.428  55.807  1.00  0.00     0.260 C 
HETATM   21  N   UNL     1       7.128  24.772  56.315  1.00  0.00    -0.352 N 
HETATM   22  H   UNL     1       7.068  24.661  57.321  1.00  0.00     0.163 HD
HETATM   23  O   UNL     1       5.135  25.676  56.618  1.00  0.00    -0.267 OA
BRANCH  21  24
HETATM   24  C   UNL     1       8.305  24.247  55.652  1.00  0.00     0.167 C 
BRANCH  24  25
HETATM   25  C   UNL     1       8.131  22.919  54.970  1.00  0.00     0.037 A 
HETATM   26  C   UNL     1       8.152  22.879  53.571  1.00  0.00     0.127 A 
HETATM   27  F   UNL     1       8.270  24.021  52.879  1.00  0.00    -0.205 F 
HETATM   28  C   UNL     1       8.069  21.680  52.865  1.00  0.00     0.043 A 
HETATM   29  C   UNL     1       7.974  20.477  53.559  1.00  0.00     0.006 A 
HETATM   30  C   UNL     1       7.966  20.488  54.952  1.00  0.00     0.043 A 
HETATM   31  C   UNL     1       8.052  21.699  55.641  1.00  0.00     0.127 A 
HETATM   32  F   UNL     1       8.062  21.665  56.981  1.00  0.00    -0.205 F 
ENDBRANCH  24  25
ENDBRANCH  21  24
ENDBRANCH   3  20
TORSDOF 5
ENDMDL
MODEL 7
REMARK VINA RESULT:      -9.3      5.186      8.372
REMARK  5 active torsions:
REMARK  status: ('A' for Active; 'I' for Inactive)
REMARK    1  A    between atoms: C_5  and  N_6 
REMARK       I    between atoms: N_6  and  C_7 
REMARK       I    between atoms: C_7  and  N_8 
REMARK    2  A    between atoms: N_8  and  C_9 
REMARK    3  A    between atoms: C_11  and  C_12 
REMARK       I    between atoms: C_12  and  N_13 
REMARK    4  A    between atoms: N_13  and  C_14 
REMARK    5  A    between atoms: C_14  and  C_15 
ROOT
HETATM    1  C   UNL     1       5.742  26.089  52.174  1.00  0.00     0.175 A 
HETATM    2  S   UNL     1       5.270  24.882  53.264  1.00  0.00    -0.044 SA
HETATM    3  C   UNL     1       5.997  25.753  54.551  1.00  0.00     0.100 A 
HETATM    4  C   UNL     1       6.649  26.864  54.018  1.00  0.00     0.056 A 
HETATM    5  C   UNL     1       7.478  27.853  54.765  1.00  0.00     0.072 C 
HETATM    6  N   UNL     1       6.480  27.058  52.649  1.00  0.00    -0.228 NA
ENDROOT
BRANCH   1   7
HETATM    7  N   UNL     1       5.287  25.910  50.905  1.00  0.00    -0.287 N 
HETATM    8  C   UNL     1       4.468  26.744  50.204  1.00  0.00     0.326 C 
HETATM    9  N   UNL     1       4.131  27.931  50.795  1.00  0.00    -0.309 N 
HETATM   10  O   UNL     1       4.113  26.364  49.088  1.00  0.00    -0.247 OA
HETATM   11  H   UNL     1       4.583  28.112  51.688  1.00  0.00     0.170 HD
HETATM   12  H   UNL     1       5.531  25.056  50.429  1.00  0.00     0.172 HD
BRANCH   9  13
HETATM   13  C   UNL     1       3.296  28.945  50.286  1.00  0.00     0.036 A 
HETATM   14  C   UNL     1       1.935  29.048  50.576  1.00  0.00     0.030 A 
HETATM   15  C   UNL     1       1.168  30.083  50.030  1.00  0.00     0.009 A 
HETATM   16  C   UNL     1       1.748  31.031  49.182  1.00  0.00    -0.062 A 
HETATM   17  C   UNL     1       0.903  32.112  48.579  1.00  0.00     0.048 C 
HETATM   18  C   UNL     1       3.111  30.928  48.889  1.00  0.00     0.009 A 
HETATM   19  C   UNL     1       3.880  29.898  49.446  1.00  0.00     0.030 A 
ENDBRANCH   9  13
ENDBRANCH   1   7
BRANCH   3  20
HETATM   20  C   UNL     1       6.017  25.305  55.935  1.00  0.00     0.260 C 
HETATM   21  N   UNL     1       7.098  24.661  56.492  1.00  0.00    -0.352 N 
HETATM   22  H   UNL     1       6.956  24.474  57.480  1.00  0.00     0.163 HD
HETATM   23  O   UNL     1       5.044  25.454  56.678  1.00  0.00    -0.267 OA
BRANCH  21  24
HETATM   24  C   UNL     1       8.351  24.237  55.903  1.00  0.00     0.167 C 
BRANCH  24  25
HETATM   25  C   UNL     1       8.313  22.935  55.154  1.00  0.00     0.037 A 
HETATM   26  C   UNL     1       8.178  21.748  55.885  1.00  0.00     0.127 A 
HETATM   27  F   UNL     1       8.143  21.797  57.225  1.00  0.00    -0.205 F 
HETATM   28  C   UNL     1       8.062  20.506  55.262  1.00  0.00     0.043 A 
HETATM   29  C   UNL     1       8.068  20.429  53.873  1.00  0.00     0.006 A 
HETATM   30  C   UNL     1       8.186  21.596  53.122  1.00  0.00     0.043 A 
HETATM   31  C   UNL     1       8.298  22.830  53.764  1.00  0.00     0.127 A 
HETATM   32  F   UNL     1       8.389  23.932  53.005  1.00  0.00    -0.205 F 
ENDBRANCH  24  25
ENDBRANCH  21  24
ENDBRANCH   3  20
TORSDOF 5
ENDMDL
MODEL 8
REMARK VINA RESULT:      -9.3      2.617      3.090
REMARK  5 active torsions:
REMARK  status: ('A' for Active; 'I' for Inactive)
REMARK    1  A    between atoms: C_5  and  N_6 
REMARK       I    between atoms: N_6  and  C_7 
REMARK       I    between atoms: C_7  and  N_8 
REMARK    2  A    between atoms: N_8  and  C_9 
REMARK    3  A    between atoms: C_11  and  C_12 
REMARK       I    between atoms: C_12  and  N_13 
REMARK    4  A    between atoms: N_13  and  C_14 
REMARK    5  A    between atoms: C_14  and  C_15 
ROOT
HETATM    1  C   UNL     1       5.406  29.326  57.284  1.00  0.00     0.175 A 
HETATM    2  S   UNL     1       5.266  28.839  55.669  1.00  0.00    -0.044 SA
HETATM    3  C   UNL     1       6.918  28.373  55.661  1.00  0.00     0.100 A 
HETATM    4  C   UNL     1       7.483  28.735  56.884  1.00  0.00     0.056 A 
HETATM    5  C   UNL     1       8.913  28.591  57.281  1.00  0.00     0.072 C 
HETATM    6  N   UNL     1       6.598  29.266  57.819  1.00  0.00    -0.228 NA
ENDROOT
BRANCH   1   7
HETATM    7  N   UNL     1       4.238  29.727  57.853  1.00  0.00    -0.287 N 
HETATM    8  C   UNL     1       4.072  30.727  58.765  1.00  0.00     0.326 C 
HETATM    9  N   UNL     1       5.175  31.471  59.084  1.00  0.00    -0.309 N 
HETATM   10  O   UNL     1       2.936  30.887  59.212  1.00  0.00    -0.247 OA
HETATM   11  H   UNL     1       6.015  31.247  58.554  1.00  0.00     0.170 HD
HETATM   12  H   UNL     1       3.399  29.216  57.627  1.00  0.00     0.172 HD
BRANCH   9  13
HETATM   13  C   UNL     1       5.264  32.538  59.999  1.00  0.00     0.036 A 
HETATM   14  C   UNL     1       4.484  33.693  59.923  1.00  0.00     0.030 A 
HETATM   15  C   UNL     1       4.632  34.714  60.868  1.00  0.00     0.009 A 
HETATM   16  C   UNL     1       5.564  34.599  61.903  1.00  0.00    -0.062 A 
HETATM   17  C   UNL     1       5.731  35.719  62.886  1.00  0.00     0.048 C 
HETATM   18  C   UNL     1       6.347  33.444  61.980  1.00  0.00     0.009 A 
HETATM   19  C   UNL     1       6.190  32.418  61.040  1.00  0.00     0.030 A 
ENDBRANCH   9  13
ENDBRANCH   1   7
BRANCH   3  20
HETATM   20  C   UNL     1       7.608  27.816  54.508  1.00  0.00     0.260 C 
HETATM   21  N   UNL     1       7.623  26.468  54.230  1.00  0.00    -0.352 N 
HETATM   22  H   UNL     1       8.104  26.270  53.359  1.00  0.00     0.163 HD
HETATM   23  O   UNL     1       8.247  28.528  53.730  1.00  0.00    -0.267 OA
BRANCH  21  24
HETATM   24  C   UNL     1       7.074  25.346  54.964  1.00  0.00     0.167 C 
BRANCH  24  25
HETATM   25  C   UNL     1       7.673  24.005  54.648  1.00  0.00     0.037 A 
HETATM   26  C   UNL     1       7.231  23.328  53.506  1.00  0.00     0.127 A 
HETATM   27  F   UNL     1       6.254  23.862  52.758  1.00  0.00    -0.205 F 
HETATM   28  C   UNL     1       7.786  22.114  53.105  1.00  0.00     0.043 A 
HETATM   29  C   UNL     1       8.820  21.550  53.847  1.00  0.00     0.006 A 
HETATM   30  C   UNL     1       9.289  22.211  54.980  1.00  0.00     0.043 A 
HETATM   31  C   UNL     1       8.721  23.427  55.364  1.00  0.00     0.127 A 
HETATM   32  F   UNL     1       9.215  24.041  56.449  1.00  0.00    -0.205 F 
ENDBRANCH  24  25
ENDBRANCH  21  24
ENDBRANCH   3  20
TORSDOF 5
ENDMDL
MODEL 9
REMARK VINA RESULT:      -9.2      4.862      8.151
REMARK  5 active torsions:
REMARK  status: ('A' for Active; 'I' for Inactive)
REMARK    1  A    between atoms: C_5  and  N_6 
REMARK       I    between atoms: N_6  and  C_7 
REMARK       I    between atoms: C_7  and  N_8 
REMARK    2  A    between atoms: N_8  and  C_9 
REMARK    3  A    between atoms: C_11  and  C_12 
REMARK       I    between atoms: C_12  and  N_13 
REMARK    4  A    between atoms: N_13  and  C_14 
REMARK    5  A    between atoms: C_14  and  C_15 
ROOT
HETATM    1  C   UNL     1       5.812  28.389  54.638  1.00  0.00     0.175 A 
HETATM    2  S   UNL     1       7.432  27.922  54.804  1.00  0.00    -0.044 SA
HETATM    3  C   UNL     1       6.967  26.679  55.891  1.00  0.00     0.100 A 
HETATM    4  C   UNL     1       5.597  26.790  56.130  1.00  0.00     0.056 A 
HETATM    5  C   UNL     1       4.787  25.966  57.071  1.00  0.00     0.072 C 
HETATM    6  N   UNL     1       4.939  27.768  55.387  1.00  0.00    -0.228 NA
ENDROOT
BRANCH   1   7
HETATM    7  N   UNL     1       5.601  29.372  53.723  1.00  0.00    -0.287 N 
HETATM    8  C   UNL     1       5.148  29.219  52.447  1.00  0.00     0.326 C 
HETATM    9  N   UNL     1       4.779  27.960  52.061  1.00  0.00    -0.309 N 
HETATM   10  O   UNL     1       5.092  30.235  51.753  1.00  0.00    -0.247 OA
HETATM   11  H   UNL     1       4.817  27.255  52.795  1.00  0.00     0.170 HD
HETATM   12  H   UNL     1       5.842  30.317  53.978  1.00  0.00     0.172 HD
BRANCH   9  13
HETATM   13  C   UNL     1       4.298  27.545  50.804  1.00  0.00     0.036 A 
HETATM   14  C   UNL     1       4.763  26.417  50.127  1.00  0.00     0.030 A 
HETATM   15  C   UNL     1       4.238  26.070  48.878  1.00  0.00     0.009 A 
HETATM   16  C   UNL     1       3.240  26.846  48.283  1.00  0.00    -0.062 A 
HETATM   17  C   UNL     1       2.713  26.477  46.928  1.00  0.00     0.048 C 
HETATM   18  C   UNL     1       2.773  27.978  48.958  1.00  0.00     0.009 A 
HETATM   19  C   UNL     1       3.292  28.317  50.214  1.00  0.00     0.030 A 
ENDBRANCH   9  13
ENDBRANCH   1   7
BRANCH   3  20
HETATM   20  C   UNL     1       7.896  25.763  56.535  1.00  0.00     0.260 C 
HETATM   21  N   UNL     1       7.913  24.413  56.270  1.00  0.00    -0.352 N 
HETATM   22  H   UNL     1       8.662  23.941  56.767  1.00  0.00     0.163 HD
HETATM   23  O   UNL     1       8.703  26.150  57.383  1.00  0.00    -0.267 OA
BRANCH  21  24
HETATM   24  C   UNL     1       7.062  23.606  55.420  1.00  0.00     0.167 C 
BRANCH  24  25
HETATM   25  C   UNL     1       7.707  22.392  54.814  1.00  0.00     0.037 A 
HETATM   26  C   UNL     1       8.123  21.362  55.667  1.00  0.00     0.127 A 
HETATM   27  F   UNL     1       7.988  21.506  56.993  1.00  0.00    -0.205 F 
HETATM   28  C   UNL     1       8.665  20.173  55.180  1.00  0.00     0.043 A 
HETATM   29  C   UNL     1       8.792  19.985  53.806  1.00  0.00     0.006 A 
HETATM   30  C   UNL     1       8.372  20.989  52.936  1.00  0.00     0.043 A 
HETATM   31  C   UNL     1       7.830  22.171  53.443  1.00  0.00     0.127 A 
HETATM   32  F   UNL     1       7.419  23.103  52.571  1.00  0.00    -0.205 F 
ENDBRANCH  24  25
ENDBRANCH  21  24
ENDBRANCH   3  20
TORSDOF 5
ENDMDL
MODEL 10
REMARK VINA RESULT:      -9.1      3.759      7.298
REMARK  5 active torsions:
REMARK  status: ('A' for Active; 'I' for Inactive)
REMARK    1  A    between atoms: C_5  and  N_6 
REMARK       I    between atoms: N_6  and  C_7 
REMARK       I    between atoms: C_7  and  N_8 
REMARK    2  A    between atoms: N_8  and  C_9 
REMARK    3  A    between atoms: C_11  and  C_12 
REMARK       I    between atoms: C_12  and  N_13 
REMARK    4  A    between atoms: N_13  and  C_14 
REMARK    5  A    between atoms: C_14  and  C_15 
ROOT
HETATM    1  C   UNL     1       5.958  28.804  55.642  1.00  0.00     0.175 A 
HETATM    2  S   UNL     1       5.722  27.161  55.976  1.00  0.00    -0.044 SA
HETATM    3  C   UNL     1       7.266  27.085  56.720  1.00  0.00     0.100 A 
HETATM    4  C   UNL     1       7.896  28.319  56.555  1.00  0.00     0.056 A 
HETATM    5  C   UNL     1       9.281  28.675  56.975  1.00  0.00     0.072 C 
HETATM    6  N   UNL     1       7.125  29.308  55.948  1.00  0.00    -0.228 NA
ENDROOT
BRANCH   1   7
HETATM    7  N   UNL     1       4.883  29.425  55.087  1.00  0.00    -0.287 N 
HETATM    8  C   UNL     1       4.601  29.543  53.758  1.00  0.00     0.326 C 
HETATM    9  N   UNL     1       5.432  28.898  52.884  1.00  0.00    -0.309 N 
HETATM   10  O   UNL     1       3.609  30.207  53.458  1.00  0.00    -0.247 OA
HETATM   11  H   UNL     1       6.156  28.329  53.316  1.00  0.00     0.170 HD
HETATM   12  H   UNL     1       4.236  29.894  55.701  1.00  0.00     0.172 HD
BRANCH   9  13
HETATM   13  C   UNL     1       5.362  28.879  51.477  1.00  0.00     0.036 A 
HETATM   14  C   UNL     1       5.658  29.978  50.670  1.00  0.00     0.030 A 
HETATM   15  C   UNL     1       5.562  29.884  49.277  1.00  0.00     0.009 A 
HETATM   16  C   UNL     1       5.165  28.690  48.668  1.00  0.00    -0.062 A 
HETATM   17  C   UNL     1       5.036  28.619  47.176  1.00  0.00     0.048 C 
HETATM   18  C   UNL     1       4.867  27.589  49.475  1.00  0.00     0.009 A 
HETATM   19  C   UNL     1       4.975  27.681  50.868  1.00  0.00     0.030 A 
ENDBRANCH   9  13
ENDBRANCH   1   7
BRANCH   3  20
HETATM   20  C   UNL     1       7.838  25.881  57.302  1.00  0.00     0.260 C 
HETATM   21  N   UNL     1       8.163  24.775  56.551  1.00  0.00    -0.352 N 
HETATM   22  H   UNL     1       8.601  24.053  57.114  1.00  0.00     0.163 HD
HETATM   23  O   UNL     1       8.033  25.778  58.515  1.00  0.00    -0.267 OA
BRANCH  21  24
HETATM   24  C   UNL     1       7.984  24.506  55.139  1.00  0.00     0.167 C 
BRANCH  24  25
HETATM   25  C   UNL     1       7.943  23.055  54.751  1.00  0.00     0.037 A 
HETATM   26  C   UNL     1       7.945  22.727  53.390  1.00  0.00     0.127 A 
HETATM   27  F   UNL     1       7.929  23.706  52.474  1.00  0.00    -0.205 F 
HETATM   28  C   UNL     1       7.980  21.405  52.949  1.00  0.00     0.043 A 
HETATM   29  C   UNL     1       8.024  20.369  53.878  1.00  0.00     0.006 A 
HETATM   30  C   UNL     1       8.038  20.669  55.238  1.00  0.00     0.043 A 
HETATM   31  C   UNL     1       8.005  21.999  55.660  1.00  0.00     0.127 A 
HETATM   32  F   UNL     1       8.040  22.246  56.978  1.00  0.00    -0.205 F 
ENDBRANCH  24  25
ENDBRANCH  21  24
ENDBRANCH   3  20
TORSDOF 5
ENDMDL
