MODEL 1
REMARK VINA RESULT:      -9.5      0.000      0.000
REMARK  8 active torsions:
REMARK  status: ('A' for Active; 'I' for Inactive)
REMARK    1  A    between atoms: C_3  and  N_4 
REMARK    2  A    between atoms: C_5  and  S_6 
REMARK    3  A    between atoms: S_6  and  C_7 
REMARK    4  A    between atoms: C_7  and  C_8 
REMARK       I    between atoms: C_8  and  N_9 
REMARK    5  A    between atoms: N_9  and  C_10 
REMARK    6  A    between atoms: C_10  and  C_11 
REMARK    7  A    between atoms: C_11  and  C_12 
REMARK    8  A    between atoms: C_22  and  N_23 
ROOT
HETATM    1  N   UNL     1       5.364  28.017  54.209  1.00  0.00    -0.275 N 
HETATM    2  C   UNL     1       5.291  26.607  54.358  1.00  0.00     0.177 A 
HETATM    3  N   UNL     1       5.080  25.742  53.397  1.00  0.00    -0.204 NA
HETATM    4  C   UNL     1       4.977  26.306  52.172  1.00  0.00     0.162 A 
HETATM    5  C   UNL     1       5.040  27.625  51.816  1.00  0.00     0.081 A 
HETATM    6  C   UNL     1       5.234  28.573  52.872  1.00  0.00     0.124 A 
HETATM    7  N   UNL     1       4.796  25.628  51.005  1.00  0.00    -0.260 N 
HETATM    8  H   UNL     1       4.714  24.626  50.876  1.00  0.00     0.191 HD
HETATM    9  N   UNL     1       4.729  26.440  49.926  1.00  0.00    -0.177 NA
HETATM   10  C   UNL     1       4.888  27.676  50.422  1.00  0.00     0.068 A 
HETATM   11  C   UNL     1       4.881  28.838  49.503  1.00  0.00     0.073 C 
ENDROOT
BRANCH   2  12
HETATM   12  S   UNL     1       5.439  25.897  55.979  1.00  0.00    -0.082 SA
BRANCH  12  13
HETATM   13  C   UNL     1       7.219  25.576  56.043  1.00  0.00     0.185 C 
BRANCH  13  14
HETATM   14  C   UNL     1       7.783  25.651  57.458  1.00  0.00     0.227 C 
HETATM   15  N   UNL     1       8.426  24.533  57.935  1.00  0.00    -0.360 N 
HETATM   16  H   UNL     1       8.738  24.618  58.897  1.00  0.00     0.162 HD
HETATM   17  O   UNL     1       7.720  26.649  58.177  1.00  0.00    -0.273 OA
BRANCH  15  18
HETATM   18  C   UNL     1       8.501  23.242  57.271  1.00  0.00     0.127 C 
BRANCH  18  19
HETATM   19  C   UNL     1       9.417  23.245  56.047  1.00  0.00     0.058 C 
BRANCH  19  20
HETATM   20  C   UNL     1       8.917  22.277  55.003  1.00  0.00    -0.057 A 
HETATM   21  C   UNL     1       9.102  20.897  55.163  1.00  0.00     0.007 A 
HETATM   22  C   UNL     1       8.681  20.007  54.173  1.00  0.00     0.001 A 
HETATM   23  C   UNL     1       8.076  20.487  53.013  1.00  0.00     0.000 A 
HETATM   24  C   UNL     1       7.886  21.857  52.843  1.00  0.00     0.001 A 
HETATM   25  C   UNL     1       8.303  22.748  53.833  1.00  0.00     0.007 A 
ENDBRANCH  19  20
ENDBRANCH  18  19
ENDBRANCH  15  18
ENDBRANCH  13  14
ENDBRANCH  12  13
ENDBRANCH   2  12
BRANCH   1  26
HETATM   26  C   UNL     1       5.618  28.875  55.322  1.00  0.00     0.051 A 
HETATM   27  C   UNL     1       6.930  29.177  55.748  1.00  0.00    -0.035 A 
HETATM   28  C   UNL     1       8.153  28.714  55.002  1.00  0.00     0.050 C 
HETATM   29  C   UNL     1       7.110  29.991  56.878  1.00  0.00     0.011 A 
HETATM   30  C   UNL     1       6.015  30.464  57.602  1.00  0.00     0.024 A 
HETATM   31  C   UNL     1       4.726  30.143  57.192  1.00  0.00     0.036 A 
HETATM   32  C   UNL     1       4.522  29.358  56.059  1.00  0.00     0.054 A 
HETATM   33 CL   UNL     1       3.376  30.699  58.099  1.00  0.00    -0.084 Cl
ENDBRANCH   1  26
BRANCH   6  34
HETATM   34  N   UNL     1       5.263  29.871  52.632  1.00  0.00    -0.384 N 
HETATM   35  H   UNL     1       6.130  30.387  52.600  1.00  0.00     0.157 HD
HETATM   36  H   UNL     1       4.399  30.370  52.467  1.00  0.00     0.157 HD
ENDBRANCH   6  34
TORSDOF 8
ENDMDL
MODEL 2
REMARK VINA RESULT:      -9.2      2.998      7.179
REMARK  8 active torsions:
REMARK  status: ('A' for Active; 'I' for Inactive)
REMARK    1  A    between atoms: C_3  and  N_4 
REMARK    2  A    between atoms: C_5  and  S_6 
REMARK    3  A    between atoms: S_6  and  C_7 
REMARK    4  A    between atoms: C_7  and  C_8 
REMARK       I    between atoms: C_8  and  N_9 
REMARK    5  A    between atoms: N_9  and  C_10 
REMARK    6  A    between atoms: C_10  and  C_11 
REMARK    7  A    between atoms: C_11  and  C_12 
REMARK    8  A    between atoms: C_22  and  N_23 
ROOT
HETATM    1  N   UNL     1       7.715  25.241  55.594  1.00  0.00    -0.275 N 
HETATM    2  C   UNL     1       7.577  25.245  54.181  1.00  0.00     0.177 A 
HETATM    3  N   UNL     1       7.673  24.200  53.395  1.00  0.00    -0.204 NA
HETATM    4  C   UNL     1       7.874  23.040  54.059  1.00  0.00     0.162 A 
HETATM    5  C   UNL     1       8.011  22.820  55.402  1.00  0.00     0.081 A 
HETATM    6  C   UNL     1       7.944  23.967  56.257  1.00  0.00     0.124 A 
HETATM    7  N   UNL     1       7.969  21.809  53.483  1.00  0.00    -0.260 N 
HETATM    8  H   UNL     1       7.905  21.579  52.498  1.00  0.00     0.191 HD
HETATM    9  N   UNL     1       8.170  20.818  54.381  1.00  0.00    -0.177 NA
HETATM   10  C   UNL     1       8.188  21.438  55.571  1.00  0.00     0.068 A 
HETATM   11  C   UNL     1       8.378  20.642  56.805  1.00  0.00     0.073 C 
ENDROOT
BRANCH   2  12
HETATM   12  S   UNL     1       7.304  26.786  53.340  1.00  0.00    -0.082 SA
BRANCH  12  13
HETATM   13  C   UNL     1       5.495  26.839  53.318  1.00  0.00     0.185 C 
BRANCH  13  14
HETATM   14  C   UNL     1       4.887  25.840  52.339  1.00  0.00     0.227 C 
HETATM   15  N   UNL     1       4.774  26.239  51.028  1.00  0.00    -0.360 N 
HETATM   16  H   UNL     1       4.319  25.557  50.430  1.00  0.00     0.162 HD
HETATM   17  O   UNL     1       4.521  24.704  52.646  1.00  0.00    -0.273 OA
BRANCH  15  18
HETATM   18  C   UNL     1       5.054  27.569  50.512  1.00  0.00     0.127 C 
BRANCH  18  19
HETATM   19  C   UNL     1       5.040  27.639  48.985  1.00  0.00     0.058 C 
BRANCH  19  20
HETATM   20  C   UNL     1       3.635  27.484  48.456  1.00  0.00    -0.057 A 
HETATM   21  C   UNL     1       2.576  28.203  49.025  1.00  0.00     0.007 A 
HETATM   22  C   UNL     1       1.270  28.021  48.565  1.00  0.00     0.001 A 
HETATM   23  C   UNL     1       1.011  27.116  47.538  1.00  0.00     0.000 A 
HETATM   24  C   UNL     1       2.056  26.395  46.965  1.00  0.00     0.001 A 
HETATM   25  C   UNL     1       3.363  26.578  47.420  1.00  0.00     0.007 A 
ENDBRANCH  19  20
ENDBRANCH  18  19
ENDBRANCH  15  18
ENDBRANCH  13  14
ENDBRANCH  12  13
ENDBRANCH   2  12
BRANCH   1  26
HETATM   26  C   UNL     1       7.575  26.435  56.363  1.00  0.00     0.051 A 
HETATM   27  C   UNL     1       6.327  26.846  56.884  1.00  0.00    -0.035 A 
HETATM   28  C   UNL     1       5.082  26.008  56.765  1.00  0.00     0.050 C 
HETATM   29  C   UNL     1       6.249  28.055  57.593  1.00  0.00     0.011 A 
HETATM   30  C   UNL     1       7.373  28.869  57.750  1.00  0.00     0.024 A 
HETATM   31  C   UNL     1       8.592  28.470  57.214  1.00  0.00     0.036 A 
HETATM   32  C   UNL     1       8.700  27.262  56.528  1.00  0.00     0.054 A 
HETATM   33 CL   UNL     1       9.972  29.483  57.378  1.00  0.00    -0.084 Cl
ENDBRANCH   1  26
BRANCH   6  34
HETATM   34  N   UNL     1       8.109  23.861  57.562  1.00  0.00    -0.384 N 
HETATM   35  H   UNL     1       8.983  23.560  57.966  1.00  0.00     0.157 HD
HETATM   36  H   UNL     1       7.346  24.092  58.184  1.00  0.00     0.157 HD
ENDBRANCH   6  34
TORSDOF 8
ENDMDL
MODEL 3
REMARK VINA RESULT:      -9.0      2.919      7.352
REMARK  8 active torsions:
REMARK  status: ('A' for Active; 'I' for Inactive)
REMARK    1  A    between atoms: C_3  and  N_4 
REMARK    2  A    between atoms: C_5  and  S_6 
REMARK    3  A    between atoms: S_6  and  C_7 
REMARK    4  A    between atoms: C_7  and  C_8 
REMARK       I    between atoms: C_8  and  N_9 
REMARK    5  A    between atoms: N_9  and  C_10 
REMARK    6  A    between atoms: C_10  and  C_11 
REMARK    7  A    between atoms: C_11  and  C_12 
REMARK    8  A    between atoms: C_22  and  N_23 
ROOT
HETATM    1  N   UNL     1       7.598  25.341  55.567  1.00  0.00    -0.275 N 
HETATM    2  C   UNL     1       7.337  25.357  54.171  1.00  0.00     0.177 A 
HETATM    3  N   UNL     1       7.353  24.316  53.374  1.00  0.00    -0.204 NA
HETATM    4  C   UNL     1       7.602  23.149  54.010  1.00  0.00     0.162 A 
HETATM    5  C   UNL     1       7.855  22.919  55.334  1.00  0.00     0.081 A 
HETATM    6  C   UNL     1       7.873  24.061  56.199  1.00  0.00     0.124 A 
HETATM    7  N   UNL     1       7.636  21.922  53.420  1.00  0.00    -0.260 N 
HETATM    8  H   UNL     1       7.483  21.699  52.443  1.00  0.00     0.191 HD
HETATM    9  N   UNL     1       7.905  20.923  54.290  1.00  0.00    -0.177 NA
HETATM   10  C   UNL     1       8.033  21.535  55.478  1.00  0.00     0.068 A 
HETATM   11  C   UNL     1       8.325  20.728  56.686  1.00  0.00     0.073 C 
ENDROOT
BRANCH   2  12
HETATM   12  S   UNL     1       7.004  26.905  53.368  1.00  0.00    -0.082 SA
BRANCH  12  13
HETATM   13  C   UNL     1       5.238  26.727  53.016  1.00  0.00     0.185 C 
BRANCH  13  14
HETATM   14  C   UNL     1       4.905  26.938  51.543  1.00  0.00     0.227 C 
HETATM   15  N   UNL     1       3.994  27.925  51.244  1.00  0.00    -0.360 N 
HETATM   16  H   UNL     1       3.772  27.990  50.256  1.00  0.00     0.162 HD
HETATM   17  O   UNL     1       5.416  26.305  50.619  1.00  0.00    -0.273 OA
BRANCH  15  18
HETATM   18  C   UNL     1       3.218  28.692  52.204  1.00  0.00     0.127 C 
BRANCH  18  19
HETATM   19  C   UNL     1       3.791  30.085  52.467  1.00  0.00     0.058 C 
BRANCH  19  20
HETATM   20  C   UNL     1       3.567  30.492  53.904  1.00  0.00    -0.057 A 
HETATM   21  C   UNL     1       3.983  29.661  54.952  1.00  0.00     0.007 A 
HETATM   22  C   UNL     1       3.731  30.017  56.279  1.00  0.00     0.001 A 
HETATM   23  C   UNL     1       3.059  31.202  56.569  1.00  0.00     0.000 A 
HETATM   24  C   UNL     1       2.641  32.036  55.534  1.00  0.00     0.001 A 
HETATM   25  C   UNL     1       2.895  31.684  54.207  1.00  0.00     0.007 A 
ENDBRANCH  19  20
ENDBRANCH  18  19
ENDBRANCH  15  18
ENDBRANCH  13  14
ENDBRANCH  12  13
ENDBRANCH   2  12
BRANCH   1  26
HETATM   26  C   UNL     1       7.537  26.531  56.353  1.00  0.00     0.051 A 
HETATM   27  C   UNL     1       6.322  27.006  56.895  1.00  0.00    -0.035 A 
HETATM   28  C   UNL     1       5.029  26.243  56.782  1.00  0.00     0.050 C 
HETATM   29  C   UNL     1       6.323  28.208  57.621  1.00  0.00     0.011 A 
HETATM   30  C   UNL     1       7.493  28.953  57.773  1.00  0.00     0.024 A 
HETATM   31  C   UNL     1       8.681  28.492  57.216  1.00  0.00     0.036 A 
HETATM   32  C   UNL     1       8.710  27.289  56.513  1.00  0.00     0.054 A 
HETATM   33 CL   UNL     1      10.118  29.421  57.375  1.00  0.00    -0.084 Cl
ENDBRANCH   1  26
BRANCH   6  34
HETATM   34  N   UNL     1       8.151  23.944  57.484  1.00  0.00    -0.384 N 
HETATM   35  H   UNL     1       7.719  24.534  58.179  1.00  0.00     0.157 HD
HETATM   36  H   UNL     1       8.809  23.240  57.792  1.00  0.00     0.157 HD
ENDBRANCH   6  34
TORSDOF 8
ENDMDL
MODEL 4
REMARK VINA RESULT:      -8.9      2.613      4.232
REMARK  8 active torsions:
REMARK  status: ('A' for Active; 'I' for Inactive)
REMARK    1  A    between atoms: C_3  and  N_4 
REMARK    2  A    between atoms: C_5  and  S_6 
REMARK    3  A    between atoms: S_6  and  C_7 
REMARK    4  A    between atoms: C_7  and  C_8 
REMARK       I    between atoms: C_8  and  N_9 
REMARK    5  A    between atoms: N_9  and  C_10 
REMARK    6  A    between atoms: C_10  and  C_11 
REMARK    7  A    between atoms: C_11  and  C_12 
REMARK    8  A    between atoms: C_22  and  N_23 
ROOT
HETATM    1  N   UNL     1       5.005  28.180  54.582  1.00  0.00    -0.275 N 
HETATM    2  C   UNL     1       4.754  27.917  55.954  1.00  0.00     0.177 A 
HETATM    3  N   UNL     1       4.160  28.726  56.797  1.00  0.00    -0.204 NA
HETATM    4  C   UNL     1       3.732  29.878  56.233  1.00  0.00     0.162 A 
HETATM    5  C   UNL     1       3.853  30.309  54.940  1.00  0.00     0.081 A 
HETATM    6  C   UNL     1       4.535  29.440  54.028  1.00  0.00     0.124 A 
HETATM    7  N   UNL     1       3.054  30.867  56.878  1.00  0.00    -0.260 N 
HETATM    8  H   UNL     1       2.773  30.893  57.852  1.00  0.00     0.191 HD
HETATM    9  N   UNL     1       2.745  31.910  56.074  1.00  0.00    -0.177 NA
HETATM   10  C   UNL     1       3.230  31.564  54.872  1.00  0.00     0.068 A 
HETATM   11  C   UNL     1       3.057  32.485  53.724  1.00  0.00     0.073 C 
ENDROOT
BRANCH   2  12
HETATM   12  S   UNL     1       5.321  26.390  56.662  1.00  0.00    -0.082 SA
BRANCH  12  13
HETATM   13  C   UNL     1       7.043  26.810  57.028  1.00  0.00     0.185 C 
BRANCH  13  14
HETATM   14  C   UNL     1       7.790  25.681  57.731  1.00  0.00     0.227 C 
HETATM   15  N   UNL     1       8.327  24.697  56.935  1.00  0.00    -0.360 N 
HETATM   16  H   UNL     1       8.770  23.946  57.455  1.00  0.00     0.162 HD
HETATM   17  O   UNL     1       7.960  25.616  58.949  1.00  0.00    -0.273 OA
BRANCH  15  18
HETATM   18  C   UNL     1       8.135  24.557  55.501  1.00  0.00     0.127 C 
BRANCH  18  19
HETATM   19  C   UNL     1       7.026  23.571  55.133  1.00  0.00     0.058 C 
BRANCH  19  20
HETATM   20  C   UNL     1       7.611  22.264  54.656  1.00  0.00    -0.057 A 
HETATM   21  C   UNL     1       8.029  21.293  55.575  1.00  0.00     0.007 A 
HETATM   22  C   UNL     1       8.614  20.105  55.132  1.00  0.00     0.001 A 
HETATM   23  C   UNL     1       8.790  19.879  53.768  1.00  0.00     0.000 A 
HETATM   24  C   UNL     1       8.377  20.837  52.845  1.00  0.00     0.001 A 
HETATM   25  C   UNL     1       7.790  22.024  53.285  1.00  0.00     0.007 A 
ENDBRANCH  19  20
ENDBRANCH  18  19
ENDBRANCH  15  18
ENDBRANCH  13  14
ENDBRANCH  12  13
ENDBRANCH   2  12
BRANCH   1  26
HETATM   26  C   UNL     1       5.645  27.221  53.740  1.00  0.00     0.051 A 
HETATM   27  C   UNL     1       7.027  27.282  53.455  1.00  0.00    -0.035 A 
HETATM   28  C   UNL     1       7.945  28.287  54.099  1.00  0.00     0.050 C 
HETATM   29  C   UNL     1       7.586  26.335  52.582  1.00  0.00     0.011 A 
HETATM   30  C   UNL     1       6.788  25.370  51.966  1.00  0.00     0.024 A 
HETATM   31  C   UNL     1       5.424  25.330  52.232  1.00  0.00     0.036 A 
HETATM   32  C   UNL     1       4.851  26.244  53.114  1.00  0.00     0.054 A 
HETATM   33 CL   UNL     1       4.433  24.162  51.451  1.00  0.00    -0.084 Cl
ENDBRANCH   1  26
BRANCH   6  34
HETATM   34  N   UNL     1       4.739  29.789  52.772  1.00  0.00    -0.384 N 
HETATM   35  H   UNL     1       4.509  29.176  52.004  1.00  0.00     0.157 HD
HETATM   36  H   UNL     1       5.131  30.697  52.561  1.00  0.00     0.157 HD
ENDBRANCH   6  34
TORSDOF 8
ENDMDL
MODEL 5
REMARK VINA RESULT:      -8.7      4.525      7.917
REMARK  8 active torsions:
REMARK  status: ('A' for Active; 'I' for Inactive)
REMARK    1  A    between atoms: C_3  and  N_4 
REMARK    2  A    between atoms: C_5  and  S_6 
REMARK    3  A    between atoms: S_6  and  C_7 
REMARK    4  A    between atoms: C_7  and  C_8 
REMARK       I    between atoms: C_8  and  N_9 
REMARK    5  A    between atoms: N_9  and  C_10 
REMARK    6  A    between atoms: C_10  and  C_11 
REMARK    7  A    between atoms: C_11  and  C_12 
REMARK    8  A    between atoms: C_22  and  N_23 
ROOT
HETATM    1  N   UNL     1       7.341  30.957  59.243  1.00  0.00    -0.275 N 
HETATM    2  C   UNL     1       6.312  31.768  58.696  1.00  0.00     0.177 A 
HETATM    3  N   UNL     1       5.660  32.714  59.326  1.00  0.00    -0.204 NA
HETATM    4  C   UNL     1       6.089  32.916  60.593  1.00  0.00     0.162 A 
HETATM    5  C   UNL     1       7.069  32.267  61.292  1.00  0.00     0.081 A 
HETATM    6  C   UNL     1       7.755  31.207  60.615  1.00  0.00     0.124 A 
HETATM    7  N   UNL     1       5.607  33.862  61.447  1.00  0.00    -0.260 N 
HETATM    8  H   UNL     1       4.876  34.542  61.270  1.00  0.00     0.191 HD
HETATM    9  N   UNL     1       6.216  33.847  62.653  1.00  0.00    -0.177 NA
HETATM   10  C   UNL     1       7.128  32.866  62.559  1.00  0.00     0.068 A 
HETATM   11  C   UNL     1       8.003  32.571  63.717  1.00  0.00     0.073 C 
ENDROOT
BRANCH   2  12
HETATM   12  S   UNL     1       5.779  31.483  57.026  1.00  0.00    -0.082 SA
BRANCH  12  13
HETATM   13  C   UNL     1       4.235  30.584  57.316  1.00  0.00     0.185 C 
BRANCH  13  14
HETATM   14  C   UNL     1       3.256  30.702  56.153  1.00  0.00     0.227 C 
HETATM   15  N   UNL     1       3.348  29.755  55.160  1.00  0.00    -0.360 N 
HETATM   16  H   UNL     1       2.707  29.907  54.388  1.00  0.00     0.162 HD
HETATM   17  O   UNL     1       2.384  31.567  56.066  1.00  0.00    -0.273 OA
BRANCH  15  18
HETATM   18  C   UNL     1       4.376  28.733  55.046  1.00  0.00     0.127 C 
BRANCH  18  19
HETATM   19  C   UNL     1       4.277  27.920  53.755  1.00  0.00     0.058 C 
BRANCH  19  20
HETATM   20  C   UNL     1       5.411  26.928  53.661  1.00  0.00    -0.057 A 
HETATM   21  C   UNL     1       5.161  25.551  53.737  1.00  0.00     0.007 A 
HETATM   22  C   UNL     1       6.216  24.637  53.698  1.00  0.00     0.001 A 
HETATM   23  C   UNL     1       7.529  25.091  53.589  1.00  0.00     0.000 A 
HETATM   24  C   UNL     1       7.790  26.457  53.512  1.00  0.00     0.001 A 
HETATM   25  C   UNL     1       6.736  27.372  53.547  1.00  0.00     0.007 A 
ENDBRANCH  19  20
ENDBRANCH  18  19
ENDBRANCH  15  18
ENDBRANCH  13  14
ENDBRANCH  12  13
ENDBRANCH   2  12
BRANCH   1  26
HETATM   26  C   UNL     1       8.004  29.961  58.464  1.00  0.00     0.051 A 
HETATM   27  C   UNL     1       9.275  30.186  57.891  1.00  0.00    -0.035 A 
HETATM   28  C   UNL     1      10.073  31.437  58.146  1.00  0.00     0.050 C 
HETATM   29  C   UNL     1       9.852  29.181  57.097  1.00  0.00     0.011 A 
HETATM   30  C   UNL     1       9.168  27.992  56.836  1.00  0.00     0.024 A 
HETATM   31  C   UNL     1       7.907  27.788  57.383  1.00  0.00     0.036 A 
HETATM   32  C   UNL     1       7.325  28.760  58.195  1.00  0.00     0.054 A 
HETATM   33 CL   UNL     1       7.049  26.339  57.040  1.00  0.00    -0.084 Cl
ENDBRANCH   1  26
BRANCH   6  34
HETATM   34  N   UNL     1       8.685  30.494  61.221  1.00  0.00    -0.384 N 
HETATM   35  H   UNL     1       9.615  30.853  61.378  1.00  0.00     0.157 HD
HETATM   36  H   UNL     1       8.467  29.563  61.550  1.00  0.00     0.157 HD
ENDBRANCH   6  34
TORSDOF 8
ENDMDL
MODEL 6
REMARK VINA RESULT:      -8.7      3.885      5.582
REMARK  8 active torsions:
REMARK  status: ('A' for Active; 'I' for Inactive)
REMARK    1  A    between atoms: C_3  and  N_4 
REMARK    2  A    between atoms: C_5  and  S_6 
REMARK    3  A    between atoms: S_6  and  C_7 
REMARK    4  A    between atoms: C_7  and  C_8 
REMARK       I    between atoms: C_8  and  N_9 
REMARK    5  A    between atoms: N_9  and  C_10 
REMARK    6  A    between atoms: C_10  and  C_11 
REMARK    7  A    between atoms: C_11  and  C_12 
REMARK    8  A    between atoms: C_22  and  N_23 
ROOT
HETATM    1  N   UNL     1       3.623  29.972  49.367  1.00  0.00    -0.275 N 
HETATM    2  C   UNL     1       3.991  28.685  49.839  1.00  0.00     0.177 A 
HETATM    3  N   UNL     1       3.381  27.558  49.559  1.00  0.00    -0.204 NA
HETATM    4  C   UNL     1       2.346  27.701  48.701  1.00  0.00     0.162 A 
HETATM    5  C   UNL     1       1.849  28.837  48.121  1.00  0.00     0.081 A 
HETATM    6  C   UNL     1       2.493  30.071  48.457  1.00  0.00     0.124 A 
HETATM    7  N   UNL     1       1.574  26.687  48.220  1.00  0.00    -0.260 N 
HETATM    8  H   UNL     1       1.654  25.697  48.424  1.00  0.00     0.191 HD
HETATM    9  N   UNL     1       0.607  27.111  47.376  1.00  0.00    -0.177 NA
HETATM   10  C   UNL     1       0.779  28.440  47.304  1.00  0.00     0.068 A 
HETATM   11  C   UNL     1      -0.115  29.246  46.441  1.00  0.00     0.073 C 
ENDROOT
BRANCH   2  12
HETATM   12  S   UNL     1       5.362  28.530  50.958  1.00  0.00    -0.082 SA
BRANCH  12  13
HETATM   13  C   UNL     1       5.051  26.884  51.643  1.00  0.00     0.185 C 
BRANCH  13  14
HETATM   14  C   UNL     1       4.574  26.927  53.090  1.00  0.00     0.227 C 
HETATM   15  N   UNL     1       5.015  25.927  53.924  1.00  0.00    -0.360 N 
HETATM   16  H   UNL     1       4.630  25.975  54.862  1.00  0.00     0.162 HD
HETATM   17  O   UNL     1       3.849  27.808  53.555  1.00  0.00    -0.273 OA
BRANCH  15  18
HETATM   18  C   UNL     1       5.782  24.758  53.526  1.00  0.00     0.127 C 
BRANCH  18  19
HETATM   19  C   UNL     1       7.010  24.514  54.404  1.00  0.00     0.058 C 
BRANCH  19  20
HETATM   20  C   UNL     1       7.450  23.073  54.317  1.00  0.00    -0.057 A 
HETATM   21  C   UNL     1       7.736  22.489  53.076  1.00  0.00     0.007 A 
HETATM   22  C   UNL     1       8.097  21.142  52.994  1.00  0.00     0.001 A 
HETATM   23  C   UNL     1       8.170  20.367  54.150  1.00  0.00     0.000 A 
HETATM   24  C   UNL     1       7.888  20.937  55.389  1.00  0.00     0.001 A 
HETATM   25  C   UNL     1       7.531  22.284  55.474  1.00  0.00     0.007 A 
ENDBRANCH  19  20
ENDBRANCH  18  19
ENDBRANCH  15  18
ENDBRANCH  13  14
ENDBRANCH  12  13
ENDBRANCH   2  12
BRANCH   1  26
HETATM   26  C   UNL     1       4.367  31.139  49.718  1.00  0.00     0.051 A 
HETATM   27  C   UNL     1       4.059  31.903  50.865  1.00  0.00    -0.035 A 
HETATM   28  C   UNL     1       3.008  31.489  51.860  1.00  0.00     0.050 C 
HETATM   29  C   UNL     1       4.801  33.066  51.128  1.00  0.00     0.011 A 
HETATM   30  C   UNL     1       5.799  33.494  50.251  1.00  0.00     0.024 A 
HETATM   31  C   UNL     1       6.080  32.750  49.111  1.00  0.00     0.036 A 
HETATM   32  C   UNL     1       5.375  31.579  48.842  1.00  0.00     0.054 A 
HETATM   33 CL   UNL     1       7.288  33.289  48.013  1.00  0.00    -0.084 Cl
ENDBRANCH   1  26
BRANCH   6  34
HETATM   34  N   UNL     1       2.058  31.223  47.982  1.00  0.00    -0.384 N 
HETATM   35  H   UNL     1       1.885  32.016  48.582  1.00  0.00     0.157 HD
HETATM   36  H   UNL     1       1.898  31.328  46.989  1.00  0.00     0.157 HD
ENDBRANCH   6  34
TORSDOF 8
ENDMDL
MODEL 7
REMARK VINA RESULT:      -8.7      2.758      4.163
REMARK  8 active torsions:
REMARK  status: ('A' for Active; 'I' for Inactive)
REMARK    1  A    between atoms: C_3  and  N_4 
REMARK    2  A    between atoms: C_5  and  S_6 
REMARK    3  A    between atoms: S_6  and  C_7 
REMARK    4  A    between atoms: C_7  and  C_8 
REMARK       I    between atoms: C_8  and  N_9 
REMARK    5  A    between atoms: N_9  and  C_10 
REMARK    6  A    between atoms: C_10  and  C_11 
REMARK    7  A    between atoms: C_11  and  C_12 
REMARK    8  A    between atoms: C_22  and  N_23 
ROOT
HETATM    1  N   UNL     1       3.727  28.713  50.167  1.00  0.00    -0.275 N 
HETATM    2  C   UNL     1       4.591  27.603  50.362  1.00  0.00     0.177 A 
HETATM    3  N   UNL     1       4.543  26.467  49.709  1.00  0.00    -0.204 NA
HETATM    4  C   UNL     1       3.594  26.435  48.746  1.00  0.00     0.162 A 
HETATM    5  C   UNL     1       2.687  27.394  48.388  1.00  0.00     0.081 A 
HETATM    6  C   UNL     1       2.715  28.621  49.127  1.00  0.00     0.124 A 
HETATM    7  N   UNL     1       3.363  25.391  47.901  1.00  0.00    -0.260 N 
HETATM    8  H   UNL     1       3.852  24.504  47.864  1.00  0.00     0.191 HD
HETATM    9  N   UNL     1       2.354  25.625  47.033  1.00  0.00    -0.177 NA
HETATM   10  C   UNL     1       1.938  26.867  47.325  1.00  0.00     0.068 A 
HETATM   11  C   UNL     1       0.830  27.467  46.546  1.00  0.00     0.073 C 
ENDROOT
BRANCH   2  12
HETATM   12  S   UNL     1       5.833  27.681  51.629  1.00  0.00    -0.082 SA
BRANCH  12  13
HETATM   13  C   UNL     1       5.179  26.478  52.813  1.00  0.00     0.185 C 
BRANCH  13  14
HETATM   14  C   UNL     1       5.312  26.941  54.259  1.00  0.00     0.227 C 
HETATM   15  N   UNL     1       6.288  26.342  55.021  1.00  0.00    -0.360 N 
HETATM   16  H   UNL     1       6.301  26.651  55.988  1.00  0.00     0.162 HD
HETATM   17  O   UNL     1       4.624  27.827  54.770  1.00  0.00    -0.273 OA
BRANCH  15  18
HETATM   18  C   UNL     1       7.114  25.215  54.619  1.00  0.00     0.127 C 
BRANCH  18  19
HETATM   19  C   UNL     1       7.097  24.065  55.626  1.00  0.00     0.058 C 
BRANCH  19  20
HETATM   20  C   UNL     1       7.489  22.768  54.962  1.00  0.00    -0.057 A 
HETATM   21  C   UNL     1       7.722  21.618  55.727  1.00  0.00     0.007 A 
HETATM   22  C   UNL     1       8.131  20.431  55.114  1.00  0.00     0.001 A 
HETATM   23  C   UNL     1       8.315  20.385  53.734  1.00  0.00     0.000 A 
HETATM   24  C   UNL     1       8.085  21.522  52.963  1.00  0.00     0.001 A 
HETATM   25  C   UNL     1       7.673  22.708  53.572  1.00  0.00     0.007 A 
ENDBRANCH  19  20
ENDBRANCH  18  19
ENDBRANCH  15  18
ENDBRANCH  13  14
ENDBRANCH  12  13
ENDBRANCH   2  12
BRANCH   1  26
HETATM   26  C   UNL     1       3.874  29.916  50.921  1.00  0.00     0.051 A 
HETATM   27  C   UNL     1       4.634  31.007  50.444  1.00  0.00    -0.035 A 
HETATM   28  C   UNL     1       5.249  31.031  49.070  1.00  0.00     0.050 C 
HETATM   29  C   UNL     1       4.777  32.145  51.255  1.00  0.00     0.011 A 
HETATM   30  C   UNL     1       4.217  32.189  52.534  1.00  0.00     0.024 A 
HETATM   31  C   UNL     1       3.491  31.102  53.006  1.00  0.00     0.036 A 
HETATM   32  C   UNL     1       3.314  29.972  52.210  1.00  0.00     0.054 A 
HETATM   33 CL   UNL     1       2.826  31.140  54.590  1.00  0.00    -0.084 Cl
ENDBRANCH   1  26
BRANCH   6  34
HETATM   34  N   UNL     1       1.851  29.588  48.885  1.00  0.00    -0.384 N 
HETATM   35  H   UNL     1       0.893  29.537  49.197  1.00  0.00     0.157 HD
HETATM   36  H   UNL     1       2.148  30.411  48.378  1.00  0.00     0.157 HD
ENDBRANCH   6  34
TORSDOF 8
ENDMDL
MODEL 8
REMARK VINA RESULT:      -8.6      2.334      3.037
REMARK  8 active torsions:
REMARK  status: ('A' for Active; 'I' for Inactive)
REMARK    1  A    between atoms: C_3  and  N_4 
REMARK    2  A    between atoms: C_5  and  S_6 
REMARK    3  A    between atoms: S_6  and  C_7 
REMARK    4  A    between atoms: C_7  and  C_8 
REMARK       I    between atoms: C_8  and  N_9 
REMARK    5  A    between atoms: N_9  and  C_10 
REMARK    6  A    between atoms: C_10  and  C_11 
REMARK    7  A    between atoms: C_11  and  C_12 
REMARK    8  A    between atoms: C_22  and  N_23 
ROOT
HETATM    1  N   UNL     1       6.471  29.250  56.559  1.00  0.00    -0.275 N 
HETATM    2  C   UNL     1       6.363  27.835  56.575  1.00  0.00     0.177 A 
HETATM    3  N   UNL     1       5.570  27.115  55.818  1.00  0.00    -0.204 NA
HETATM    4  C   UNL     1       4.853  27.846  54.935  1.00  0.00     0.162 A 
HETATM    5  C   UNL     1       4.828  29.201  54.746  1.00  0.00     0.081 A 
HETATM    6  C   UNL     1       5.668  29.989  55.598  1.00  0.00     0.124 A 
HETATM    7  N   UNL     1       3.988  27.341  54.012  1.00  0.00    -0.260 N 
HETATM    8  H   UNL     1       3.755  26.367  53.849  1.00  0.00     0.191 HD
HETATM    9  N   UNL     1       3.405  28.295  53.254  1.00  0.00    -0.177 NA
HETATM   10  C   UNL     1       3.929  29.448  53.699  1.00  0.00     0.068 A 
HETATM   11  C   UNL     1       3.516  30.726  53.073  1.00  0.00     0.073 C 
ENDROOT
BRANCH   2  12
HETATM   12  S   UNL     1       7.326  26.903  57.741  1.00  0.00    -0.082 SA
BRANCH  12  13
HETATM   13  C   UNL     1       7.111  25.228  57.090  1.00  0.00     0.185 C 
BRANCH  13  14
HETATM   14  C   UNL     1       8.400  24.647  56.520  1.00  0.00     0.227 C 
HETATM   15  N   UNL     1       8.433  24.408  55.166  1.00  0.00    -0.360 N 
HETATM   16  H   UNL     1       9.294  23.976  54.847  1.00  0.00     0.162 HD
HETATM   17  O   UNL     1       9.407  24.406  57.188  1.00  0.00    -0.273 OA
BRANCH  15  18
HETATM   18  C   UNL     1       7.312  24.531  54.249  1.00  0.00     0.127 C 
BRANCH  18  19
HETATM   19  C   UNL     1       7.154  23.324  53.324  1.00  0.00     0.058 C 
BRANCH  19  20
HETATM   20  C   UNL     1       7.676  22.072  53.986  1.00  0.00    -0.057 A 
HETATM   21  C   UNL     1       7.243  21.711  55.269  1.00  0.00     0.007 A 
HETATM   22  C   UNL     1       7.763  20.579  55.898  1.00  0.00     0.001 A 
HETATM   23  C   UNL     1       8.723  19.801  55.255  1.00  0.00     0.000 A 
HETATM   24  C   UNL     1       9.162  20.150  53.980  1.00  0.00     0.001 A 
HETATM   25  C   UNL     1       8.640  21.279  53.347  1.00  0.00     0.007 A 
ENDBRANCH  19  20
ENDBRANCH  18  19
ENDBRANCH  15  18
ENDBRANCH  13  14
ENDBRANCH  12  13
ENDBRANCH   2  12
BRANCH   1  26
HETATM   26  C   UNL     1       7.382  29.941  57.414  1.00  0.00     0.051 A 
HETATM   27  C   UNL     1       8.769  29.980  57.150  1.00  0.00    -0.035 A 
HETATM   28  C   UNL     1       9.376  29.400  55.900  1.00  0.00     0.050 C 
HETATM   29  C   UNL     1       9.618  30.638  58.056  1.00  0.00     0.011 A 
HETATM   30  C   UNL     1       9.113  31.209  59.225  1.00  0.00     0.024 A 
HETATM   31  C   UNL     1       7.750  31.145  59.491  1.00  0.00     0.036 A 
HETATM   32  C   UNL     1       6.885  30.520  58.595  1.00  0.00     0.054 A 
HETATM   33 CL   UNL     1       7.128  31.821  60.944  1.00  0.00    -0.084 Cl
ENDBRANCH   1  26
BRANCH   6  34
HETATM   34  N   UNL     1       5.679  31.307  55.522  1.00  0.00    -0.384 N 
HETATM   35  H   UNL     1       4.952  31.871  55.936  1.00  0.00     0.157 HD
HETATM   36  H   UNL     1       6.437  31.774  55.042  1.00  0.00     0.157 HD
ENDBRANCH   6  34
TORSDOF 8
ENDMDL
MODEL 9
REMARK VINA RESULT:      -8.5      2.734      7.389
REMARK  8 active torsions:
REMARK  status: ('A' for Active; 'I' for Inactive)
REMARK    1  A    between atoms: C_3  and  N_4 
REMARK    2  A    between atoms: C_5  and  S_6 
REMARK    3  A    between atoms: S_6  and  C_7 
REMARK    4  A    between atoms: C_7  and  C_8 
REMARK       I    between atoms: C_8  and  N_9 
REMARK    5  A    between atoms: N_9  and  C_10 
REMARK    6  A    between atoms: C_10  and  C_11 
REMARK    7  A    between atoms: C_11  and  C_12 
REMARK    8  A    between atoms: C_22  and  N_23 
ROOT
HETATM    1  N   UNL     1       7.462  25.546  55.636  1.00  0.00    -0.275 N 
HETATM    2  C   UNL     1       7.176  25.505  54.246  1.00  0.00     0.177 A 
HETATM    3  N   UNL     1       7.220  24.440  53.482  1.00  0.00    -0.204 NA
HETATM    4  C   UNL     1       7.526  23.306  54.151  1.00  0.00     0.162 A 
HETATM    5  C   UNL     1       7.812  23.130  55.477  1.00  0.00     0.081 A 
HETATM    6  C   UNL     1       7.799  24.299  56.304  1.00  0.00     0.124 A 
HETATM    7  N   UNL     1       7.599  22.062  53.601  1.00  0.00    -0.260 N 
HETATM    8  H   UNL     1       7.439  21.801  52.634  1.00  0.00     0.191 HD
HETATM    9  N   UNL     1       7.924  21.104  54.498  1.00  0.00    -0.177 NA
HETATM   10  C   UNL     1       8.048  21.759  55.662  1.00  0.00     0.068 A 
HETATM   11  C   UNL     1       8.393  21.005  56.890  1.00  0.00     0.073 C 
ENDROOT
BRANCH   2  12
HETATM   12  S   UNL     1       6.767  27.012  53.399  1.00  0.00    -0.082 SA
BRANCH  12  13
HETATM   13  C   UNL     1       5.089  26.634  52.836  1.00  0.00     0.185 C 
BRANCH  13  14
HETATM   14  C   UNL     1       4.211  27.876  52.723  1.00  0.00     0.227 C 
HETATM   15  N   UNL     1       3.765  28.213  51.466  1.00  0.00    -0.360 N 
HETATM   16  H   UNL     1       3.226  29.073  51.440  1.00  0.00     0.162 HD
HETATM   17  O   UNL     1       3.862  28.568  53.680  1.00  0.00    -0.273 OA
BRANCH  15  18
HETATM   18  C   UNL     1       4.160  27.579  50.220  1.00  0.00     0.127 C 
BRANCH  18  19
HETATM   19  C   UNL     1       5.460  28.140  49.644  1.00  0.00     0.058 C 
BRANCH  19  20
HETATM   20  C   UNL     1       5.294  29.591  49.263  1.00  0.00    -0.057 A 
HETATM   21  C   UNL     1       4.614  29.947  48.091  1.00  0.00     0.007 A 
HETATM   22  C   UNL     1       4.503  31.288  47.717  1.00  0.00     0.001 A 
HETATM   23  C   UNL     1       5.075  32.283  48.507  1.00  0.00     0.000 A 
HETATM   24  C   UNL     1       5.753  31.941  49.674  1.00  0.00     0.001 A 
HETATM   25  C   UNL     1       5.862  30.602  50.053  1.00  0.00     0.007 A 
ENDBRANCH  19  20
ENDBRANCH  18  19
ENDBRANCH  15  18
ENDBRANCH  13  14
ENDBRANCH  12  13
ENDBRANCH   2  12
BRANCH   1  26
HETATM   26  C   UNL     1       7.366  26.758  56.384  1.00  0.00     0.051 A 
HETATM   27  C   UNL     1       6.127  27.257  56.842  1.00  0.00    -0.035 A 
HETATM   28  C   UNL     1       4.835  26.501  56.677  1.00  0.00     0.050 C 
HETATM   29  C   UNL     1       6.097  28.479  57.534  1.00  0.00     0.011 A 
HETATM   30  C   UNL     1       7.264  29.219  57.732  1.00  0.00     0.024 A 
HETATM   31  C   UNL     1       8.477  28.734  57.257  1.00  0.00     0.036 A 
HETATM   32  C   UNL     1       8.535  27.512  56.590  1.00  0.00     0.054 A 
HETATM   33 CL   UNL     1       9.911  29.657  57.472  1.00  0.00    -0.084 Cl
ENDBRANCH   1  26
BRANCH   6  34
HETATM   34  N   UNL     1       8.104  24.236  57.586  1.00  0.00    -0.384 N 
HETATM   35  H   UNL     1       8.858  24.777  57.982  1.00  0.00     0.157 HD
HETATM   36  H   UNL     1       7.568  23.637  58.200  1.00  0.00     0.157 HD
ENDBRANCH   6  34
TORSDOF 8
ENDMDL
MODEL 10
REMARK VINA RESULT:      -8.4      3.614      7.984
REMARK  8 active torsions:
REMARK  status: ('A' for Active; 'I' for Inactive)
REMARK    1  A    between atoms: C_3  and  N_4 
REMARK    2  A    between atoms: C_5  and  S_6 
REMARK    3  A    between atoms: S_6  and  C_7 
REMARK    4  A    between atoms: C_7  and  C_8 
REMARK       I    between atoms: C_8  and  N_9 
REMARK    5  A    between atoms: N_9  and  C_10 
REMARK    6  A    between atoms: C_10  and  C_11 
REMARK    7  A    between atoms: C_11  and  C_12 
REMARK    8  A    between atoms: C_22  and  N_23 
ROOT
HETATM    1  N   UNL     1       6.249  28.050  56.062  1.00  0.00    -0.275 N 
HETATM    2  C   UNL     1       5.252  28.967  55.637  1.00  0.00     0.177 A 
HETATM    3  N   UNL     1       5.059  30.171  56.118  1.00  0.00    -0.204 NA
HETATM    4  C   UNL     1       5.954  30.526  57.068  1.00  0.00     0.162 A 
HETATM    5  C   UNL     1       6.990  29.806  57.596  1.00  0.00     0.081 A 
HETATM    6  C   UNL     1       7.177  28.477  57.096  1.00  0.00     0.124 A 
HETATM    7  N   UNL     1       5.998  31.732  57.698  1.00  0.00    -0.260 N 
HETATM    8  H   UNL     1       5.387  32.529  57.556  1.00  0.00     0.191 HD
HETATM    9  N   UNL     1       6.997  31.820  58.605  1.00  0.00    -0.177 NA
HETATM   10  C   UNL     1       7.619  30.633  58.539  1.00  0.00     0.068 A 
HETATM   11  C   UNL     1       8.793  30.376  59.405  1.00  0.00     0.073 C 
ENDROOT
BRANCH   2  12
HETATM   12  S   UNL     1       4.098  28.474  54.380  1.00  0.00    -0.082 SA
BRANCH  12  13
HETATM   13  C   UNL     1       4.467  29.690  53.091  1.00  0.00     0.185 C 
BRANCH  13  14
HETATM   14  C   UNL     1       3.287  30.607  52.790  1.00  0.00     0.227 C 
HETATM   15  N   UNL     1       2.447  30.231  51.768  1.00  0.00    -0.360 N 
HETATM   16  H   UNL     1       1.708  30.900  51.577  1.00  0.00     0.162 HD
HETATM   17  O   UNL     1       3.031  31.637  53.417  1.00  0.00    -0.273 OA
BRANCH  15  18
HETATM   18  C   UNL     1       2.653  29.114  50.860  1.00  0.00     0.127 C 
BRANCH  18  19
HETATM   19  C   UNL     1       1.833  29.223  49.575  1.00  0.00     0.058 C 
BRANCH  19  20
HETATM   20  C   UNL     1       2.133  28.067  48.651  1.00  0.00    -0.057 A 
HETATM   21  C   UNL     1       1.215  27.689  47.663  1.00  0.00     0.007 A 
HETATM   22  C   UNL     1       1.473  26.589  46.841  1.00  0.00     0.001 A 
HETATM   23  C   UNL     1       2.645  25.855  47.004  1.00  0.00     0.000 A 
HETATM   24  C   UNL     1       3.566  26.222  47.984  1.00  0.00     0.001 A 
HETATM   25  C   UNL     1       3.312  27.323  48.803  1.00  0.00     0.007 A 
ENDBRANCH  19  20
ENDBRANCH  18  19
ENDBRANCH  15  18
ENDBRANCH  13  14
ENDBRANCH  12  13
ENDBRANCH   2  12
BRANCH   1  26
HETATM   26  C   UNL     1       6.388  26.763  55.459  1.00  0.00     0.051 A 
HETATM   27  C   UNL     1       5.878  25.595  56.066  1.00  0.00    -0.035 A 
HETATM   28  C   UNL     1       5.056  25.627  57.328  1.00  0.00     0.050 C 
HETATM   29  C   UNL     1       6.089  24.354  55.443  1.00  0.00     0.011 A 
HETATM   30  C   UNL     1       6.830  24.261  54.264  1.00  0.00     0.024 A 
HETATM   31  C   UNL     1       7.351  25.413  53.684  1.00  0.00     0.036 A 
HETATM   32  C   UNL     1       7.133  26.658  54.270  1.00  0.00     0.054 A 
HETATM   33 CL   UNL     1       8.289  25.299  52.248  1.00  0.00    -0.084 Cl
ENDBRANCH   1  26
BRANCH   6  34
HETATM   34  N   UNL     1       8.123  27.691  57.576  1.00  0.00    -0.384 N 
HETATM   35  H   UNL     1       8.520  26.940  57.030  1.00  0.00     0.157 HD
HETATM   36  H   UNL     1       8.472  27.841  58.513  1.00  0.00     0.157 HD
ENDBRANCH   6  34
TORSDOF 8
ENDMDL
