MODEL 1
REMARK VINA RESULT:     -10.0      0.000      0.000
REMARK  4 active torsions:
REMARK  status: ('A' for Active; 'I' for Inactive)
REMARK    1  A    between atoms: C_4  and  C_5 
REMARK    2  A    between atoms: C_14  and  C_15 
REMARK    3  A    between atoms: C_15  and  C_16 
REMARK    4  A    between atoms: C_17  and  O_18 
ROOT
HETATM    1  C   UNL     1       6.483  26.696  52.598  1.00  0.00     0.071 C 
HETATM    2  C   UNL     1       6.474  25.834  53.834  1.00  0.00     0.045 A 
HETATM    3  N   UNL     1       6.970  24.569  53.604  1.00  0.00    -0.234 NA
HETATM    4  C   UNL     1       7.042  23.737  54.593  1.00  0.00     0.141 A 
HETATM    5  N   UNL     1       6.592  24.057  55.845  1.00  0.00    -0.307 N 
HETATM    6  C   UNL     1       6.101  25.285  56.145  1.00  0.00     0.255 A 
HETATM    7  O   UNL     1       5.744  25.581  57.285  1.00  0.00    -0.268 OA
HETATM    8  C   UNL     1       6.058  26.269  55.040  1.00  0.00     0.039 A 
HETATM    9  H   UNL     1       6.600  23.396  56.606  1.00  0.00     0.170 HD
ENDROOT
BRANCH   8  10
HETATM   10  C   UNL     1       5.537  27.637  55.400  1.00  0.00     0.088 C 
BRANCH  10  11
HETATM   11  C   UNL     1       6.536  28.485  56.165  1.00  0.00    -0.020 A 
HETATM   12  C   UNL     1       6.230  29.142  57.379  1.00  0.00     0.074 A 
HETATM   13  C   UNL     1       7.200  29.857  58.085  1.00  0.00     0.074 A 
HETATM   14  C   UNL     1       8.468  29.929  57.554  1.00  0.00     0.077 A 
HETATM   15  C   UNL     1       8.785  29.334  56.348  1.00  0.00    -0.022 A 
HETATM   16  O   UNL     1       9.515  30.605  58.127  1.00  0.00    -0.350 OA
HETATM   17  C   UNL     1      10.181  29.673  55.993  1.00  0.00     0.068 C 
HETATM   18  C   UNL     1       7.838  28.614  55.639  1.00  0.00     0.020 A 
HETATM   19  C   UNL     1      10.659  30.165  57.359  1.00  0.00     0.180 C 
BRANCH  12  20
HETATM   20  O   UNL     1       4.989  29.145  57.953  1.00  0.00    -0.360 OA
HETATM   21  H   UNL     1       4.342  29.637  57.411  1.00  0.00     0.217 HD
ENDBRANCH  12  20
ENDBRANCH  10  11
ENDBRANCH   8  10
BRANCH   4  22
HETATM   22  C   UNL     1       7.617  22.376  54.408  1.00  0.00     0.010 A 
HETATM   23  C   UNL     1       7.907  21.541  55.495  1.00  0.00     0.015 A 
HETATM   24  C   UNL     1       8.463  20.277  55.281  1.00  0.00     0.001 A 
HETATM   25  C   UNL     1       8.741  19.846  53.985  1.00  0.00     0.000 A 
HETATM   26  C   UNL     1       8.471  20.677  52.900  1.00  0.00     0.001 A 
HETATM   27  C   UNL     1       7.913  21.940  53.110  1.00  0.00     0.015 A 
ENDBRANCH   4  22
TORSDOF 4
ENDMDL
MODEL 2
REMARK VINA RESULT:      -9.5      2.538      7.634
REMARK  4 active torsions:
REMARK  status: ('A' for Active; 'I' for Inactive)
REMARK    1  A    between atoms: C_4  and  C_5 
REMARK    2  A    between atoms: C_14  and  C_15 
REMARK    3  A    between atoms: C_15  and  C_16 
REMARK    4  A    between atoms: C_17  and  O_18 
ROOT
HETATM    1  C   UNL     1       5.522  25.764  57.379  1.00  0.00     0.071 C 
HETATM    2  C   UNL     1       6.393  26.639  56.515  1.00  0.00     0.045 A 
HETATM    3  N   UNL     1       7.026  27.631  57.232  1.00  0.00    -0.234 NA
HETATM    4  C   UNL     1       7.827  28.436  56.610  1.00  0.00     0.141 A 
HETATM    5  N   UNL     1       8.022  28.365  55.258  1.00  0.00    -0.307 N 
HETATM    6  C   UNL     1       7.440  27.409  54.492  1.00  0.00     0.255 A 
HETATM    7  O   UNL     1       7.659  27.321  53.285  1.00  0.00    -0.268 OA
HETATM    8  C   UNL     1       6.560  26.445  55.191  1.00  0.00     0.039 A 
HETATM    9  H   UNL     1       8.605  29.021  54.762  1.00  0.00     0.170 HD
ENDROOT
BRANCH   8  10
HETATM   10  C   UNL     1       5.946  25.372  54.329  1.00  0.00     0.088 C 
BRANCH  10  11
HETATM   11  C   UNL     1       6.813  24.135  54.191  1.00  0.00    -0.020 A 
HETATM   12  C   UNL     1       7.570  23.839  53.034  1.00  0.00     0.074 A 
HETATM   13  C   UNL     1       8.407  22.723  52.976  1.00  0.00     0.074 A 
HETATM   14  C   UNL     1       8.460  21.894  54.073  1.00  0.00     0.077 A 
HETATM   15  C   UNL     1       7.698  22.132  55.202  1.00  0.00    -0.022 A 
HETATM   16  O   UNL     1       9.224  20.758  54.154  1.00  0.00    -0.350 OA
HETATM   17  C   UNL     1       7.889  21.020  56.159  1.00  0.00     0.068 C 
HETATM   18  C   UNL     1       6.870  23.239  55.279  1.00  0.00     0.020 A 
HETATM   19  C   UNL     1       9.151  20.403  55.555  1.00  0.00     0.180 C 
BRANCH  12  20
HETATM   20  O   UNL     1       7.546  24.595  51.895  1.00  0.00    -0.360 OA
HETATM   21  H   UNL     1       6.634  24.829  51.635  1.00  0.00     0.217 HD
ENDBRANCH  12  20
ENDBRANCH  10  11
ENDBRANCH   8  10
BRANCH   4  22
HETATM   22  C   UNL     1       8.574  29.493  57.347  1.00  0.00     0.010 A 
HETATM   23  C   UNL     1       7.978  30.242  58.372  1.00  0.00     0.015 A 
HETATM   24  C   UNL     1       8.707  31.238  59.027  1.00  0.00     0.001 A 
HETATM   25  C   UNL     1      10.025  31.499  58.657  1.00  0.00     0.000 A 
HETATM   26  C   UNL     1      10.618  30.770  57.629  1.00  0.00     0.001 A 
HETATM   27  C   UNL     1       9.894  29.772  56.973  1.00  0.00     0.015 A 
ENDBRANCH   4  22
TORSDOF 4
ENDMDL
MODEL 3
REMARK VINA RESULT:      -9.5      1.753      2.657
REMARK  4 active torsions:
REMARK  status: ('A' for Active; 'I' for Inactive)
REMARK    1  A    between atoms: C_4  and  C_5 
REMARK    2  A    between atoms: C_14  and  C_15 
REMARK    3  A    between atoms: C_15  and  C_16 
REMARK    4  A    between atoms: C_17  and  O_18 
ROOT
HETATM    1  C   UNL     1       7.429  25.867  57.956  1.00  0.00     0.071 C 
HETATM    2  C   UNL     1       7.497  25.610  56.473  1.00  0.00     0.045 A 
HETATM    3  N   UNL     1       7.814  24.303  56.175  1.00  0.00    -0.234 NA
HETATM    4  C   UNL     1       7.878  23.944  54.932  1.00  0.00     0.141 A 
HETATM    5  N   UNL     1       7.694  24.833  53.909  1.00  0.00    -0.307 N 
HETATM    6  C   UNL     1       7.370  26.132  54.129  1.00  0.00     0.255 A 
HETATM    7  O   UNL     1       7.158  26.914  53.204  1.00  0.00    -0.268 OA
HETATM    8  C   UNL     1       7.241  26.552  55.543  1.00  0.00     0.039 A 
HETATM    9  H   UNL     1       7.792  24.570  52.941  1.00  0.00     0.170 HD
ENDROOT
BRANCH   8  10
HETATM   10  C   UNL     1       6.852  27.991  55.767  1.00  0.00     0.088 C 
BRANCH  10  11
HETATM   11  C   UNL     1       7.978  28.845  56.318  1.00  0.00    -0.020 A 
HETATM   12  C   UNL     1       9.090  29.259  55.548  1.00  0.00     0.074 A 
HETATM   13  C   UNL     1      10.070  30.102  56.077  1.00  0.00     0.074 A 
HETATM   14  C   UNL     1       9.941  30.504  57.387  1.00  0.00     0.077 A 
HETATM   15  C   UNL     1       8.889  30.081  58.178  1.00  0.00    -0.022 A 
HETATM   16  O   UNL     1      10.830  31.317  58.043  1.00  0.00    -0.350 OA
HETATM   17  C   UNL     1       9.081  30.590  59.554  1.00  0.00     0.068 C 
HETATM   18  C   UNL     1       7.904  29.252  57.667  1.00  0.00     0.020 A 
HETATM   19  C   UNL     1      10.134  31.660  59.264  1.00  0.00     0.180 C 
BRANCH  12  20
HETATM   20  O   UNL     1       9.305  28.876  54.254  1.00  0.00    -0.360 OA
HETATM   21  H   UNL     1       9.171  29.616  53.630  1.00  0.00     0.217 HD
ENDBRANCH  12  20
ENDBRANCH  10  11
ENDBRANCH   8  10
BRANCH   4  22
HETATM   22  C   UNL     1       8.166  22.531  54.558  1.00  0.00     0.010 A 
HETATM   23  C   UNL     1       8.615  21.593  55.497  1.00  0.00     0.015 A 
HETATM   24  C   UNL     1       8.893  20.282  55.103  1.00  0.00     0.001 A 
HETATM   25  C   UNL     1       8.735  19.904  53.770  1.00  0.00     0.000 A 
HETATM   26  C   UNL     1       8.306  20.836  52.827  1.00  0.00     0.001 A 
HETATM   27  C   UNL     1       8.025  22.147  53.218  1.00  0.00     0.015 A 
ENDBRANCH   4  22
TORSDOF 4
ENDMDL
MODEL 4
REMARK VINA RESULT:      -9.4      1.024      1.942
REMARK  4 active torsions:
REMARK  status: ('A' for Active; 'I' for Inactive)
REMARK    1  A    between atoms: C_4  and  C_5 
REMARK    2  A    between atoms: C_14  and  C_15 
REMARK    3  A    between atoms: C_15  and  C_16 
REMARK    4  A    between atoms: C_17  and  O_18 
ROOT
HETATM    1  C   UNL     1       7.164  25.772  57.845  1.00  0.00     0.071 C 
HETATM    2  C   UNL     1       7.004  25.446  56.382  1.00  0.00     0.045 A 
HETATM    3  N   UNL     1       7.491  24.198  56.060  1.00  0.00    -0.234 NA
HETATM    4  C   UNL     1       7.388  23.784  54.837  1.00  0.00     0.141 A 
HETATM    5  N   UNL     1       6.861  24.569  53.847  1.00  0.00    -0.307 N 
HETATM    6  C   UNL     1       6.354  25.803  54.095  1.00  0.00     0.255 A 
HETATM    7  O   UNL     1       5.837  26.482  53.209  1.00  0.00    -0.268 OA
HETATM    8  C   UNL     1       6.415  26.274  55.497  1.00  0.00     0.039 A 
HETATM    9  H   UNL     1       6.825  24.271  52.885  1.00  0.00     0.170 HD
ENDROOT
BRANCH   8  10
HETATM   10  C   UNL     1       5.820  27.635  55.757  1.00  0.00     0.088 C 
BRANCH  10  11
HETATM   11  C   UNL     1       6.784  28.601  56.418  1.00  0.00    -0.020 A 
HETATM   12  C   UNL     1       6.423  29.451  57.489  1.00  0.00     0.074 A 
HETATM   13  C   UNL     1       7.360  30.277  58.114  1.00  0.00     0.074 A 
HETATM   14  C   UNL     1       8.653  30.264  57.641  1.00  0.00     0.077 A 
HETATM   15  C   UNL     1       9.026  29.477  56.568  1.00  0.00    -0.022 A 
HETATM   16  O   UNL     1       9.673  31.029  58.144  1.00  0.00    -0.350 OA
HETATM   17  C   UNL     1      10.439  29.757  56.230  1.00  0.00     0.068 C 
HETATM   18  C   UNL     1       8.112  28.646  55.943  1.00  0.00     0.020 A 
HETATM   19  C   UNL     1      10.852  30.472  57.517  1.00  0.00     0.180 C 
BRANCH  12  20
HETATM   20  O   UNL     1       5.155  29.545  57.992  1.00  0.00    -0.360 OA
HETATM   21  H   UNL     1       5.088  29.146  58.882  1.00  0.00     0.217 HD
ENDBRANCH  12  20
ENDBRANCH  10  11
ENDBRANCH   8  10
BRANCH   4  22
HETATM   22  C   UNL     1       7.853  22.424  54.448  1.00  0.00     0.010 A 
HETATM   23  C   UNL     1       7.939  22.027  53.106  1.00  0.00     0.015 A 
HETATM   24  C   UNL     1       8.362  20.736  52.782  1.00  0.00     0.001 A 
HETATM   25  C   UNL     1       8.690  19.833  53.792  1.00  0.00     0.000 A 
HETATM   26  C   UNL     1       8.590  20.214  55.128  1.00  0.00     0.001 A 
HETATM   27  C   UNL     1       8.170  21.505  55.456  1.00  0.00     0.015 A 
ENDBRANCH   4  22
TORSDOF 4
ENDMDL
MODEL 5
REMARK VINA RESULT:      -9.0      3.024      7.945
REMARK  4 active torsions:
REMARK  status: ('A' for Active; 'I' for Inactive)
REMARK    1  A    between atoms: C_4  and  C_5 
REMARK    2  A    between atoms: C_14  and  C_15 
REMARK    3  A    between atoms: C_15  and  C_16 
REMARK    4  A    between atoms: C_17  and  O_18 
ROOT
HETATM    1  C   UNL     1       8.993  29.237  55.701  1.00  0.00     0.071 C 
HETATM    2  C   UNL     1       7.874  29.607  56.640  1.00  0.00     0.045 A 
HETATM    3  N   UNL     1       8.330  30.141  57.826  1.00  0.00    -0.234 NA
HETATM    4  C   UNL     1       7.466  30.526  58.709  1.00  0.00     0.141 A 
HETATM    5  N   UNL     1       6.119  30.370  58.525  1.00  0.00    -0.307 N 
HETATM    6  C   UNL     1       5.600  29.861  57.380  1.00  0.00     0.255 A 
HETATM    7  O   UNL     1       4.387  29.770  57.201  1.00  0.00    -0.268 OA
HETATM    8  C   UNL     1       6.569  29.462  56.334  1.00  0.00     0.039 A 
HETATM    9  H   UNL     1       5.446  30.622  59.231  1.00  0.00     0.170 HD
ENDROOT
BRANCH   8  10
HETATM   10  C   UNL     1       5.972  28.927  55.057  1.00  0.00     0.088 C 
BRANCH  10  11
HETATM   11  C   UNL     1       6.160  27.432  54.880  1.00  0.00    -0.020 A 
HETATM   12  C   UNL     1       5.480  26.465  55.656  1.00  0.00     0.074 A 
HETATM   13  C   UNL     1       5.631  25.098  55.413  1.00  0.00     0.074 A 
HETATM   14  C   UNL     1       6.486  24.708  54.407  1.00  0.00     0.077 A 
HETATM   15  C   UNL     1       7.198  25.629  53.661  1.00  0.00    -0.022 A 
HETATM   16  O   UNL     1       6.743  23.405  54.066  1.00  0.00    -0.350 OA
HETATM   17  C   UNL     1       8.102  24.908  52.738  1.00  0.00     0.068 C 
HETATM   18  C   UNL     1       7.053  26.988  53.883  1.00  0.00     0.020 A 
HETATM   19  C   UNL     1       7.464  23.522  52.817  1.00  0.00     0.180 C 
BRANCH  12  20
HETATM   20  O   UNL     1       4.641  26.772  56.691  1.00  0.00    -0.360 OA
HETATM   21  H   UNL     1       5.130  27.118  57.462  1.00  0.00     0.217 HD
ENDBRANCH  12  20
ENDBRANCH  10  11
ENDBRANCH   8  10
BRANCH   4  22
HETATM   22  C   UNL     1       7.906  31.156  59.986  1.00  0.00     0.010 A 
HETATM   23  C   UNL     1       9.141  30.852  60.574  1.00  0.00     0.015 A 
HETATM   24  C   UNL     1       9.509  31.450  61.781  1.00  0.00     0.001 A 
HETATM   25  C   UNL     1       8.645  32.344  62.412  1.00  0.00     0.000 A 
HETATM   26  C   UNL     1       7.409  32.638  61.842  1.00  0.00     0.001 A 
HETATM   27  C   UNL     1       7.038  32.044  60.634  1.00  0.00     0.015 A 
ENDBRANCH   4  22
TORSDOF 4
ENDMDL
MODEL 6
REMARK VINA RESULT:      -8.9      3.060      7.016
REMARK  4 active torsions:
REMARK  status: ('A' for Active; 'I' for Inactive)
REMARK    1  A    between atoms: C_4  and  C_5 
REMARK    2  A    between atoms: C_14  and  C_15 
REMARK    3  A    between atoms: C_15  and  C_16 
REMARK    4  A    between atoms: C_17  and  O_18 
ROOT
HETATM    1  C   UNL     1       7.679  27.831  54.094  1.00  0.00     0.071 C 
HETATM    2  C   UNL     1       6.545  27.138  53.383  1.00  0.00     0.045 A 
HETATM    3  N   UNL     1       6.344  27.619  52.108  1.00  0.00    -0.234 NA
HETATM    4  C   UNL     1       5.415  27.087  51.380  1.00  0.00     0.141 A 
HETATM    5  N   UNL     1       4.594  26.102  51.855  1.00  0.00    -0.307 N 
HETATM    6  C   UNL     1       4.741  25.574  53.097  1.00  0.00     0.255 A 
HETATM    7  O   UNL     1       4.031  24.655  53.499  1.00  0.00    -0.268 OA
HETATM    8  C   UNL     1       5.831  26.132  53.928  1.00  0.00     0.039 A 
HETATM    9  H   UNL     1       3.837  25.721  51.310  1.00  0.00     0.170 HD
ENDROOT
BRANCH   8  10
HETATM   10  C   UNL     1       5.998  25.513  55.292  1.00  0.00     0.088 C 
BRANCH  10  11
HETATM   11  C   UNL     1       6.929  24.316  55.306  1.00  0.00    -0.020 A 
HETATM   12  C   UNL     1       7.694  23.937  56.433  1.00  0.00     0.074 A 
HETATM   13  C   UNL     1       8.487  22.787  56.423  1.00  0.00     0.074 A 
HETATM   14  C   UNL     1       8.528  22.037  55.270  1.00  0.00     0.077 A 
HETATM   15  C   UNL     1       7.826  22.406  54.138  1.00  0.00    -0.022 A 
HETATM   16  O   UNL     1       9.270  20.895  55.110  1.00  0.00    -0.350 OA
HETATM   17  C   UNL     1       8.151  21.469  53.040  1.00  0.00     0.068 C 
HETATM   18  C   UNL     1       7.028  23.537  54.133  1.00  0.00     0.020 A 
HETATM   19  C   UNL     1       8.777  20.346  53.866  1.00  0.00     0.180 C 
BRANCH  12  20
HETATM   20  O   UNL     1       7.732  24.647  57.601  1.00  0.00    -0.360 OA
HETATM   21  H   UNL     1       8.572  24.509  58.081  1.00  0.00     0.217 HD
ENDBRANCH  12  20
ENDBRANCH  10  11
ENDBRANCH   8  10
BRANCH   4  22
HETATM   22  C   UNL     1       5.191  27.537  49.977  1.00  0.00     0.010 A 
HETATM   23  C   UNL     1       5.436  28.857  49.575  1.00  0.00     0.015 A 
HETATM   24  C   UNL     1       5.195  29.245  48.255  1.00  0.00     0.001 A 
HETATM   25  C   UNL     1       4.701  28.323  47.334  1.00  0.00     0.000 A 
HETATM   26  C   UNL     1       4.439  27.013  47.731  1.00  0.00     0.001 A 
HETATM   27  C   UNL     1       4.680  26.621  49.049  1.00  0.00     0.015 A 
ENDBRANCH   4  22
TORSDOF 4
ENDMDL
MODEL 7
REMARK VINA RESULT:      -8.8      2.582      7.567
REMARK  4 active torsions:
REMARK  status: ('A' for Active; 'I' for Inactive)
REMARK    1  A    between atoms: C_4  and  C_5 
REMARK    2  A    between atoms: C_14  and  C_15 
REMARK    3  A    between atoms: C_15  and  C_16 
REMARK    4  A    between atoms: C_17  and  O_18 
ROOT
HETATM    1  C   UNL     1       7.969  28.102  53.822  1.00  0.00     0.071 C 
HETATM    2  C   UNL     1       7.272  28.128  55.159  1.00  0.00     0.045 A 
HETATM    3  N   UNL     1       7.795  29.076  56.011  1.00  0.00    -0.234 NA
HETATM    4  C   UNL     1       7.266  29.219  57.184  1.00  0.00     0.141 A 
HETATM    5  N   UNL     1       6.242  28.424  57.622  1.00  0.00    -0.307 N 
HETATM    6  C   UNL     1       5.673  27.478  56.833  1.00  0.00     0.255 A 
HETATM    7  O   UNL     1       4.721  26.800  57.215  1.00  0.00    -0.268 OA
HETATM    8  C   UNL     1       6.229  27.332  55.468  1.00  0.00     0.039 A 
HETATM    9  H   UNL     1       5.861  28.498  58.552  1.00  0.00     0.170 HD
ENDROOT
BRANCH   8  10
HETATM   10  C   UNL     1       5.565  26.297  54.597  1.00  0.00     0.088 C 
BRANCH  10  11
HETATM   11  C   UNL     1       6.443  25.096  54.304  1.00  0.00    -0.020 A 
HETATM   12  C   UNL     1       6.907  24.767  53.010  1.00  0.00     0.074 A 
HETATM   13  C   UNL     1       7.770  23.690  52.796  1.00  0.00     0.074 A 
HETATM   14  C   UNL     1       8.143  22.932  53.883  1.00  0.00     0.077 A 
HETATM   15  C   UNL     1       7.672  23.203  55.154  1.00  0.00    -0.022 A 
HETATM   16  O   UNL     1       8.971  21.841  53.823  1.00  0.00    -0.350 OA
HETATM   17  C   UNL     1       8.161  22.161  56.084  1.00  0.00     0.068 C 
HETATM   18  C   UNL     1       6.822  24.271  55.384  1.00  0.00     0.020 A 
HETATM   19  C   UNL     1       9.269  21.568  55.213  1.00  0.00     0.180 C 
BRANCH  12  20
HETATM   20  O   UNL     1       6.555  25.450  51.879  1.00  0.00    -0.360 OA
HETATM   21  H   UNL     1       7.326  25.883  51.463  1.00  0.00     0.217 HD
ENDBRANCH  12  20
ENDBRANCH  10  11
ENDBRANCH   8  10
BRANCH   4  22
HETATM   22  C   UNL     1       7.761  30.263  58.124  1.00  0.00     0.010 A 
HETATM   23  C   UNL     1       9.123  30.409  58.418  1.00  0.00     0.015 A 
HETATM   24  C   UNL     1       9.546  31.389  59.320  1.00  0.00     0.001 A 
HETATM   25  C   UNL     1       8.613  32.219  59.939  1.00  0.00     0.000 A 
HETATM   26  C   UNL     1       7.255  32.069  59.665  1.00  0.00     0.001 A 
HETATM   27  C   UNL     1       6.829  31.092  58.763  1.00  0.00     0.015 A 
ENDBRANCH   4  22
TORSDOF 4
ENDMDL
MODEL 8
REMARK VINA RESULT:      -8.6      3.067      7.961
REMARK  4 active torsions:
REMARK  status: ('A' for Active; 'I' for Inactive)
REMARK    1  A    between atoms: C_4  and  C_5 
REMARK    2  A    between atoms: C_14  and  C_15 
REMARK    3  A    between atoms: C_15  and  C_16 
REMARK    4  A    between atoms: C_17  and  O_18 
ROOT
HETATM    1  C   UNL     1       4.905  28.846  56.637  1.00  0.00     0.071 C 
HETATM    2  C   UNL     1       6.335  29.264  56.862  1.00  0.00     0.045 A 
HETATM    3  N   UNL     1       6.513  29.930  58.055  1.00  0.00    -0.234 NA
HETATM    4  C   UNL     1       7.704  30.319  58.381  1.00  0.00     0.141 A 
HETATM    5  N   UNL     1       8.779  30.138  57.554  1.00  0.00    -0.307 N 
HETATM    6  C   UNL     1       8.679  29.483  56.370  1.00  0.00     0.255 A 
HETATM    7  O   UNL     1       9.659  29.280  55.656  1.00  0.00    -0.268 OA
HETATM    8  C   UNL     1       7.335  28.983  56.002  1.00  0.00     0.039 A 
HETATM    9  H   UNL     1       9.698  30.484  57.781  1.00  0.00     0.170 HD
ENDROOT
BRANCH   8  10
HETATM   10  C   UNL     1       7.250  28.232  54.698  1.00  0.00     0.088 C 
BRANCH  10  11
HETATM   11  C   UNL     1       7.156  26.728  54.869  1.00  0.00    -0.020 A 
HETATM   12  C   UNL     1       6.377  25.896  54.031  1.00  0.00     0.074 A 
HETATM   13  C   UNL     1       6.373  24.508  54.182  1.00  0.00     0.074 A 
HETATM   14  C   UNL     1       7.132  23.963  55.192  1.00  0.00     0.077 A 
HETATM   15  C   UNL     1       7.869  24.753  56.055  1.00  0.00    -0.022 A 
HETATM   16  O   UNL     1       7.214  22.622  55.468  1.00  0.00    -0.350 OA
HETATM   17  C   UNL     1       8.487  23.895  57.090  1.00  0.00     0.068 C 
HETATM   18  C   UNL     1       7.891  26.131  55.914  1.00  0.00     0.020 A 
HETATM   19  C   UNL     1       8.313  22.539  56.406  1.00  0.00     0.180 C 
BRANCH  12  20
HETATM   20  O   UNL     1       5.574  26.364  53.028  1.00  0.00    -0.360 OA
HETATM   21  H   UNL     1       4.640  26.113  53.167  1.00  0.00     0.217 HD
ENDBRANCH  12  20
ENDBRANCH  10  11
ENDBRANCH   8  10
BRANCH   4  22
HETATM   22  C   UNL     1       7.957  30.998  59.682  1.00  0.00     0.010 A 
HETATM   23  C   UNL     1       7.126  32.022  60.157  1.00  0.00     0.015 A 
HETATM   24  C   UNL     1       7.408  32.646  61.374  1.00  0.00     0.001 A 
HETATM   25  C   UNL     1       8.524  32.262  62.116  1.00  0.00     0.000 A 
HETATM   26  C   UNL     1       9.365  31.258  61.642  1.00  0.00     0.001 A 
HETATM   27  C   UNL     1       9.085  30.629  60.427  1.00  0.00     0.015 A 
ENDBRANCH   4  22
TORSDOF 4
ENDMDL
MODEL 9
REMARK VINA RESULT:      -8.5      2.134      3.356
REMARK  4 active torsions:
REMARK  status: ('A' for Active; 'I' for Inactive)
REMARK    1  A    between atoms: C_4  and  C_5 
REMARK    2  A    between atoms: C_14  and  C_15 
REMARK    3  A    between atoms: C_15  and  C_16 
REMARK    4  A    between atoms: C_17  and  O_18 
ROOT
HETATM    1  C   UNL     1       7.347  27.829  53.752  1.00  0.00     0.071 C 
HETATM    2  C   UNL     1       7.456  26.788  54.837  1.00  0.00     0.045 A 
HETATM    3  N   UNL     1       7.535  25.506  54.338  1.00  0.00    -0.234 NA
HETATM    4  C   UNL     1       7.660  24.520  55.167  1.00  0.00     0.141 A 
HETATM    5  N   UNL     1       7.663  24.707  56.523  1.00  0.00    -0.307 N 
HETATM    6  C   UNL     1       7.599  25.941  57.083  1.00  0.00     0.255 A 
HETATM    7  O   UNL     1       7.652  26.105  58.300  1.00  0.00    -0.268 OA
HETATM    8  C   UNL     1       7.507  27.087  56.151  1.00  0.00     0.039 A 
HETATM    9  H   UNL     1       7.709  23.939  57.173  1.00  0.00     0.170 HD
ENDROOT
BRANCH   8  10
HETATM   10  C   UNL     1       7.468  28.452  56.790  1.00  0.00     0.088 C 
BRANCH  10  11
HETATM   11  C   UNL     1       6.137  29.160  56.626  1.00  0.00    -0.020 A 
HETATM   12  C   UNL     1       4.889  28.536  56.855  1.00  0.00     0.074 A 
HETATM   13  C   UNL     1       3.690  29.246  56.758  1.00  0.00     0.074 A 
HETATM   14  C   UNL     1       3.749  30.575  56.404  1.00  0.00     0.077 A 
HETATM   15  C   UNL     1       4.951  31.201  56.131  1.00  0.00    -0.022 A 
HETATM   16  O   UNL     1       2.657  31.390  56.257  1.00  0.00    -0.350 OA
HETATM   17  C   UNL     1       4.684  32.585  55.681  1.00  0.00     0.068 C 
HETATM   18  C   UNL     1       6.149  30.515  56.232  1.00  0.00     0.020 A 
HETATM   19  C   UNL     1       3.236  32.712  56.154  1.00  0.00     0.180 C 
BRANCH  12  20
HETATM   20  O   UNL     1       4.746  27.215  57.177  1.00  0.00    -0.360 OA
HETATM   21  H   UNL     1       4.775  27.073  58.143  1.00  0.00     0.217 HD
ENDBRANCH  12  20
ENDBRANCH  10  11
ENDBRANCH   8  10
BRANCH   4  22
HETATM   22  C   UNL     1       7.799  23.121  54.677  1.00  0.00     0.010 A 
HETATM   23  C   UNL     1       7.942  22.825  53.314  1.00  0.00     0.015 A 
HETATM   24  C   UNL     1       8.051  21.497  52.892  1.00  0.00     0.001 A 
HETATM   25  C   UNL     1       8.008  20.461  53.824  1.00  0.00     0.000 A 
HETATM   26  C   UNL     1       7.849  20.747  55.178  1.00  0.00     0.001 A 
HETATM   27  C   UNL     1       7.742  22.072  55.604  1.00  0.00     0.015 A 
ENDBRANCH   4  22
TORSDOF 4
ENDMDL
MODEL 10
REMARK VINA RESULT:      -8.3      3.351      5.456
REMARK  4 active torsions:
REMARK  status: ('A' for Active; 'I' for Inactive)
REMARK    1  A    between atoms: C_4  and  C_5 
REMARK    2  A    between atoms: C_14  and  C_15 
REMARK    3  A    between atoms: C_15  and  C_16 
REMARK    4  A    between atoms: C_17  and  O_18 
ROOT
HETATM    1  C   UNL     1       4.984  29.722  57.636  1.00  0.00     0.071 C 
HETATM    2  C   UNL     1       6.380  29.161  57.545  1.00  0.00     0.045 A 
HETATM    3  N   UNL     1       6.400  27.853  57.113  1.00  0.00    -0.234 NA
HETATM    4  C   UNL     1       7.542  27.262  56.966  1.00  0.00     0.141 A 
HETATM    5  N   UNL     1       8.724  27.877  57.277  1.00  0.00    -0.307 N 
HETATM    6  C   UNL     1       8.780  29.165  57.698  1.00  0.00     0.255 A 
HETATM    7  O   UNL     1       9.849  29.728  57.929  1.00  0.00    -0.268 OA
HETATM    8  C   UNL     1       7.488  29.877  57.824  1.00  0.00     0.039 A 
HETATM    9  H   UNL     1       9.612  27.404  57.212  1.00  0.00     0.170 HD
ENDROOT
BRANCH   8  10
HETATM   10  C   UNL     1       7.572  31.316  58.265  1.00  0.00     0.088 C 
BRANCH  10  11
HETATM   11  C   UNL     1       7.168  31.533  59.711  1.00  0.00    -0.020 A 
HETATM   12  C   UNL     1       7.892  31.012  60.808  1.00  0.00     0.074 A 
HETATM   13  C   UNL     1       7.522  31.293  62.125  1.00  0.00     0.074 A 
HETATM   14  C   UNL     1       6.409  32.076  62.334  1.00  0.00     0.077 A 
HETATM   15  C   UNL     1       5.655  32.562  61.282  1.00  0.00    -0.022 A 
HETATM   16  O   UNL     1       5.920  32.421  63.567  1.00  0.00    -0.350 OA
HETATM   17  C   UNL     1       4.474  33.273  61.820  1.00  0.00     0.068 C 
HETATM   18  C   UNL     1       6.013  32.301  59.970  1.00  0.00     0.020 A 
HETATM   19  C   UNL     1       4.939  33.441  63.266  1.00  0.00     0.180 C 
BRANCH  12  20
HETATM   20  O   UNL     1       8.986  30.202  60.683  1.00  0.00    -0.360 OA
HETATM   21  H   UNL     1       9.819  30.709  60.730  1.00  0.00     0.217 HD
ENDBRANCH  12  20
ENDBRANCH  10  11
ENDBRANCH   8  10
BRANCH   4  22
HETATM   22  C   UNL     1       7.621  25.865  56.453  1.00  0.00     0.010 A 
HETATM   23  C   UNL     1       6.878  25.442  55.343  1.00  0.00     0.015 A 
HETATM   24  C   UNL     1       6.965  24.118  54.904  1.00  0.00     0.001 A 
HETATM   25  C   UNL     1       7.783  23.211  55.575  1.00  0.00     0.000 A 
HETATM   26  C   UNL     1       8.511  23.621  56.690  1.00  0.00     0.001 A 
HETATM   27  C   UNL     1       8.429  24.943  57.130  1.00  0.00     0.015 A 
ENDBRANCH   4  22
TORSDOF 4
ENDMDL
