MODEL 1
REMARK VINA RESULT:     -10.6      0.000      0.000
REMARK  8 active torsions:
REMARK  status: ('A' for Active; 'I' for Inactive)
REMARK    1  A    between atoms: C_4  and  C_5 
REMARK    2  A    between atoms: C_5  and  C_6 
REMARK    3  A    between atoms: C_5  and  C_31 
REMARK       I    between atoms: C_6  and  N_7 
REMARK    4  A    between atoms: N_7  and  C_8 
REMARK    5  A    between atoms: C_8  and  N_9 
REMARK    6  A    between atoms: N_9  and  C_10 
REMARK    7  A    between atoms: C_13  and  N_14 
REMARK       I    between atoms: N_17  and  C_18 
REMARK    8  A    between atoms: C_18  and  C_19 
ROOT
HETATM    1  N   UNL     1       6.151  27.685  52.288  1.00  0.00    -0.333 N 
HETATM    2  H   UNL     1       6.299  28.378  51.553  1.00  0.00     0.168 HD
ENDROOT
BRANCH   1   3
HETATM    3  C   UNL     1       5.686  26.488  51.796  1.00  0.00     0.178 C 
HETATM    4  S   UNL     1       4.961  26.133  50.336  1.00  0.00    -0.040 SA
BRANCH   3   5
HETATM    5  N   UNL     1       5.790  25.427  52.687  1.00  0.00    -0.303 N 
HETATM    6  C   UNL     1       6.914  24.685  53.041  1.00  0.00     0.236 C 
HETATM    7  O   UNL     1       7.954  24.706  52.377  1.00  0.00    -0.272 OA
HETATM    8  H   UNL     1       4.947  25.277  53.226  1.00  0.00     0.171 HD
BRANCH   6   9
HETATM    9  C   UNL     1       6.780  23.846  54.319  1.00  0.00     0.144 C 
BRANCH   9  10
HETATM   10  C   UNL     1       7.064  24.575  55.633  1.00  0.00    -0.041 A 
HETATM   11  C   UNL     1       5.986  25.198  56.294  1.00  0.00     0.008 A 
HETATM   12  C   UNL     1       6.169  25.872  57.502  1.00  0.00     0.001 A 
HETATM   13  C   UNL     1       7.436  25.941  58.072  1.00  0.00     0.000 A 
HETATM   14  C   UNL     1       8.517  25.344  57.429  1.00  0.00     0.001 A 
HETATM   15  C   UNL     1       8.337  24.670  56.217  1.00  0.00     0.008 A 
ENDBRANCH   9  10
BRANCH   9  16
HETATM   16  C   UNL     1       7.507  22.509  54.145  1.00  0.00    -0.041 A 
HETATM   17  C   UNL     1       7.786  21.737  55.287  1.00  0.00     0.008 A 
HETATM   18  C   UNL     1       8.391  20.486  55.171  1.00  0.00     0.001 A 
HETATM   19  C   UNL     1       8.722  19.986  53.915  1.00  0.00     0.000 A 
HETATM   20  C   UNL     1       8.449  20.736  52.774  1.00  0.00     0.001 A 
HETATM   21  C   UNL     1       7.843  21.988  52.884  1.00  0.00     0.008 A 
ENDBRANCH   9  16
ENDBRANCH   6   9
ENDBRANCH   3   5
ENDBRANCH   1   3
BRANCH   1  22
HETATM   22  C   UNL     1       6.531  28.137  53.569  1.00  0.00     0.034 A 
HETATM   23  C   UNL     1       7.811  28.099  54.111  1.00  0.00     0.031 A 
HETATM   24  C   UNL     1       8.061  28.610  55.398  1.00  0.00     0.026 A 
HETATM   25  C   UNL     1       7.046  29.187  56.169  1.00  0.00     0.010 A 
HETATM   26  C   UNL     1       5.761  29.205  55.616  1.00  0.00     0.026 A 
HETATM   27  C   UNL     1       5.503  28.681  54.347  1.00  0.00     0.031 A 
BRANCH  25  28
HETATM   28  N   UNL     1       7.235  29.725  57.445  1.00  0.00    -0.280 NA
HETATM   29  C   UNL     1       6.348  30.876  57.727  1.00  0.00     0.115 C 
HETATM   30  C   UNL     1       6.318  31.163  59.240  1.00  0.00     0.141 C 
HETATM   31  N   UNL     1       7.655  31.252  59.848  1.00  0.00    -0.345 N 
HETATM   32  C   UNL     1       7.954  31.984  61.004  1.00  0.00     0.260 C 
HETATM   33  C   UNL     1       8.614  30.221  59.425  1.00  0.00     0.141 C 
HETATM   34  O   UNL     1       9.094  31.984  61.469  1.00  0.00    -0.267 OA
HETATM   35  C   UNL     1       8.615  29.972  57.906  1.00  0.00     0.115 C 
BRANCH  32  36
HETATM   36  C   UNL     1       6.877  32.730  61.636  1.00  0.00     0.072 A 
HETATM   37  S   UNL     1       5.897  31.945  62.801  1.00  0.00    -0.097 SA
HETATM   38  C   UNL     1       4.939  33.343  63.031  1.00  0.00     0.050 A 
HETATM   39  C   UNL     1       5.337  34.383  62.220  1.00  0.00     0.009 A 
HETATM   40  C   UNL     1       6.448  34.024  61.402  1.00  0.00     0.025 A 
ENDBRANCH  32  36
ENDBRANCH  25  28
ENDBRANCH   1  22
TORSDOF 8
ENDMDL
MODEL 2
REMARK VINA RESULT:     -10.4      0.735      3.137
REMARK  8 active torsions:
REMARK  status: ('A' for Active; 'I' for Inactive)
REMARK    1  A    between atoms: C_4  and  C_5 
REMARK    2  A    between atoms: C_5  and  C_6 
REMARK    3  A    between atoms: C_5  and  C_31 
REMARK       I    between atoms: C_6  and  N_7 
REMARK    4  A    between atoms: N_7  and  C_8 
REMARK    5  A    between atoms: C_8  and  N_9 
REMARK    6  A    between atoms: N_9  and  C_10 
REMARK    7  A    between atoms: C_13  and  N_14 
REMARK       I    between atoms: N_17  and  C_18 
REMARK    8  A    between atoms: C_18  and  C_19 
ROOT
HETATM    1  N   UNL     1       5.920  27.926  52.889  1.00  0.00    -0.333 N 
HETATM    2  H   UNL     1       5.635  28.659  52.237  1.00  0.00     0.168 HD
ENDROOT
BRANCH   1   3
HETATM    3  C   UNL     1       5.906  26.677  52.315  1.00  0.00     0.178 C 
HETATM    4  S   UNL     1       5.258  26.165  50.866  1.00  0.00    -0.040 SA
BRANCH   3   5
HETATM    5  N   UNL     1       6.475  25.682  53.101  1.00  0.00    -0.303 N 
HETATM    6  C   UNL     1       7.752  25.131  53.032  1.00  0.00     0.236 C 
HETATM    7  O   UNL     1       8.481  25.277  52.048  1.00  0.00    -0.272 OA
HETATM    8  H   UNL     1       5.905  25.434  53.900  1.00  0.00     0.171 HD
BRANCH   6   9
HETATM    9  C   UNL     1       8.201  24.338  54.268  1.00  0.00     0.144 C 
BRANCH   9  10
HETATM   10  C   UNL     1       8.276  22.821  54.100  1.00  0.00    -0.041 A 
HETATM   11  C   UNL     1       8.851  22.064  55.142  1.00  0.00     0.008 A 
HETATM   12  C   UNL     1       8.943  20.674  55.062  1.00  0.00     0.001 A 
HETATM   13  C   UNL     1       8.467  20.012  53.936  1.00  0.00     0.000 A 
HETATM   14  C   UNL     1       7.908  20.741  52.889  1.00  0.00     0.001 A 
HETATM   15  C   UNL     1       7.816  22.134  52.966  1.00  0.00     0.008 A 
ENDBRANCH   9  10
BRANCH   9  16
HETATM   16  C   UNL     1       7.436  24.821  55.504  1.00  0.00    -0.041 A 
HETATM   17  C   UNL     1       8.151  25.448  56.540  1.00  0.00     0.008 A 
HETATM   18  C   UNL     1       7.489  25.957  57.657  1.00  0.00     0.001 A 
HETATM   19  C   UNL     1       6.104  25.853  57.753  1.00  0.00     0.000 A 
HETATM   20  C   UNL     1       5.380  25.239  56.734  1.00  0.00     0.001 A 
HETATM   21  C   UNL     1       6.038  24.728  55.614  1.00  0.00     0.008 A 
ENDBRANCH   9  16
ENDBRANCH   6   9
ENDBRANCH   3   5
ENDBRANCH   1   3
BRANCH   1  22
HETATM   22  C   UNL     1       6.306  28.420  54.152  1.00  0.00     0.034 A 
HETATM   23  C   UNL     1       7.608  28.601  54.605  1.00  0.00     0.031 A 
HETATM   24  C   UNL     1       7.857  29.131  55.885  1.00  0.00     0.026 A 
HETATM   25  C   UNL     1       6.814  29.509  56.737  1.00  0.00     0.010 A 
HETATM   26  C   UNL     1       5.509  29.309  56.274  1.00  0.00     0.026 A 
HETATM   27  C   UNL     1       5.257  28.765  55.012  1.00  0.00     0.031 A 
BRANCH  25  28
HETATM   28  N   UNL     1       6.997  30.055  58.012  1.00  0.00    -0.280 NA
HETATM   29  C   UNL     1       6.176  31.264  58.249  1.00  0.00     0.115 C 
HETATM   30  C   UNL     1       6.116  31.576  59.756  1.00  0.00     0.141 C 
HETATM   31  N   UNL     1       7.437  31.591  60.405  1.00  0.00    -0.345 N 
HETATM   32  C   UNL     1       7.745  32.321  61.560  1.00  0.00     0.260 C 
HETATM   33  C   UNL     1       8.342  30.495  60.027  1.00  0.00     0.141 C 
HETATM   34  O   UNL     1       8.868  32.257  62.061  1.00  0.00    -0.267 OA
HETATM   35  C   UNL     1       8.375  30.223  58.513  1.00  0.00     0.115 C 
BRANCH  32  36
HETATM   36  C   UNL     1       6.698  33.142  62.146  1.00  0.00     0.072 A 
HETATM   37  S   UNL     1       5.620  32.433  63.273  1.00  0.00    -0.097 SA
HETATM   38  C   UNL     1       4.753  33.896  63.461  1.00  0.00     0.050 A 
HETATM   39  C   UNL     1       5.253  34.901  62.665  1.00  0.00     0.009 A 
HETATM   40  C   UNL     1       6.369  34.462  61.892  1.00  0.00     0.025 A 
ENDBRANCH  32  36
ENDBRANCH  25  28
ENDBRANCH   1  22
TORSDOF 8
ENDMDL
MODEL 3
REMARK VINA RESULT:      -9.6      2.579     10.812
REMARK  8 active torsions:
REMARK  status: ('A' for Active; 'I' for Inactive)
REMARK    1  A    between atoms: C_4  and  C_5 
REMARK    2  A    between atoms: C_5  and  C_6 
REMARK    3  A    between atoms: C_5  and  C_31 
REMARK       I    between atoms: C_6  and  N_7 
REMARK    4  A    between atoms: N_7  and  C_8 
REMARK    5  A    between atoms: C_8  and  N_9 
REMARK    6  A    between atoms: N_9  and  C_10 
REMARK    7  A    between atoms: C_13  and  N_14 
REMARK       I    between atoms: N_17  and  C_18 
REMARK    8  A    between atoms: C_18  and  C_19 
ROOT
HETATM    1  N   UNL     1       3.628  32.153  58.935  1.00  0.00    -0.333 N 
HETATM    2  H   UNL     1       2.847  31.775  59.473  1.00  0.00     0.168 HD
ENDROOT
BRANCH   1   3
HETATM    3  C   UNL     1       3.848  33.485  59.193  1.00  0.00     0.178 C 
HETATM    4  S   UNL     1       3.255  34.843  58.426  1.00  0.00    -0.040 SA
BRANCH   3   5
HETATM    5  N   UNL     1       4.752  33.725  60.221  1.00  0.00    -0.303 N 
HETATM    6  C   UNL     1       5.056  32.933  61.325  1.00  0.00     0.236 C 
HETATM    7  O   UNL     1       4.334  32.000  61.686  1.00  0.00    -0.272 OA
HETATM    8  H   UNL     1       5.341  34.530  60.051  1.00  0.00     0.171 HD
BRANCH   6   9
HETATM    9  C   UNL     1       6.357  33.289  62.059  1.00  0.00     0.144 C 
BRANCH   9  10
HETATM   10  C   UNL     1       7.566  32.408  61.747  1.00  0.00    -0.041 A 
HETATM   11  C   UNL     1       7.751  31.237  62.511  1.00  0.00     0.008 A 
HETATM   12  C   UNL     1       8.827  30.381  62.276  1.00  0.00     0.001 A 
HETATM   13  C   UNL     1       9.743  30.680  61.273  1.00  0.00     0.000 A 
HETATM   14  C   UNL     1       9.588  31.837  60.516  1.00  0.00     0.001 A 
HETATM   15  C   UNL     1       8.511  32.699  60.752  1.00  0.00     0.008 A 
ENDBRANCH   9  10
BRANCH   9  16
HETATM   16  C   UNL     1       6.073  33.504  63.549  1.00  0.00    -0.041 A 
HETATM   17  C   UNL     1       7.158  33.581  64.440  1.00  0.00     0.008 A 
HETATM   18  C   UNL     1       6.951  33.835  65.795  1.00  0.00     0.001 A 
HETATM   19  C   UNL     1       5.660  34.022  66.279  1.00  0.00     0.000 A 
HETATM   20  C   UNL     1       4.574  33.954  65.410  1.00  0.00     0.001 A 
HETATM   21  C   UNL     1       4.776  33.699  64.052  1.00  0.00     0.008 A 
ENDBRANCH   9  16
ENDBRANCH   6   9
ENDBRANCH   3   5
ENDBRANCH   1   3
BRANCH   1  22
HETATM   22  C   UNL     1       4.285  31.186  58.147  1.00  0.00     0.034 A 
HETATM   23  C   UNL     1       5.643  30.890  58.165  1.00  0.00     0.031 A 
HETATM   24  C   UNL     1       6.170  29.877  57.342  1.00  0.00     0.026 A 
HETATM   25  C   UNL     1       5.352  29.123  56.494  1.00  0.00     0.010 A 
HETATM   26  C   UNL     1       3.990  29.441  56.475  1.00  0.00     0.026 A 
HETATM   27  C   UNL     1       3.466  30.459  57.275  1.00  0.00     0.031 A 
BRANCH  25  28
HETATM   28  N   UNL     1       5.812  28.094  55.666  1.00  0.00    -0.280 NA
HETATM   29  C   UNL     1       6.383  26.954  56.418  1.00  0.00     0.115 C 
HETATM   30  C   UNL     1       6.500  25.721  55.502  1.00  0.00     0.141 C 
HETATM   31  N   UNL     1       7.159  26.004  54.217  1.00  0.00    -0.345 N 
HETATM   32  C   UNL     1       7.850  25.054  53.454  1.00  0.00     0.260 C 
HETATM   33  C   UNL     1       6.738  27.244  53.547  1.00  0.00     0.141 C 
HETATM   34  O   UNL     1       8.349  25.363  52.371  1.00  0.00    -0.267 OA
HETATM   35  C   UNL     1       6.642  28.450  54.498  1.00  0.00     0.115 C 
BRANCH  32  36
HETATM   36  C   UNL     1       7.947  23.700  53.976  1.00  0.00     0.072 A 
HETATM   37  S   UNL     1       8.789  23.436  55.444  1.00  0.00    -0.097 SA
HETATM   38  C   UNL     1       8.508  21.750  55.376  1.00  0.00     0.050 A 
HETATM   39  C   UNL     1       7.810  21.386  54.247  1.00  0.00     0.009 A 
HETATM   40  C   UNL     1       7.498  22.512  53.428  1.00  0.00     0.025 A 
ENDBRANCH  32  36
ENDBRANCH  25  28
ENDBRANCH   1  22
TORSDOF 8
ENDMDL
MODEL 4
REMARK VINA RESULT:      -9.5      2.704     10.755
REMARK  8 active torsions:
REMARK  status: ('A' for Active; 'I' for Inactive)
REMARK    1  A    between atoms: C_4  and  C_5 
REMARK    2  A    between atoms: C_5  and  C_6 
REMARK    3  A    between atoms: C_5  and  C_31 
REMARK       I    between atoms: C_6  and  N_7 
REMARK    4  A    between atoms: N_7  and  C_8 
REMARK    5  A    between atoms: C_8  and  N_9 
REMARK    6  A    between atoms: N_9  and  C_10 
REMARK    7  A    between atoms: C_13  and  N_14 
REMARK       I    between atoms: N_17  and  C_18 
REMARK    8  A    between atoms: C_18  and  C_19 
ROOT
HETATM    1  N   UNL     1       4.111  33.448  58.465  1.00  0.00    -0.333 N 
HETATM    2  H   UNL     1       3.989  34.110  57.697  1.00  0.00     0.168 HD
ENDROOT
BRANCH   1   3
HETATM    3  C   UNL     1       3.650  33.942  59.662  1.00  0.00     0.178 C 
HETATM    4  S   UNL     1       2.133  34.489  60.089  1.00  0.00    -0.040 SA
BRANCH   3   5
HETATM    5  N   UNL     1       4.625  34.049  60.647  1.00  0.00    -0.303 N 
HETATM    6  C   UNL     1       5.062  33.091  61.558  1.00  0.00     0.236 C 
HETATM    7  O   UNL     1       4.423  32.062  61.790  1.00  0.00    -0.272 OA
HETATM    8  H   UNL     1       5.155  34.909  60.588  1.00  0.00     0.171 HD
BRANCH   6   9
HETATM    9  C   UNL     1       6.400  33.392  62.247  1.00  0.00     0.144 C 
BRANCH   9  10
HETATM   10  C   UNL     1       7.548  32.432  61.935  1.00  0.00    -0.041 A 
HETATM   11  C   UNL     1       8.485  32.813  60.953  1.00  0.00     0.008 A 
HETATM   12  C   UNL     1       9.564  31.991  60.623  1.00  0.00     0.001 A 
HETATM   13  C   UNL     1       9.724  30.768  61.266  1.00  0.00     0.000 A 
HETATM   14  C   UNL     1       8.803  30.366  62.229  1.00  0.00     0.001 A 
HETATM   15  C   UNL     1       7.719  31.187  62.559  1.00  0.00     0.008 A 
ENDBRANCH   9  10
BRANCH   9  16
HETATM   16  C   UNL     1       6.170  33.670  63.736  1.00  0.00    -0.041 A 
HETATM   17  C   UNL     1       4.850  33.802  64.203  1.00  0.00     0.008 A 
HETATM   18  C   UNL     1       4.590  33.995  65.559  1.00  0.00     0.001 A 
HETATM   19  C   UNL     1       5.641  34.054  66.469  1.00  0.00     0.000 A 
HETATM   20  C   UNL     1       6.954  33.921  66.024  1.00  0.00     0.001 A 
HETATM   21  C   UNL     1       7.220  33.727  64.667  1.00  0.00     0.008 A 
ENDBRANCH   9  16
ENDBRANCH   6   9
ENDBRANCH   3   5
ENDBRANCH   1   3
BRANCH   1  22
HETATM   22  C   UNL     1       4.647  32.209  58.057  1.00  0.00     0.034 A 
HETATM   23  C   UNL     1       3.961  31.186  57.412  1.00  0.00     0.031 A 
HETATM   24  C   UNL     1       4.625  30.004  57.033  1.00  0.00     0.026 A 
HETATM   25  C   UNL     1       5.991  29.820  57.272  1.00  0.00     0.010 A 
HETATM   26  C   UNL     1       6.665  30.852  57.934  1.00  0.00     0.026 A 
HETATM   27  C   UNL     1       6.006  32.020  58.330  1.00  0.00     0.031 A 
BRANCH  25  28
HETATM   28  N   UNL     1       6.708  28.678  56.906  1.00  0.00    -0.280 NA
HETATM   29  C   UNL     1       5.953  27.783  56.001  1.00  0.00     0.115 C 
HETATM   30  C   UNL     1       6.909  26.778  55.332  1.00  0.00     0.141 C 
HETATM   31  N   UNL     1       7.795  26.087  56.282  1.00  0.00    -0.345 N 
HETATM   32  C   UNL     1       8.356  24.821  56.070  1.00  0.00     0.260 C 
HETATM   33  C   UNL     1       8.405  26.940  57.314  1.00  0.00     0.141 C 
HETATM   34  O   UNL     1       9.114  24.324  56.902  1.00  0.00    -0.267 OA
HETATM   35  C   UNL     1       7.413  27.923  57.960  1.00  0.00     0.115 C 
BRANCH  32  36
HETATM   36  C   UNL     1       8.020  24.126  54.837  1.00  0.00     0.072 A 
HETATM   37  S   UNL     1       7.686  22.447  54.896  1.00  0.00    -0.097 SA
HETATM   38  C   UNL     1       7.431  22.373  53.206  1.00  0.00     0.050 A 
HETATM   39  C   UNL     1       7.620  23.594  52.600  1.00  0.00     0.009 A 
HETATM   40  C   UNL     1       7.976  24.606  53.540  1.00  0.00     0.025 A 
ENDBRANCH  32  36
ENDBRANCH  25  28
ENDBRANCH   1  22
TORSDOF 8
ENDMDL
MODEL 5
REMARK VINA RESULT:      -9.4      2.392      4.992
REMARK  8 active torsions:
REMARK  status: ('A' for Active; 'I' for Inactive)
REMARK    1  A    between atoms: C_4  and  C_5 
REMARK    2  A    between atoms: C_5  and  C_6 
REMARK    3  A    between atoms: C_5  and  C_31 
REMARK       I    between atoms: C_6  and  N_7 
REMARK    4  A    between atoms: N_7  and  C_8 
REMARK    5  A    between atoms: C_8  and  N_9 
REMARK    6  A    between atoms: N_9  and  C_10 
REMARK    7  A    between atoms: C_13  and  N_14 
REMARK       I    between atoms: N_17  and  C_18 
REMARK    8  A    between atoms: C_18  and  C_19 
ROOT
HETATM    1  N   UNL     1       3.610  30.858  54.433  1.00  0.00    -0.333 N 
HETATM    2  H   UNL     1       2.841  31.414  54.054  1.00  0.00     0.168 HD
ENDROOT
BRANCH   1   3
HETATM    3  C   UNL     1       4.222  30.085  53.475  1.00  0.00     0.178 C 
HETATM    4  S   UNL     1       3.737  29.711  51.923  1.00  0.00    -0.040 SA
BRANCH   3   5
HETATM    5  N   UNL     1       5.400  29.481  53.897  1.00  0.00    -0.303 N 
HETATM    6  C   UNL     1       5.640  28.145  54.205  1.00  0.00     0.236 C 
HETATM    7  O   UNL     1       4.727  27.340  54.407  1.00  0.00    -0.272 OA
HETATM    8  H   UNL     1       6.202  30.097  53.843  1.00  0.00     0.171 HD
BRANCH   6   9
HETATM    9  C   UNL     1       7.118  27.733  54.265  1.00  0.00     0.144 C 
BRANCH   9  10
HETATM   10  C   UNL     1       7.414  26.257  53.999  1.00  0.00    -0.041 A 
HETATM   11  C   UNL     1       7.610  25.848  52.665  1.00  0.00     0.008 A 
HETATM   12  C   UNL     1       7.895  24.519  52.349  1.00  0.00     0.001 A 
HETATM   13  C   UNL     1       7.984  23.570  53.361  1.00  0.00     0.000 A 
HETATM   14  C   UNL     1       7.780  23.949  54.685  1.00  0.00     0.001 A 
HETATM   15  C   UNL     1       7.493  25.281  55.004  1.00  0.00     0.008 A 
ENDBRANCH   9  10
BRANCH   9  16
HETATM   16  C   UNL     1       7.770  28.313  55.524  1.00  0.00    -0.041 A 
HETATM   17  C   UNL     1       9.018  28.952  55.406  1.00  0.00     0.008 A 
HETATM   18  C   UNL     1       9.621  29.547  56.513  1.00  0.00     0.001 A 
HETATM   19  C   UNL     1       8.987  29.518  57.752  1.00  0.00     0.000 A 
HETATM   20  C   UNL     1       7.749  28.894  57.885  1.00  0.00     0.001 A 
HETATM   21  C   UNL     1       7.141  28.296  56.780  1.00  0.00     0.008 A 
ENDBRANCH   9  16
ENDBRANCH   6   9
ENDBRANCH   3   5
ENDBRANCH   1   3
BRANCH   1  22
HETATM   22  C   UNL     1       3.856  31.102  55.800  1.00  0.00     0.034 A 
HETATM   23  C   UNL     1       3.168  30.549  56.874  1.00  0.00     0.031 A 
HETATM   24  C   UNL     1       3.534  30.857  58.198  1.00  0.00     0.026 A 
HETATM   25  C   UNL     1       4.605  31.710  58.483  1.00  0.00     0.010 A 
HETATM   26  C   UNL     1       5.280  32.270  57.392  1.00  0.00     0.026 A 
HETATM   27  C   UNL     1       4.908  31.983  56.076  1.00  0.00     0.031 A 
BRANCH  25  28
HETATM   28  N   UNL     1       5.027  32.041  59.774  1.00  0.00    -0.280 NA
HETATM   29  C   UNL     1       4.449  33.312  60.265  1.00  0.00     0.115 C 
HETATM   30  C   UNL     1       4.624  33.417  61.792  1.00  0.00     0.141 C 
HETATM   31  N   UNL     1       5.997  33.148  62.246  1.00  0.00    -0.345 N 
HETATM   32  C   UNL     1       6.558  33.657  63.425  1.00  0.00     0.260 C 
HETATM   33  C   UNL     1       6.658  31.994  61.619  1.00  0.00     0.141 C 
HETATM   34  O   UNL     1       7.706  33.360  63.752  1.00  0.00    -0.267 OA
HETATM   35  C   UNL     1       6.463  31.932  60.093  1.00  0.00     0.115 C 
BRANCH  32  36
HETATM   36  C   UNL     1       5.738  34.534  64.246  1.00  0.00     0.072 A 
HETATM   37  S   UNL     1       4.812  33.855  65.517  1.00  0.00    -0.097 SA
HETATM   38  C   UNL     1       4.167  35.380  65.948  1.00  0.00     0.050 A 
HETATM   39  C   UNL     1       4.624  36.386  65.127  1.00  0.00     0.009 A 
HETATM   40  C   UNL     1       5.520  35.896  64.132  1.00  0.00     0.025 A 
ENDBRANCH  32  36
ENDBRANCH  25  28
ENDBRANCH   1  22
TORSDOF 8
ENDMDL
MODEL 6
REMARK VINA RESULT:      -9.2      2.434      4.190
REMARK  8 active torsions:
REMARK  status: ('A' for Active; 'I' for Inactive)
REMARK    1  A    between atoms: C_4  and  C_5 
REMARK    2  A    between atoms: C_5  and  C_6 
REMARK    3  A    between atoms: C_5  and  C_31 
REMARK       I    between atoms: C_6  and  N_7 
REMARK    4  A    between atoms: N_7  and  C_8 
REMARK    5  A    between atoms: C_8  and  N_9 
REMARK    6  A    between atoms: N_9  and  C_10 
REMARK    7  A    between atoms: C_13  and  N_14 
REMARK       I    between atoms: N_17  and  C_18 
REMARK    8  A    between atoms: C_18  and  C_19 
ROOT
HETATM    1  N   UNL     1       4.124  26.822  53.126  1.00  0.00    -0.333 N 
HETATM    2  H   UNL     1       3.202  26.382  53.142  1.00  0.00     0.168 HD
ENDROOT
BRANCH   1   3
HETATM    3  C   UNL     1       5.022  26.131  52.347  1.00  0.00     0.178 C 
HETATM    4  S   UNL     1       5.163  26.043  50.687  1.00  0.00    -0.040 SA
BRANCH   3   5
HETATM    5  N   UNL     1       5.911  25.342  53.067  1.00  0.00    -0.303 N 
HETATM    6  C   UNL     1       7.297  25.258  52.959  1.00  0.00     0.236 C 
HETATM    7  O   UNL     1       7.910  25.699  51.983  1.00  0.00    -0.272 OA
HETATM    8  H   UNL     1       5.477  24.869  53.849  1.00  0.00     0.171 HD
BRANCH   6   9
HETATM    9  C   UNL     1       8.016  24.592  54.140  1.00  0.00     0.144 C 
BRANCH   9  10
HETATM   10  C   UNL     1       8.185  23.075  54.053  1.00  0.00    -0.041 A 
HETATM   11  C   UNL     1       8.836  22.416  55.115  1.00  0.00     0.008 A 
HETATM   12  C   UNL     1       9.017  21.032  55.108  1.00  0.00     0.001 A 
HETATM   13  C   UNL     1       8.553  20.279  54.035  1.00  0.00     0.000 A 
HETATM   14  C   UNL     1       7.919  20.910  52.969  1.00  0.00     0.001 A 
HETATM   15  C   UNL     1       7.739  22.298  52.973  1.00  0.00     0.008 A 
ENDBRANCH   9  10
BRANCH   9  16
HETATM   16  C   UNL     1       7.439  25.109  55.461  1.00  0.00    -0.041 A 
HETATM   17  C   UNL     1       8.078  26.185  56.103  1.00  0.00     0.008 A 
HETATM   18  C   UNL     1       7.554  26.728  57.276  1.00  0.00     0.001 A 
HETATM   19  C   UNL     1       6.384  26.209  57.822  1.00  0.00     0.000 A 
HETATM   20  C   UNL     1       5.737  25.146  57.197  1.00  0.00     0.001 A 
HETATM   21  C   UNL     1       6.256  24.599  56.023  1.00  0.00     0.008 A 
ENDBRANCH   9  16
ENDBRANCH   6   9
ENDBRANCH   3   5
ENDBRANCH   1   3
BRANCH   1  22
HETATM   22  C   UNL     1       4.179  28.033  53.845  1.00  0.00     0.034 A 
HETATM   23  C   UNL     1       3.760  29.280  53.395  1.00  0.00     0.031 A 
HETATM   24  C   UNL     1       3.847  30.412  54.228  1.00  0.00     0.026 A 
HETATM   25  C   UNL     1       4.336  30.324  55.536  1.00  0.00     0.010 A 
HETATM   26  C   UNL     1       4.766  29.066  55.971  1.00  0.00     0.026 A 
HETATM   27  C   UNL     1       4.701  27.943  55.141  1.00  0.00     0.031 A 
BRANCH  25  28
HETATM   28  N   UNL     1       4.431  31.406  56.416  1.00  0.00    -0.280 NA
HETATM   29  C   UNL     1       3.683  31.197  57.676  1.00  0.00     0.115 C 
HETATM   30  C   UNL     1       4.140  32.216  58.737  1.00  0.00     0.141 C 
HETATM   31  N   UNL     1       4.152  33.605  58.251  1.00  0.00    -0.345 N 
HETATM   32  C   UNL     1       4.007  34.733  59.068  1.00  0.00     0.260 C 
HETATM   33  C   UNL     1       4.719  33.802  56.909  1.00  0.00     0.141 C 
HETATM   34  O   UNL     1       4.059  35.865  58.589  1.00  0.00    -0.267 OA
HETATM   35  C   UNL     1       4.231  32.767  55.880  1.00  0.00     0.115 C 
BRANCH  32  36
HETATM   36  C   UNL     1       3.804  34.521  60.493  1.00  0.00     0.072 A 
HETATM   37  S   UNL     1       2.205  34.420  61.097  1.00  0.00    -0.097 SA
HETATM   38  C   UNL     1       2.756  34.212  62.703  1.00  0.00     0.050 A 
HETATM   39  C   UNL     1       4.129  34.245  62.787  1.00  0.00     0.009 A 
HETATM   40  C   UNL     1       4.736  34.439  61.512  1.00  0.00     0.025 A 
ENDBRANCH  32  36
ENDBRANCH  25  28
ENDBRANCH   1  22
TORSDOF 8
ENDMDL
MODEL 7
REMARK VINA RESULT:      -9.2      2.561      9.903
REMARK  8 active torsions:
REMARK  status: ('A' for Active; 'I' for Inactive)
REMARK    1  A    between atoms: C_4  and  C_5 
REMARK    2  A    between atoms: C_5  and  C_6 
REMARK    3  A    between atoms: C_5  and  C_31 
REMARK       I    between atoms: C_6  and  N_7 
REMARK    4  A    between atoms: N_7  and  C_8 
REMARK    5  A    between atoms: C_8  and  N_9 
REMARK    6  A    between atoms: N_9  and  C_10 
REMARK    7  A    between atoms: C_13  and  N_14 
REMARK       I    between atoms: N_17  and  C_18 
REMARK    8  A    between atoms: C_18  and  C_19 
ROOT
HETATM    1  N   UNL     1       3.233  32.364  57.348  1.00  0.00    -0.333 N 
HETATM    2  H   UNL     1       2.286  32.140  57.657  1.00  0.00     0.168 HD
ENDROOT
BRANCH   1   3
HETATM    3  C   UNL     1       3.661  33.586  57.808  1.00  0.00     0.178 C 
HETATM    4  S   UNL     1       2.992  35.103  57.617  1.00  0.00    -0.040 SA
BRANCH   3   5
HETATM    5  N   UNL     1       4.872  33.547  58.489  1.00  0.00    -0.303 N 
HETATM    6  C   UNL     1       5.288  32.673  59.490  1.00  0.00     0.236 C 
HETATM    7  O   UNL     1       4.499  31.958  60.111  1.00  0.00    -0.272 OA
HETATM    8  H   UNL     1       5.567  34.170  58.098  1.00  0.00     0.171 HD
BRANCH   6   9
HETATM    9  C   UNL     1       6.799  32.648  59.763  1.00  0.00     0.144 C 
BRANCH   9  10
HETATM   10  C   UNL     1       7.592  31.552  59.051  1.00  0.00    -0.041 A 
HETATM   11  C   UNL     1       8.991  31.695  58.961  1.00  0.00     0.008 A 
HETATM   12  C   UNL     1       9.780  30.728  58.335  1.00  0.00     0.001 A 
HETATM   13  C   UNL     1       9.183  29.602  57.780  1.00  0.00     0.000 A 
HETATM   14  C   UNL     1       7.801  29.447  57.845  1.00  0.00     0.001 A 
HETATM   15  C   UNL     1       7.008  30.415  58.470  1.00  0.00     0.008 A 
ENDBRANCH   9  10
BRANCH   9  16
HETATM   16  C   UNL     1       7.060  32.769  61.267  1.00  0.00    -0.041 A 
HETATM   17  C   UNL     1       6.445  33.815  61.978  1.00  0.00     0.008 A 
HETATM   18  C   UNL     1       6.605  33.929  63.359  1.00  0.00     0.001 A 
HETATM   19  C   UNL     1       7.376  32.998  64.050  1.00  0.00     0.000 A 
HETATM   20  C   UNL     1       7.988  31.954  63.362  1.00  0.00     0.001 A 
HETATM   21  C   UNL     1       7.831  31.835  61.980  1.00  0.00     0.008 A 
ENDBRANCH   9  16
ENDBRANCH   6   9
ENDBRANCH   3   5
ENDBRANCH   1   3
BRANCH   1  22
HETATM   22  C   UNL     1       3.839  31.328  56.608  1.00  0.00     0.034 A 
HETATM   23  C   UNL     1       4.661  31.479  55.497  1.00  0.00     0.031 A 
HETATM   24  C   UNL     1       5.227  30.356  54.863  1.00  0.00     0.026 A 
HETATM   25  C   UNL     1       5.000  29.058  55.331  1.00  0.00     0.010 A 
HETATM   26  C   UNL     1       4.160  28.920  56.441  1.00  0.00     0.026 A 
HETATM   27  C   UNL     1       3.581  30.029  57.063  1.00  0.00     0.031 A 
BRANCH  25  28
HETATM   28  N   UNL     1       5.546  27.906  54.756  1.00  0.00    -0.280 NA
HETATM   29  C   UNL     1       6.140  26.986  55.750  1.00  0.00     0.115 C 
HETATM   30  C   UNL     1       6.356  25.596  55.122  1.00  0.00     0.141 C 
HETATM   31  N   UNL     1       7.054  25.639  53.827  1.00  0.00    -0.345 N 
HETATM   32  C   UNL     1       7.823  24.591  53.305  1.00  0.00     0.260 C 
HETATM   33  C   UNL     1       6.601  26.684  52.896  1.00  0.00     0.141 C 
HETATM   34  O   UNL     1       8.352  24.693  52.198  1.00  0.00    -0.267 OA
HETATM   35  C   UNL     1       6.405  28.056  53.565  1.00  0.00     0.115 C 
BRANCH  32  36
HETATM   36  C   UNL     1       7.965  23.386  54.106  1.00  0.00     0.072 A 
HETATM   37  S   UNL     1       8.739  23.489  55.630  1.00  0.00    -0.097 SA
HETATM   38  C   UNL     1       8.554  21.811  55.910  1.00  0.00     0.050 A 
HETATM   39  C   UNL     1       7.939  21.175  54.855  1.00  0.00     0.009 A 
HETATM   40  C   UNL     1       7.612  22.082  53.804  1.00  0.00     0.025 A 
ENDBRANCH  32  36
ENDBRANCH  25  28
ENDBRANCH   1  22
TORSDOF 8
ENDMDL
MODEL 8
REMARK VINA RESULT:      -9.1      2.374     11.963
REMARK  8 active torsions:
REMARK  status: ('A' for Active; 'I' for Inactive)
REMARK    1  A    between atoms: C_4  and  C_5 
REMARK    2  A    between atoms: C_5  and  C_6 
REMARK    3  A    between atoms: C_5  and  C_31 
REMARK       I    between atoms: C_6  and  N_7 
REMARK    4  A    between atoms: N_7  and  C_8 
REMARK    5  A    between atoms: C_8  and  N_9 
REMARK    6  A    between atoms: N_9  and  C_10 
REMARK    7  A    between atoms: C_13  and  N_14 
REMARK       I    between atoms: N_17  and  C_18 
REMARK    8  A    between atoms: C_18  and  C_19 
ROOT
HETATM    1  N   UNL     1       7.543  32.079  59.850  1.00  0.00    -0.333 N 
HETATM    2  H   UNL     1       7.728  32.968  59.382  1.00  0.00     0.168 HD
ENDROOT
BRANCH   1   3
HETATM    3  C   UNL     1       7.496  32.204  61.218  1.00  0.00     0.178 C 
HETATM    4  S   UNL     1       8.346  31.395  62.404  1.00  0.00    -0.040 SA
BRANCH   3   5
HETATM    5  N   UNL     1       6.548  33.112  61.674  1.00  0.00    -0.303 N 
HETATM    6  C   UNL     1       5.349  32.869  62.340  1.00  0.00     0.236 C 
HETATM    7  O   UNL     1       4.828  31.751  62.373  1.00  0.00    -0.272 OA
HETATM    8  H   UNL     1       6.857  34.073  61.611  1.00  0.00     0.171 HD
BRANCH   6   9
HETATM    9  C   UNL     1       4.722  34.081  63.042  1.00  0.00     0.144 C 
BRANCH   9  10
HETATM   10  C   UNL     1       4.867  35.422  62.323  1.00  0.00    -0.041 A 
HETATM   11  C   UNL     1       4.152  35.615  61.124  1.00  0.00     0.008 A 
HETATM   12  C   UNL     1       4.228  36.817  60.419  1.00  0.00     0.001 A 
HETATM   13  C   UNL     1       5.026  37.850  60.898  1.00  0.00     0.000 A 
HETATM   14  C   UNL     1       5.752  37.677  62.073  1.00  0.00     0.001 A 
HETATM   15  C   UNL     1       5.679  36.472  62.780  1.00  0.00     0.008 A 
ENDBRANCH   9  10
BRANCH   9  16
HETATM   16  C   UNL     1       5.117  34.089  64.522  1.00  0.00    -0.041 A 
HETATM   17  C   UNL     1       6.442  33.772  64.871  1.00  0.00     0.008 A 
HETATM   18  C   UNL     1       6.861  33.825  66.200  1.00  0.00     0.001 A 
HETATM   19  C   UNL     1       5.967  34.200  67.198  1.00  0.00     0.000 A 
HETATM   20  C   UNL     1       4.653  34.521  66.870  1.00  0.00     0.001 A 
HETATM   21  C   UNL     1       4.227  34.470  65.541  1.00  0.00     0.008 A 
ENDBRANCH   9  16
ENDBRANCH   6   9
ENDBRANCH   3   5
ENDBRANCH   1   3
BRANCH   1  22
HETATM   22  C   UNL     1       7.324  31.011  58.956  1.00  0.00     0.034 A 
HETATM   23  C   UNL     1       6.206  30.825  58.150  1.00  0.00     0.031 A 
HETATM   24  C   UNL     1       6.124  29.723  57.277  1.00  0.00     0.026 A 
HETATM   25  C   UNL     1       7.162  28.791  57.174  1.00  0.00     0.010 A 
HETATM   26  C   UNL     1       8.274  28.983  58.000  1.00  0.00     0.026 A 
HETATM   27  C   UNL     1       8.352  30.063  58.883  1.00  0.00     0.031 A 
BRANCH  25  28
HETATM   28  N   UNL     1       7.146  27.687  56.315  1.00  0.00    -0.280 NA
HETATM   29  C   UNL     1       7.728  26.470  56.924  1.00  0.00     0.115 C 
HETATM   30  C   UNL     1       7.330  25.228  56.106  1.00  0.00     0.141 C 
HETATM   31  N   UNL     1       7.575  25.371  54.662  1.00  0.00    -0.345 N 
HETATM   32  C   UNL     1       7.809  24.304  53.786  1.00  0.00     0.260 C 
HETATM   33  C   UNL     1       7.177  26.661  54.077  1.00  0.00     0.141 C 
HETATM   34  O   UNL     1       7.975  24.505  52.583  1.00  0.00    -0.267 OA
HETATM   35  C   UNL     1       7.600  27.874  54.924  1.00  0.00     0.115 C 
BRANCH  32  36
HETATM   36  C   UNL     1       7.839  22.960  54.342  1.00  0.00     0.072 A 
HETATM   37  S   UNL     1       8.122  21.635  53.296  1.00  0.00    -0.097 SA
HETATM   38  C   UNL     1       7.992  20.511  54.579  1.00  0.00     0.050 A 
HETATM   39  C   UNL     1       7.712  21.125  55.779  1.00  0.00     0.009 A 
HETATM   40  C   UNL     1       7.608  22.540  55.641  1.00  0.00     0.025 A 
ENDBRANCH  32  36
ENDBRANCH  25  28
ENDBRANCH   1  22
TORSDOF 8
ENDMDL
MODEL 9
REMARK VINA RESULT:      -9.1      2.408     11.899
REMARK  8 active torsions:
REMARK  status: ('A' for Active; 'I' for Inactive)
REMARK    1  A    between atoms: C_4  and  C_5 
REMARK    2  A    between atoms: C_5  and  C_6 
REMARK    3  A    between atoms: C_5  and  C_31 
REMARK       I    between atoms: C_6  and  N_7 
REMARK    4  A    between atoms: N_7  and  C_8 
REMARK    5  A    between atoms: C_8  and  N_9 
REMARK    6  A    between atoms: N_9  and  C_10 
REMARK    7  A    between atoms: C_13  and  N_14 
REMARK       I    between atoms: N_17  and  C_18 
REMARK    8  A    between atoms: C_18  and  C_19 
ROOT
HETATM    1  N   UNL     1       7.606  31.769  59.298  1.00  0.00    -0.333 N 
HETATM    2  H   UNL     1       7.037  32.505  58.877  1.00  0.00     0.168 HD
ENDROOT
BRANCH   1   3
HETATM    3  C   UNL     1       8.111  32.130  60.524  1.00  0.00     0.178 C 
HETATM    4  S   UNL     1       9.391  31.501  61.390  1.00  0.00    -0.040 SA
BRANCH   3   5
HETATM    5  N   UNL     1       7.400  33.142  61.157  1.00  0.00    -0.303 N 
HETATM    6  C   UNL     1       6.552  33.064  62.259  1.00  0.00     0.236 C 
HETATM    7  O   UNL     1       6.096  31.991  62.665  1.00  0.00    -0.272 OA
HETATM    8  H   UNL     1       7.649  34.067  60.829  1.00  0.00     0.171 HD
BRANCH   6   9
HETATM    9  C   UNL     1       6.228  34.398  62.945  1.00  0.00     0.144 C 
BRANCH   9  10
HETATM   10  C   UNL     1       5.830  34.317  64.418  1.00  0.00    -0.041 A 
HETATM   11  C   UNL     1       6.844  34.082  65.369  1.00  0.00     0.008 A 
HETATM   12  C   UNL     1       6.555  34.005  66.732  1.00  0.00     0.001 A 
HETATM   13  C   UNL     1       5.245  34.157  67.172  1.00  0.00     0.000 A 
HETATM   14  C   UNL     1       4.226  34.376  66.249  1.00  0.00     0.001 A 
HETATM   15  C   UNL     1       4.512  34.450  64.882  1.00  0.00     0.008 A 
ENDBRANCH   9  10
BRANCH   9  16
HETATM   16  C   UNL     1       5.290  35.226  62.061  1.00  0.00    -0.041 A 
HETATM   17  C   UNL     1       5.497  36.614  61.968  1.00  0.00     0.008 A 
HETATM   18  C   UNL     1       4.706  37.398  61.129  1.00  0.00     0.001 A 
HETATM   19  C   UNL     1       3.702  36.808  60.367  1.00  0.00     0.000 A 
HETATM   20  C   UNL     1       3.487  35.435  60.443  1.00  0.00     0.001 A 
HETATM   21  C   UNL     1       4.276  34.645  61.281  1.00  0.00     0.008 A 
ENDBRANCH   9  16
ENDBRANCH   6   9
ENDBRANCH   3   5
ENDBRANCH   1   3
BRANCH   1  22
HETATM   22  C   UNL     1       7.644  30.585  58.533  1.00  0.00     0.034 A 
HETATM   23  C   UNL     1       8.777  29.849  58.205  1.00  0.00     0.031 A 
HETATM   24  C   UNL     1       8.673  28.664  57.453  1.00  0.00     0.026 A 
HETATM   25  C   UNL     1       7.435  28.175  57.023  1.00  0.00     0.010 A 
HETATM   26  C   UNL     1       6.304  28.933  57.347  1.00  0.00     0.026 A 
HETATM   27  C   UNL     1       6.404  30.120  58.077  1.00  0.00     0.031 A 
BRANCH  25  28
HETATM   28  N   UNL     1       7.265  26.998  56.287  1.00  0.00    -0.280 NA
HETATM   29  C   UNL     1       8.170  25.909  56.718  1.00  0.00     0.115 C 
HETATM   30  C   UNL     1       7.675  24.560  56.163  1.00  0.00     0.141 C 
HETATM   31  N   UNL     1       7.388  24.588  54.720  1.00  0.00    -0.345 N 
HETATM   32  C   UNL     1       7.439  23.470  53.878  1.00  0.00     0.260 C 
HETATM   33  C   UNL     1       6.653  25.769  54.243  1.00  0.00     0.141 C 
HETATM   34  O   UNL     1       7.154  23.570  52.685  1.00  0.00    -0.267 OA
HETATM   35  C   UNL     1       7.185  27.094  54.817  1.00  0.00     0.115 C 
BRANCH  32  36
HETATM   36  C   UNL     1       7.828  22.196  54.462  1.00  0.00     0.072 A 
HETATM   37  S   UNL     1       8.646  21.051  53.485  1.00  0.00    -0.097 SA
HETATM   38  C   UNL     1       8.725  19.919  54.765  1.00  0.00     0.050 A 
HETATM   39  C   UNL     1       8.119  20.388  55.909  1.00  0.00     0.009 A 
HETATM   40  C   UNL     1       7.587  21.698  55.730  1.00  0.00     0.025 A 
ENDBRANCH  32  36
ENDBRANCH  25  28
ENDBRANCH   1  22
TORSDOF 8
ENDMDL
MODEL 10
REMARK VINA RESULT:      -9.0      3.824      6.791
REMARK  8 active torsions:
REMARK  status: ('A' for Active; 'I' for Inactive)
REMARK    1  A    between atoms: C_4  and  C_5 
REMARK    2  A    between atoms: C_5  and  C_6 
REMARK    3  A    between atoms: C_5  and  C_31 
REMARK       I    between atoms: C_6  and  N_7 
REMARK    4  A    between atoms: N_7  and  C_8 
REMARK    5  A    between atoms: C_8  and  N_9 
REMARK    6  A    between atoms: N_9  and  C_10 
REMARK    7  A    between atoms: C_13  and  N_14 
REMARK       I    between atoms: N_17  and  C_18 
REMARK    8  A    between atoms: C_18  and  C_19 
ROOT
HETATM    1  N   UNL     1       7.437  31.188  58.581  1.00  0.00    -0.333 N 
HETATM    2  H   UNL     1       6.685  31.095  57.896  1.00  0.00     0.168 HD
ENDROOT
BRANCH   1   3
HETATM    3  C   UNL     1       8.644  30.740  58.101  1.00  0.00     0.178 C 
HETATM    4  S   UNL     1      10.191  31.290  58.396  1.00  0.00    -0.040 SA
BRANCH   3   5
HETATM    5  N   UNL     1       8.542  29.701  57.184  1.00  0.00    -0.303 N 
HETATM    6  C   UNL     1       7.913  28.466  57.322  1.00  0.00     0.236 C 
HETATM    7  O   UNL     1       7.581  28.014  58.421  1.00  0.00    -0.272 OA
HETATM    8  H   UNL     1       8.871  29.954  56.261  1.00  0.00     0.171 HD
BRANCH   6   9
HETATM    9  C   UNL     1       7.648  27.707  56.014  1.00  0.00     0.144 C 
BRANCH   9  10
HETATM   10  C   UNL     1       6.404  28.128  55.233  1.00  0.00    -0.041 A 
HETATM   11  C   UNL     1       5.224  28.399  55.957  1.00  0.00     0.008 A 
HETATM   12  C   UNL     1       4.054  28.798  55.311  1.00  0.00     0.001 A 
HETATM   13  C   UNL     1       4.037  28.931  53.927  1.00  0.00     0.000 A 
HETATM   14  C   UNL     1       5.187  28.656  53.191  1.00  0.00     0.001 A 
HETATM   15  C   UNL     1       6.361  28.253  53.836  1.00  0.00     0.008 A 
ENDBRANCH   9  10
BRANCH   9  16
HETATM   16  C   UNL     1       7.792  26.200  56.248  1.00  0.00    -0.041 A 
HETATM   17  C   UNL     1       8.766  25.745  57.155  1.00  0.00     0.008 A 
HETATM   18  C   UNL     1       8.892  24.387  57.444  1.00  0.00     0.001 A 
HETATM   19  C   UNL     1       8.045  23.464  56.838  1.00  0.00     0.000 A 
HETATM   20  C   UNL     1       7.072  23.897  55.941  1.00  0.00     0.001 A 
HETATM   21  C   UNL     1       6.941  25.256  55.647  1.00  0.00     0.008 A 
ENDBRANCH   9  16
ENDBRANCH   6   9
ENDBRANCH   3   5
ENDBRANCH   1   3
BRANCH   1  22
HETATM   22  C   UNL     1       7.028  31.808  59.779  1.00  0.00     0.034 A 
HETATM   23  C   UNL     1       5.997  32.730  59.922  1.00  0.00     0.031 A 
HETATM   24  C   UNL     1       5.672  33.256  61.186  1.00  0.00     0.026 A 
HETATM   25  C   UNL     1       6.355  32.862  62.342  1.00  0.00     0.010 A 
HETATM   26  C   UNL     1       7.399  31.945  62.182  1.00  0.00     0.026 A 
HETATM   27  C   UNL     1       7.738  31.435  60.926  1.00  0.00     0.031 A 
BRANCH  25  28
HETATM   28  N   UNL     1       6.068  33.336  63.626  1.00  0.00    -0.280 NA
HETATM   29  C   UNL     1       7.085  32.945  64.628  1.00  0.00     0.115 C 
HETATM   30  C   UNL     1       6.934  33.805  65.897  1.00  0.00     0.141 C 
HETATM   31  N   UNL     1       5.555  33.861  66.408  1.00  0.00    -0.345 N 
HETATM   32  C   UNL     1       5.212  34.093  67.746  1.00  0.00     0.260 C 
HETATM   33  C   UNL     1       4.510  34.055  65.392  1.00  0.00     0.141 C 
HETATM   34  O   UNL     1       4.032  34.156  68.089  1.00  0.00    -0.267 OA
HETATM   35  C   UNL     1       4.697  33.172  64.145  1.00  0.00     0.115 C 
BRANCH  32  36
HETATM   36  C   UNL     1       6.292  34.267  68.705  1.00  0.00     0.072 A 
HETATM   37  S   UNL     1       6.370  33.226  70.063  1.00  0.00    -0.097 SA
HETATM   38  C   UNL     1       7.766  34.011  70.665  1.00  0.00     0.050 A 
HETATM   39  C   UNL     1       8.154  35.062  69.866  1.00  0.00     0.009 A 
HETATM   40  C   UNL     1       7.293  35.221  68.740  1.00  0.00     0.025 A 
ENDBRANCH  32  36
ENDBRANCH  25  28
ENDBRANCH   1  22
TORSDOF 8
ENDMDL
