MODEL 1
REMARK VINA RESULT:     -10.2      0.000      0.000
REMARK  6 active torsions:
REMARK  status: ('A' for Active; 'I' for Inactive)
REMARK    1  A    between atoms: N_6  and  C_8 
REMARK    2  A    between atoms: C_8  and  C_9 
REMARK    3  A    between atoms: C_9  and  C_10 
REMARK    4  A    between atoms: C_10  and  N_11 
REMARK       I    between atoms: N_11  and  C_12 
REMARK       I    between atoms: C_12  and  N_13 
REMARK    5  A    between atoms: N_13  and  N_14 
REMARK       I    between atoms: N_14  and  C_15 
REMARK    6  A    between atoms: C_15  and  C_16 
ROOT
HETATM    1  N   UNL     1       8.428  29.034  57.771  1.00  0.00    -0.342 N 
HETATM    2  C   UNL     1       7.712  29.910  58.544  1.00  0.00     0.334 C 
HETATM    3  N   UNL     1       8.196  30.006  59.823  1.00  0.00    -0.249 N 
HETATM    4  O   UNL     1       6.686  30.457  58.141  1.00  0.00    -0.246 OA
HETATM    5  H   UNL     1       9.309  28.692  58.139  1.00  0.00     0.164 HD
HETATM    6  H   UNL     1       9.185  29.836  60.012  1.00  0.00     0.192 HD
ENDROOT
BRANCH   1   7
HETATM    7  C   UNL     1       8.144  28.822  56.370  1.00  0.00     0.126 C 
BRANCH   7   8
HETATM    8  C   UNL     1       7.131  27.705  56.113  1.00  0.00     0.047 C 
BRANCH   8   9
HETATM    9  C   UNL     1       7.416  26.345  56.755  1.00  0.00     0.237 C 
BRANCH   9  10
HETATM   10  N   UNL     1       7.786  25.269  55.772  1.00  0.00    -0.067 N 
HETATM   11  C   UNL     1       7.558  23.866  56.267  1.00  0.00     0.274 C 
HETATM   12  C   UNL     1       7.727  22.798  55.222  1.00  0.00    -0.026 A 
HETATM   13  C   UNL     1       7.789  23.114  53.852  1.00  0.00    -0.049 A 
HETATM   14  C   UNL     1       7.774  21.452  55.619  1.00  0.00     0.009 A 
HETATM   15  C   UNL     1       7.937  22.087  52.910  1.00  0.00     0.007 A 
HETATM   16  C   UNL     1       7.751  24.548  53.393  1.00  0.00     0.067 C 
HETATM   17  C   UNL     1       7.990  20.755  53.320  1.00  0.00     0.001 A 
HETATM   18  C   UNL     1       7.905  20.438  54.672  1.00  0.00     0.001 A 
HETATM   19  C   UNL     1       7.118  25.474  54.430  1.00  0.00     0.240 C 
HETATM   20  H   UNL     1       8.800  25.394  55.569  1.00  0.00     0.280 HD
ENDBRANCH   9  10
ENDBRANCH   8   9
ENDBRANCH   7   8
ENDBRANCH   1   7
BRANCH   3  21
HETATM   21  N   UNL     1       7.605  30.924  60.702  1.00  0.00    -0.261 N 
HETATM   22  C   UNL     1       8.142  31.060  61.972  1.00  0.00     0.277 C 
HETATM   23  O   UNL     1       9.149  30.420  62.284  1.00  0.00    -0.265 OA
HETATM   24  H   UNL     1       6.808  31.468  60.384  1.00  0.00     0.190 HD
BRANCH  22  25
HETATM   25  C   UNL     1       7.455  31.970  62.873  1.00  0.00     0.075 A 
HETATM   26  S   UNL     1       5.742  32.085  62.931  1.00  0.00    -0.077 SA
HETATM   27  C   UNL     1       5.803  33.243  64.165  1.00  0.00     0.052 A 
HETATM   28 BR   UNL     1       4.272  33.998  64.933  1.00  0.00    -0.043 Br
HETATM   29  C   UNL     1       7.080  33.568  64.542  1.00  0.00     0.028 A 
HETATM   30  C   UNL     1       8.041  32.827  63.790  1.00  0.00     0.026 A 
ENDBRANCH  22  25
ENDBRANCH   3  21
TORSDOF 6
ENDMDL
MODEL 2
REMARK VINA RESULT:     -10.1      0.503      1.403
REMARK  6 active torsions:
REMARK  status: ('A' for Active; 'I' for Inactive)
REMARK    1  A    between atoms: N_6  and  C_8 
REMARK    2  A    between atoms: C_8  and  C_9 
REMARK    3  A    between atoms: C_9  and  C_10 
REMARK    4  A    between atoms: C_10  and  N_11 
REMARK       I    between atoms: N_11  and  C_12 
REMARK       I    between atoms: C_12  and  N_13 
REMARK    5  A    between atoms: N_13  and  N_14 
REMARK       I    between atoms: N_14  and  C_15 
REMARK    6  A    between atoms: C_15  and  C_16 
ROOT
HETATM    1  N   UNL     1       8.382  29.121  57.784  1.00  0.00    -0.342 N 
HETATM    2  C   UNL     1       7.688  30.015  58.555  1.00  0.00     0.334 C 
HETATM    3  N   UNL     1       8.114  30.036  59.857  1.00  0.00    -0.249 N 
HETATM    4  O   UNL     1       6.719  30.642  58.125  1.00  0.00    -0.246 OA
HETATM    5  H   UNL     1       9.221  28.710  58.179  1.00  0.00     0.164 HD
HETATM    6  H   UNL     1       9.079  29.795  60.086  1.00  0.00     0.192 HD
ENDROOT
BRANCH   1   7
HETATM    7  C   UNL     1       8.154  28.976  56.364  1.00  0.00     0.126 C 
BRANCH   7   8
HETATM    8  C   UNL     1       7.095  27.928  56.018  1.00  0.00     0.047 C 
BRANCH   8   9
HETATM    9  C   UNL     1       7.288  27.145  54.717  1.00  0.00     0.237 C 
BRANCH   9  10
HETATM   10  N   UNL     1       7.161  25.655  54.874  1.00  0.00    -0.067 N 
HETATM   11  C   UNL     1       7.702  24.857  53.718  1.00  0.00     0.274 C 
HETATM   12  C   UNL     1       7.767  23.373  53.958  1.00  0.00    -0.026 A 
HETATM   13  C   UNL     1       7.625  22.830  55.248  1.00  0.00    -0.049 A 
HETATM   14  C   UNL     1       8.026  22.516  52.877  1.00  0.00     0.009 A 
HETATM   15  C   UNL     1       7.702  21.443  55.428  1.00  0.00     0.007 A 
HETATM   16  C   UNL     1       7.337  23.721  56.428  1.00  0.00     0.067 C 
HETATM   17  C   UNL     1       7.952  20.603  54.344  1.00  0.00     0.001 A 
HETATM   18  C   UNL     1       8.118  21.138  53.071  1.00  0.00     0.001 A 
HETATM   19  C   UNL     1       7.755  25.169  56.178  1.00  0.00     0.240 C 
HETATM   20  H   UNL     1       6.143  25.457  54.974  1.00  0.00     0.280 HD
ENDBRANCH   9  10
ENDBRANCH   8   9
ENDBRANCH   7   8
ENDBRANCH   1   7
BRANCH   3  21
HETATM   21  N   UNL     1       7.540  30.960  60.742  1.00  0.00    -0.261 N 
HETATM   22  C   UNL     1       8.092  31.092  62.005  1.00  0.00     0.277 C 
HETATM   23  O   UNL     1       9.096  30.443  62.308  1.00  0.00    -0.265 OA
HETATM   24  H   UNL     1       6.745  31.511  60.431  1.00  0.00     0.190 HD
BRANCH  22  25
HETATM   25  C   UNL     1       7.423  32.009  62.912  1.00  0.00     0.075 A 
HETATM   26  S   UNL     1       5.715  32.192  62.939  1.00  0.00    -0.077 SA
HETATM   27  C   UNL     1       5.796  33.320  64.199  1.00  0.00     0.052 A 
HETATM   28 BR   UNL     1       4.280  34.119  64.953  1.00  0.00    -0.043 Br
HETATM   29  C   UNL     1       7.077  33.585  64.610  1.00  0.00     0.028 A 
HETATM   30  C   UNL     1       8.022  32.823  63.860  1.00  0.00     0.026 A 
ENDBRANCH  22  25
ENDBRANCH   3  21
TORSDOF 6
ENDMDL
MODEL 3
REMARK VINA RESULT:      -9.8      1.858      2.722
REMARK  6 active torsions:
REMARK  status: ('A' for Active; 'I' for Inactive)
REMARK    1  A    between atoms: N_6  and  C_8 
REMARK    2  A    between atoms: C_8  and  C_9 
REMARK    3  A    between atoms: C_9  and  C_10 
REMARK    4  A    between atoms: C_10  and  N_11 
REMARK       I    between atoms: N_11  and  C_12 
REMARK       I    between atoms: C_12  and  N_13 
REMARK    5  A    between atoms: N_13  and  N_14 
REMARK       I    between atoms: N_14  and  C_15 
REMARK    6  A    between atoms: C_15  and  C_16 
ROOT
HETATM    1  N   UNL     1       7.145  28.859  55.184  1.00  0.00    -0.342 N 
HETATM    2  C   UNL     1       7.669  29.231  56.393  1.00  0.00     0.334 C 
HETATM    3  N   UNL     1       6.737  29.793  57.226  1.00  0.00    -0.249 N 
HETATM    4  O   UNL     1       8.873  29.156  56.640  1.00  0.00    -0.246 OA
HETATM    5  H   UNL     1       6.135  28.866  55.086  1.00  0.00     0.164 HD
HETATM    6  H   UNL     1       5.753  29.532  57.147  1.00  0.00     0.192 HD
ENDROOT
BRANCH   1   7
HETATM    7  C   UNL     1       7.924  28.183  54.172  1.00  0.00     0.126 C 
BRANCH   7   8
HETATM    8  C   UNL     1       7.197  27.001  53.528  1.00  0.00     0.047 C 
BRANCH   8   9
HETATM    9  C   UNL     1       6.175  26.258  54.392  1.00  0.00     0.237 C 
BRANCH   9  10
HETATM   10  N   UNL     1       6.575  24.850  54.738  1.00  0.00    -0.067 N 
HETATM   11  C   UNL     1       7.001  24.015  53.560  1.00  0.00     0.274 C 
HETATM   12  C   UNL     1       7.596  22.681  53.921  1.00  0.00    -0.026 A 
HETATM   13  C   UNL     1       7.993  22.386  55.239  1.00  0.00    -0.049 A 
HETATM   14  C   UNL     1       7.806  21.730  52.911  1.00  0.00     0.009 A 
HETATM   15  C   UNL     1       8.552  21.135  55.529  1.00  0.00     0.007 A 
HETATM   16  C   UNL     1       7.773  23.382  56.347  1.00  0.00     0.067 C 
HETATM   17  C   UNL     1       8.748  20.196  54.517  1.00  0.00     0.001 A 
HETATM   18  C   UNL     1       8.379  20.495  53.209  1.00  0.00     0.001 A 
HETATM   19  C   UNL     1       7.626  24.810  55.826  1.00  0.00     0.240 C 
HETATM   20  H   UNL     1       5.741  24.409  55.180  1.00  0.00     0.280 HD
ENDBRANCH   9  10
ENDBRANCH   8   9
ENDBRANCH   7   8
ENDBRANCH   1   7
BRANCH   3  21
HETATM   21  N   UNL     1       7.121  30.151  58.527  1.00  0.00    -0.261 N 
HETATM   22  C   UNL     1       6.962  31.469  58.921  1.00  0.00     0.277 C 
HETATM   23  O   UNL     1       6.445  32.282  58.151  1.00  0.00    -0.265 OA
HETATM   24  H   UNL     1       7.494  29.436  59.145  1.00  0.00     0.190 HD
BRANCH  22  25
HETATM   25  C   UNL     1       7.438  31.811  60.250  1.00  0.00     0.075 A 
HETATM   26  S   UNL     1       6.431  32.561  61.423  1.00  0.00    -0.077 SA
HETATM   27  C   UNL     1       7.669  32.555  62.577  1.00  0.00     0.052 A 
HETATM   28 BR   UNL     1       7.451  33.223  64.312  1.00  0.00    -0.043 Br
HETATM   29  C   UNL     1       8.841  32.013  62.115  1.00  0.00     0.028 A 
HETATM   30  C   UNL     1       8.705  31.580  60.761  1.00  0.00     0.026 A 
ENDBRANCH  22  25
ENDBRANCH   3  21
TORSDOF 6
ENDMDL
MODEL 4
REMARK VINA RESULT:      -9.6      1.513      2.222
REMARK  6 active torsions:
REMARK  status: ('A' for Active; 'I' for Inactive)
REMARK    1  A    between atoms: N_6  and  C_8 
REMARK    2  A    between atoms: C_8  and  C_9 
REMARK    3  A    between atoms: C_9  and  C_10 
REMARK    4  A    between atoms: C_10  and  N_11 
REMARK       I    between atoms: N_11  and  C_12 
REMARK       I    between atoms: C_12  and  N_13 
REMARK    5  A    between atoms: N_13  and  N_14 
REMARK       I    between atoms: N_14  and  C_15 
REMARK    6  A    between atoms: C_15  and  C_16 
ROOT
HETATM    1  N   UNL     1       7.870  30.112  58.140  1.00  0.00    -0.342 N 
HETATM    2  C   UNL     1       8.011  30.435  59.463  1.00  0.00     0.334 C 
HETATM    3  N   UNL     1       7.031  31.281  59.911  1.00  0.00    -0.249 N 
HETATM    4  O   UNL     1       8.983  30.076  60.128  1.00  0.00    -0.246 OA
HETATM    5  H   UNL     1       7.001  30.367  57.683  1.00  0.00     0.164 HD
HETATM    6  H   UNL     1       6.107  31.273  59.476  1.00  0.00     0.192 HD
ENDROOT
BRANCH   1   7
HETATM    7  C   UNL     1       8.746  29.180  57.467  1.00  0.00     0.126 C 
BRANCH   7   8
HETATM    8  C   UNL     1       8.003  28.108  56.669  1.00  0.00     0.047 C 
BRANCH   8   9
HETATM    9  C   UNL     1       7.285  27.018  57.468  1.00  0.00     0.237 C 
BRANCH   9  10
HETATM   10  N   UNL     1       7.412  25.640  56.877  1.00  0.00    -0.067 N 
HETATM   11  C   UNL     1       7.383  25.603  55.373  1.00  0.00     0.274 C 
HETATM   12  C   UNL     1       7.716  24.263  54.774  1.00  0.00    -0.026 A 
HETATM   13  C   UNL     1       8.297  23.238  55.544  1.00  0.00    -0.049 A 
HETATM   14  C   UNL     1       7.489  24.049  53.405  1.00  0.00     0.009 A 
HETATM   15  C   UNL     1       8.601  22.009  54.944  1.00  0.00     0.007 A 
HETATM   16  C   UNL     1       8.545  23.432  57.017  1.00  0.00     0.067 C 
HETATM   17  C   UNL     1       8.363  21.808  53.585  1.00  0.00     0.001 A 
HETATM   18  C   UNL     1       7.811  22.828  52.816  1.00  0.00     0.001 A 
HETATM   19  C   UNL     1       8.626  24.908  57.404  1.00  0.00     0.240 C 
HETATM   20  H   UNL     1       6.608  25.090  57.244  1.00  0.00     0.280 HD
ENDBRANCH   9  10
ENDBRANCH   8   9
ENDBRANCH   7   8
ENDBRANCH   1   7
BRANCH   3  21
HETATM   21  N   UNL     1       7.010  31.634  61.268  1.00  0.00    -0.261 N 
HETATM   22  C   UNL     1       6.225  32.707  61.658  1.00  0.00     0.277 C 
HETATM   23  O   UNL     1       5.528  33.291  60.826  1.00  0.00    -0.265 OA
HETATM   24  H   UNL     1       7.560  31.091  61.927  1.00  0.00     0.190 HD
BRANCH  22  25
HETATM   25  C   UNL     1       6.289  33.081  63.060  1.00  0.00     0.075 A 
HETATM   26  S   UNL     1       4.893  33.525  63.957  1.00  0.00    -0.077 SA
HETATM   27  C   UNL     1       5.798  33.744  65.371  1.00  0.00     0.052 A 
HETATM   28 BR   UNL     1       5.036  34.259  67.002  1.00  0.00    -0.043 Br
HETATM   29  C   UNL     1       7.138  33.505  65.201  1.00  0.00     0.028 A 
HETATM   30  C   UNL     1       7.423  33.120  63.856  1.00  0.00     0.026 A 
ENDBRANCH  22  25
ENDBRANCH   3  21
TORSDOF 6
ENDMDL
MODEL 5
REMARK VINA RESULT:      -9.4      7.298     10.037
REMARK  6 active torsions:
REMARK  status: ('A' for Active; 'I' for Inactive)
REMARK    1  A    between atoms: N_6  and  C_8 
REMARK    2  A    between atoms: C_8  and  C_9 
REMARK    3  A    between atoms: C_9  and  C_10 
REMARK    4  A    between atoms: C_10  and  N_11 
REMARK       I    between atoms: N_11  and  C_12 
REMARK       I    between atoms: C_12  and  N_13 
REMARK    5  A    between atoms: N_13  and  N_14 
REMARK       I    between atoms: N_14  and  C_15 
REMARK    6  A    between atoms: C_15  and  C_16 
ROOT
HETATM    1  N   UNL     1       6.322  28.632  53.499  1.00  0.00    -0.342 N 
HETATM    2  C   UNL     1       5.258  28.489  52.649  1.00  0.00     0.334 C 
HETATM    3  N   UNL     1       5.630  28.480  51.330  1.00  0.00    -0.249 N 
HETATM    4  O   UNL     1       4.093  28.479  53.047  1.00  0.00    -0.246 OA
HETATM    5  H   UNL     1       7.253  28.542  53.109  1.00  0.00     0.164 HD
HETATM    6  H   UNL     1       6.558  28.149  51.060  1.00  0.00     0.192 HD
ENDROOT
BRANCH   1   7
HETATM    7  C   UNL     1       6.179  28.600  54.938  1.00  0.00     0.126 C 
BRANCH   7   8
HETATM    8  C   UNL     1       7.143  27.632  55.627  1.00  0.00     0.047 C 
BRANCH   8   9
HETATM    9  C   UNL     1       6.599  26.248  55.988  1.00  0.00     0.237 C 
BRANCH   9  10
HETATM   10  N   UNL     1       7.202  25.125  55.188  1.00  0.00    -0.067 N 
HETATM   11  C   UNL     1       7.211  23.794  55.890  1.00  0.00     0.274 C 
HETATM   12  C   UNL     1       7.619  22.633  55.024  1.00  0.00    -0.026 A 
HETATM   13  C   UNL     1       7.683  22.748  53.623  1.00  0.00    -0.049 A 
HETATM   14  C   UNL     1       7.891  21.394  55.624  1.00  0.00     0.009 A 
HETATM   15  C   UNL     1       8.058  21.639  52.853  1.00  0.00     0.007 A 
HETATM   16  C   UNL     1       7.406  24.066  52.948  1.00  0.00     0.067 C 
HETATM   17  C   UNL     1       8.334  20.416  53.464  1.00  0.00     0.001 A 
HETATM   18  C   UNL     1       8.247  20.292  54.847  1.00  0.00     0.001 A 
HETATM   19  C   UNL     1       6.569  25.001  53.820  1.00  0.00     0.240 C 
HETATM   20  H   UNL     1       8.185  25.406  54.985  1.00  0.00     0.280 HD
ENDBRANCH   9  10
ENDBRANCH   8   9
ENDBRANCH   7   8
ENDBRANCH   1   7
BRANCH   3  21
HETATM   21  N   UNL     1       4.649  28.265  50.352  1.00  0.00    -0.261 N 
HETATM   22  C   UNL     1       4.518  26.992  49.820  1.00  0.00     0.277 C 
HETATM   23  O   UNL     1       5.220  26.073  50.247  1.00  0.00    -0.265 OA
HETATM   24  H   UNL     1       4.059  29.040  50.067  1.00  0.00     0.190 HD
BRANCH  22  25
HETATM   25  C   UNL     1       3.538  26.831  48.759  1.00  0.00     0.075 A 
HETATM   26  S   UNL     1       2.220  27.913  48.554  1.00  0.00    -0.077 SA
HETATM   27  C   UNL     1       1.668  27.075  47.191  1.00  0.00     0.052 A 
HETATM   28 BR   UNL     1       0.156  27.595  46.215  1.00  0.00    -0.043 Br
HETATM   29  C   UNL     1       2.436  25.985  46.875  1.00  0.00     0.028 A 
HETATM   30  C   UNL     1       3.524  25.843  47.788  1.00  0.00     0.026 A 
ENDBRANCH  22  25
ENDBRANCH   3  21
TORSDOF 6
ENDMDL
MODEL 6
REMARK VINA RESULT:      -9.1      4.648     11.828
REMARK  6 active torsions:
REMARK  status: ('A' for Active; 'I' for Inactive)
REMARK    1  A    between atoms: N_6  and  C_8 
REMARK    2  A    between atoms: C_8  and  C_9 
REMARK    3  A    between atoms: C_9  and  C_10 
REMARK    4  A    between atoms: C_10  and  N_11 
REMARK       I    between atoms: N_11  and  C_12 
REMARK       I    between atoms: C_12  and  N_13 
REMARK    5  A    between atoms: N_13  and  N_14 
REMARK       I    between atoms: N_14  and  C_15 
REMARK    6  A    between atoms: C_15  and  C_16 
ROOT
HETATM    1  N   UNL     1       7.311  29.209  58.236  1.00  0.00    -0.342 N 
HETATM    2  C   UNL     1       7.851  28.326  57.339  1.00  0.00     0.334 C 
HETATM    3  N   UNL     1       7.290  27.078  57.419  1.00  0.00    -0.249 N 
HETATM    4  O   UNL     1       8.810  28.617  56.624  1.00  0.00    -0.246 OA
HETATM    5  H   UNL     1       6.469  28.927  58.725  1.00  0.00     0.164 HD
HETATM    6  H   UNL     1       6.326  26.967  57.738  1.00  0.00     0.192 HD
ENDROOT
BRANCH   1   7
HETATM    7  C   UNL     1       7.698  30.601  58.288  1.00  0.00     0.126 C 
BRANCH   7   8
HETATM    8  C   UNL     1       7.748  31.169  59.707  1.00  0.00     0.047 C 
BRANCH   8   9
HETATM    9  C   UNL     1       6.513  31.930  60.196  1.00  0.00     0.237 C 
BRANCH   9  10
HETATM   10  N   UNL     1       6.696  32.603  61.529  1.00  0.00    -0.067 N 
HETATM   11  C   UNL     1       5.426  32.784  62.316  1.00  0.00     0.274 C 
HETATM   12  C   UNL     1       5.627  33.263  63.728  1.00  0.00    -0.026 A 
HETATM   13  C   UNL     1       6.896  33.243  64.336  1.00  0.00    -0.049 A 
HETATM   14  C   UNL     1       4.516  33.692  64.470  1.00  0.00     0.009 A 
HETATM   15  C   UNL     1       7.038  33.689  65.656  1.00  0.00     0.007 A 
HETATM   16  C   UNL     1       8.110  32.798  63.564  1.00  0.00     0.067 C 
HETATM   17  C   UNL     1       5.926  34.120  66.380  1.00  0.00     0.001 A 
HETATM   18  C   UNL     1       4.666  34.117  65.789  1.00  0.00     0.001 A 
HETATM   19  C   UNL     1       7.749  31.916  62.370  1.00  0.00     0.240 C 
HETATM   20  H   UNL     1       7.106  33.539  61.330  1.00  0.00     0.280 HD
ENDBRANCH   9  10
ENDBRANCH   8   9
ENDBRANCH   7   8
ENDBRANCH   1   7
BRANCH   3  21
HETATM   21  N   UNL     1       7.696  26.094  56.507  1.00  0.00    -0.261 N 
HETATM   22  C   UNL     1       6.833  25.753  55.478  1.00  0.00     0.277 C 
HETATM   23  O   UNL     1       5.761  26.350  55.353  1.00  0.00    -0.265 OA
HETATM   24  H   UNL     1       8.610  25.666  56.618  1.00  0.00     0.190 HD
BRANCH  22  25
HETATM   25  C   UNL     1       7.264  24.680  54.599  1.00  0.00     0.075 A 
HETATM   26  S   UNL     1       7.386  23.051  55.129  1.00  0.00    -0.077 SA
HETATM   27  C   UNL     1       7.872  22.525  53.595  1.00  0.00     0.052 A 
HETATM   28 BR   UNL     1       8.246  20.734  53.200  1.00  0.00    -0.043 Br
HETATM   29  C   UNL     1       7.962  23.539  52.676  1.00  0.00     0.028 A 
HETATM   30  C   UNL     1       7.609  24.792  53.261  1.00  0.00     0.026 A 
ENDBRANCH  22  25
ENDBRANCH   3  21
TORSDOF 6
ENDMDL
MODEL 7
REMARK VINA RESULT:      -8.9      2.030      2.789
REMARK  6 active torsions:
REMARK  status: ('A' for Active; 'I' for Inactive)
REMARK    1  A    between atoms: N_6  and  C_8 
REMARK    2  A    between atoms: C_8  and  C_9 
REMARK    3  A    between atoms: C_9  and  C_10 
REMARK    4  A    between atoms: C_10  and  N_11 
REMARK       I    between atoms: N_11  and  C_12 
REMARK       I    between atoms: C_12  and  N_13 
REMARK    5  A    between atoms: N_13  and  N_14 
REMARK       I    between atoms: N_14  and  C_15 
REMARK    6  A    between atoms: C_15  and  C_16 
ROOT
HETATM    1  N   UNL     1       6.087  30.378  56.125  1.00  0.00    -0.342 N 
HETATM    2  C   UNL     1       5.800  30.791  57.398  1.00  0.00     0.334 C 
HETATM    3  N   UNL     1       6.883  30.722  58.235  1.00  0.00    -0.249 N 
HETATM    4  O   UNL     1       4.659  31.086  57.754  1.00  0.00    -0.246 OA
HETATM    5  H   UNL     1       7.061  30.238  55.883  1.00  0.00     0.164 HD
HETATM    6  H   UNL     1       7.829  30.816  57.860  1.00  0.00     0.192 HD
ENDROOT
BRANCH   1   7
HETATM    7  C   UNL     1       5.118  30.428  55.053  1.00  0.00     0.126 C 
BRANCH   7   8
HETATM    8  C   UNL     1       4.655  29.048  54.582  1.00  0.00     0.047 C 
BRANCH   8   9
HETATM    9  C   UNL     1       4.294  28.027  55.664  1.00  0.00     0.237 C 
BRANCH   9  10
HETATM   10  N   UNL     1       4.917  26.673  55.461  1.00  0.00    -0.067 N 
HETATM   11  C   UNL     1       5.654  26.515  54.158  1.00  0.00     0.274 C 
HETATM   12  C   UNL     1       6.450  25.244  54.040  1.00  0.00    -0.026 A 
HETATM   13  C   UNL     1       6.720  24.439  55.162  1.00  0.00    -0.049 A 
HETATM   14  C   UNL     1       6.977  24.880  52.791  1.00  0.00     0.009 A 
HETATM   15  C   UNL     1       7.474  23.268  55.009  1.00  0.00     0.007 A 
HETATM   16  C   UNL     1       6.161  24.796  56.514  1.00  0.00     0.067 C 
HETATM   17  C   UNL     1       7.985  22.915  53.761  1.00  0.00     0.001 A 
HETATM   18  C   UNL     1       7.741  23.722  52.654  1.00  0.00     0.001 A 
HETATM   19  C   UNL     1       5.802  26.277  56.623  1.00  0.00     0.240 C 
HETATM   20  H   UNL     1       4.137  25.985  55.494  1.00  0.00     0.280 HD
ENDBRANCH   9  10
ENDBRANCH   8   9
ENDBRANCH   7   8
ENDBRANCH   1   7
BRANCH   3  21
HETATM   21  N   UNL     1       6.752  31.187  59.551  1.00  0.00    -0.261 N 
HETATM   22  C   UNL     1       7.688  32.091  60.027  1.00  0.00     0.277 C 
HETATM   23  O   UNL     1       8.577  32.505  59.280  1.00  0.00    -0.265 OA
HETATM   24  H   UNL     1       5.973  30.858  60.114  1.00  0.00     0.190 HD
BRANCH  22  25
HETATM   25  C   UNL     1       7.554  32.490  61.418  1.00  0.00     0.075 A 
HETATM   26  S   UNL     1       6.227  33.424  61.982  1.00  0.00    -0.077 SA
HETATM   27  C   UNL     1       6.805  33.393  63.573  1.00  0.00     0.052 A 
HETATM   28 BR   UNL     1       5.914  34.216  64.999  1.00  0.00    -0.043 Br
HETATM   29  C   UNL     1       7.984  32.707  63.710  1.00  0.00     0.028 A 
HETATM   30  C   UNL     1       8.420  32.183  62.455  1.00  0.00     0.026 A 
ENDBRANCH  22  25
ENDBRANCH   3  21
TORSDOF 6
ENDMDL
MODEL 8
REMARK VINA RESULT:      -8.8      3.002      4.146
REMARK  6 active torsions:
REMARK  status: ('A' for Active; 'I' for Inactive)
REMARK    1  A    between atoms: N_6  and  C_8 
REMARK    2  A    between atoms: C_8  and  C_9 
REMARK    3  A    between atoms: C_9  and  C_10 
REMARK    4  A    between atoms: C_10  and  N_11 
REMARK       I    between atoms: N_11  and  C_12 
REMARK       I    between atoms: C_12  and  N_13 
REMARK    5  A    between atoms: N_13  and  N_14 
REMARK       I    between atoms: N_14  and  C_15 
REMARK    6  A    between atoms: C_15  and  C_16 
ROOT
HETATM    1  N   UNL     1       4.946  28.386  53.475  1.00  0.00    -0.342 N 
HETATM    2  C   UNL     1       5.034  28.816  54.773  1.00  0.00     0.334 C 
HETATM    3  N   UNL     1       5.848  29.910  54.916  1.00  0.00    -0.249 N 
HETATM    4  O   UNL     1       4.515  28.204  55.706  1.00  0.00    -0.246 OA
HETATM    5  H   UNL     1       5.324  28.989  52.753  1.00  0.00     0.164 HD
HETATM    6  H   UNL     1       5.966  30.567  54.143  1.00  0.00     0.192 HD
ENDROOT
BRANCH   1   7
HETATM    7  C   UNL     1       4.092  27.291  53.074  1.00  0.00     0.126 C 
BRANCH   7   8
HETATM    8  C   UNL     1       4.857  26.014  52.725  1.00  0.00     0.047 C 
BRANCH   8   9
HETATM    9  C   UNL     1       6.301  25.909  53.224  1.00  0.00     0.237 C 
BRANCH   9  10
HETATM   10  N   UNL     1       6.614  24.615  53.923  1.00  0.00    -0.067 N 
HETATM   11  C   UNL     1       7.266  23.576  53.049  1.00  0.00     0.274 C 
HETATM   12  C   UNL     1       7.768  22.364  53.786  1.00  0.00    -0.026 A 
HETATM   13  C   UNL     1       7.889  22.354  55.188  1.00  0.00    -0.049 A 
HETATM   14  C   UNL     1       8.173  21.238  53.053  1.00  0.00     0.009 A 
HETATM   15  C   UNL     1       8.370  21.208  55.833  1.00  0.00     0.007 A 
HETATM   16  C   UNL     1       7.454  23.544  56.003  1.00  0.00     0.067 C 
HETATM   17  C   UNL     1       8.762  20.093  55.093  1.00  0.00     0.001 A 
HETATM   18  C   UNL     1       8.667  20.109  53.705  1.00  0.00     0.001 A 
HETATM   19  C   UNL     1       7.423  24.832  55.183  1.00  0.00     0.240 C 
HETATM   20  H   UNL     1       5.706  24.242  54.269  1.00  0.00     0.280 HD
ENDBRANCH   9  10
ENDBRANCH   8   9
ENDBRANCH   7   8
ENDBRANCH   1   7
BRANCH   3  21
HETATM   21  N   UNL     1       5.970  30.502  56.181  1.00  0.00    -0.261 N 
HETATM   22  C   UNL     1       7.110  30.241  56.923  1.00  0.00     0.277 C 
HETATM   23  O   UNL     1       8.009  29.547  56.444  1.00  0.00    -0.265 OA
HETATM   24  H   UNL     1       5.227  31.109  56.514  1.00  0.00     0.190 HD
BRANCH  22  25
HETATM   25  C   UNL     1       7.162  30.817  58.256  1.00  0.00     0.075 A 
HETATM   26  S   UNL     1       8.379  30.397  59.392  1.00  0.00    -0.077 SA
HETATM   27  C   UNL     1       7.755  31.466  60.546  1.00  0.00     0.052 A 
HETATM   28 BR   UNL     1       8.521  31.704  62.238  1.00  0.00    -0.043 Br
HETATM   29  C   UNL     1       6.639  32.138  60.118  1.00  0.00     0.028 A 
HETATM   30  C   UNL     1       6.294  31.759  58.785  1.00  0.00     0.026 A 
ENDBRANCH  22  25
ENDBRANCH   3  21
TORSDOF 6
ENDMDL
MODEL 9
REMARK VINA RESULT:      -8.7      5.085     11.175
REMARK  6 active torsions:
REMARK  status: ('A' for Active; 'I' for Inactive)
REMARK    1  A    between atoms: N_6  and  C_8 
REMARK    2  A    between atoms: C_8  and  C_9 
REMARK    3  A    between atoms: C_9  and  C_10 
REMARK    4  A    between atoms: C_10  and  N_11 
REMARK       I    between atoms: N_11  and  C_12 
REMARK       I    between atoms: C_12  and  N_13 
REMARK    5  A    between atoms: N_13  and  N_14 
REMARK       I    between atoms: N_14  and  C_15 
REMARK    6  A    between atoms: C_15  and  C_16 
ROOT
HETATM    1  N   UNL     1       4.088  28.869  57.032  1.00  0.00    -0.342 N 
HETATM    2  C   UNL     1       4.661  28.029  56.115  1.00  0.00     0.334 C 
HETATM    3  N   UNL     1       4.673  26.722  56.528  1.00  0.00    -0.249 N 
HETATM    4  O   UNL     1       5.194  28.443  55.085  1.00  0.00    -0.246 OA
HETATM    5  H   UNL     1       3.591  28.450  57.810  1.00  0.00     0.164 HD
HETATM    6  H   UNL     1       3.956  26.379  57.168  1.00  0.00     0.192 HD
ENDROOT
BRANCH   1   7
HETATM    7  C   UNL     1       3.902  30.281  56.784  1.00  0.00     0.126 C 
BRANCH   7   8
HETATM    8  C   UNL     1       4.632  31.179  57.785  1.00  0.00     0.047 C 
BRANCH   8   9
HETATM    9  C   UNL     1       3.774  31.897  58.830  1.00  0.00     0.237 C 
BRANCH   9  10
HETATM   10  N   UNL     1       4.394  31.949  60.200  1.00  0.00    -0.067 N 
HETATM   11  C   UNL     1       5.889  32.128  60.201  1.00  0.00     0.274 C 
HETATM   12  C   UNL     1       6.487  32.388  61.557  1.00  0.00    -0.026 A 
HETATM   13  C   UNL     1       5.684  32.735  62.659  1.00  0.00    -0.049 A 
HETATM   14  C   UNL     1       7.880  32.332  61.713  1.00  0.00     0.009 A 
HETATM   15  C   UNL     1       6.282  32.979  63.902  1.00  0.00     0.007 A 
HETATM   16  C   UNL     1       4.185  32.794  62.528  1.00  0.00     0.067 C 
HETATM   17  C   UNL     1       7.668  32.913  64.044  1.00  0.00     0.001 A 
HETATM   18  C   UNL     1       8.466  32.594  62.950  1.00  0.00     0.001 A 
HETATM   19  C   UNL     1       3.735  32.987  61.081  1.00  0.00     0.240 C 
HETATM   20  H   UNL     1       4.162  31.045  60.660  1.00  0.00     0.280 HD
ENDBRANCH   9  10
ENDBRANCH   8   9
ENDBRANCH   7   8
ENDBRANCH   1   7
BRANCH   3  21
HETATM   21  N   UNL     1       5.163  25.741  55.653  1.00  0.00    -0.261 N 
HETATM   22  C   UNL     1       6.419  25.211  55.896  1.00  0.00     0.277 C 
HETATM   23  O   UNL     1       7.054  25.566  56.891  1.00  0.00    -0.265 OA
HETATM   24  H   UNL     1       4.582  25.441  54.875  1.00  0.00     0.190 HD
BRANCH  22  25
HETATM   25  C   UNL     1       6.915  24.250  54.925  1.00  0.00     0.075 A 
HETATM   26  S   UNL     1       7.479  22.692  55.379  1.00  0.00    -0.077 SA
HETATM   27  C   UNL     1       7.795  22.272  53.770  1.00  0.00     0.052 A 
HETATM   28 BR   UNL     1       8.476  20.602  53.266  1.00  0.00    -0.043 Br
HETATM   29  C   UNL     1       7.502  23.272  52.880  1.00  0.00     0.028 A 
HETATM   30  C   UNL     1       6.990  24.423  53.552  1.00  0.00     0.026 A 
ENDBRANCH  22  25
ENDBRANCH   3  21
TORSDOF 6
ENDMDL
MODEL 10
REMARK VINA RESULT:      -8.7      1.541      1.929
REMARK  6 active torsions:
REMARK  status: ('A' for Active; 'I' for Inactive)
REMARK    1  A    between atoms: N_6  and  C_8 
REMARK    2  A    between atoms: C_8  and  C_9 
REMARK    3  A    between atoms: C_9  and  C_10 
REMARK    4  A    between atoms: C_10  and  N_11 
REMARK       I    between atoms: N_11  and  C_12 
REMARK       I    between atoms: C_12  and  N_13 
REMARK    5  A    between atoms: N_13  and  N_14 
REMARK       I    between atoms: N_14  and  C_15 
REMARK    6  A    between atoms: C_15  and  C_16 
ROOT
HETATM    1  N   UNL     1       8.395  30.139  59.046  1.00  0.00    -0.342 N 
HETATM    2  C   UNL     1       7.614  31.174  59.486  1.00  0.00     0.334 C 
HETATM    3  N   UNL     1       7.590  31.279  60.852  1.00  0.00    -0.249 N 
HETATM    4  O   UNL     1       6.932  31.856  58.720  1.00  0.00    -0.246 OA
HETATM    5  H   UNL     1       8.996  29.682  59.723  1.00  0.00     0.164 HD
HETATM    6  H   UNL     1       8.387  30.960  61.406  1.00  0.00     0.192 HD
ENDROOT
BRANCH   1   7
HETATM    7  C   UNL     1       8.626  29.879  57.643  1.00  0.00     0.126 C 
BRANCH   7   8
HETATM    8  C   UNL     1       8.589  28.393  57.282  1.00  0.00     0.047 C 
BRANCH   8   9
HETATM    9  C   UNL     1       7.404  27.910  56.442  1.00  0.00     0.237 C 
BRANCH   9  10
HETATM   10  N   UNL     1       7.750  26.818  55.467  1.00  0.00    -0.067 N 
HETATM   11  C   UNL     1       7.518  25.423  55.985  1.00  0.00     0.274 C 
HETATM   12  C   UNL     1       7.663  24.340  54.951  1.00  0.00    -0.026 A 
HETATM   13  C   UNL     1       7.706  24.637  53.576  1.00  0.00    -0.049 A 
HETATM   14  C   UNL     1       7.704  22.999  55.365  1.00  0.00     0.009 A 
HETATM   15  C   UNL     1       7.831  23.597  52.647  1.00  0.00     0.007 A 
HETATM   16  C   UNL     1       7.672  26.065  53.099  1.00  0.00     0.067 C 
HETATM   17  C   UNL     1       7.879  22.270  53.073  1.00  0.00     0.001 A 
HETATM   18  C   UNL     1       7.812  21.971  54.430  1.00  0.00     0.001 A 
HETATM   19  C   UNL     1       7.063  27.010  54.133  1.00  0.00     0.240 C 
HETATM   20  H   UNL     1       8.761  26.931  55.247  1.00  0.00     0.280 HD
ENDBRANCH   9  10
ENDBRANCH   8   9
ENDBRANCH   7   8
ENDBRANCH   1   7
BRANCH   3  21
HETATM   21  N   UNL     1       6.889  32.342  61.437  1.00  0.00    -0.261 N 
HETATM   22  C   UNL     1       7.236  32.734  62.720  1.00  0.00     0.277 C 
HETATM   23  O   UNL     1       8.177  32.184  63.296  1.00  0.00    -0.265 OA
HETATM   24  H   UNL     1       6.155  32.801  60.905  1.00  0.00     0.190 HD
BRANCH  22  25
HETATM   25  C   UNL     1       6.437  33.792  63.314  1.00  0.00     0.075 A 
HETATM   26  S   UNL     1       5.768  33.663  64.891  1.00  0.00    -0.077 SA
HETATM   27  C   UNL     1       5.092  35.212  64.795  1.00  0.00     0.052 A 
HETATM   28 BR   UNL     1       4.108  35.985  66.187  1.00  0.00    -0.043 Br
HETATM   29  C   UNL     1       5.339  35.840  63.601  1.00  0.00     0.028 A 
HETATM   30  C   UNL     1       6.121  35.013  62.740  1.00  0.00     0.026 A 
ENDBRANCH  22  25
ENDBRANCH   3  21
TORSDOF 6
ENDMDL
