MODEL 1
REMARK VINA RESULT:      -9.6      0.000      0.000
REMARK  5 active torsions:
REMARK  status: ('A' for Active; 'I' for Inactive)
REMARK    1  A    between atoms: C_2  and  C_3 
REMARK    2  A    between atoms: C_3  and  C_4 
REMARK    3  A    between atoms: C_8  and  N_9 
REMARK       I    between atoms: N_9  and  C_10 
REMARK    4  A    between atoms: C_10  and  C_11 
REMARK    5  A    between atoms: N_13  and  C_14 
ROOT
HETATM    1  C   UNL     1       6.382  29.372  57.534  1.00  0.00     0.106 C 
HETATM    2  C   UNL     1       6.243  27.931  57.066  1.00  0.00     0.148 C 
HETATM    3  N   UNL     1       7.574  27.390  57.116  1.00  0.00    -0.299 N 
HETATM    4  C   UNL     1       8.528  28.414  57.085  1.00  0.00     0.226 C 
HETATM    5  O   UNL     1       9.746  28.361  57.012  1.00  0.00    -0.273 OA
HETATM    6  C   UNL     1       7.790  29.731  57.084  1.00  0.00     0.119 C 
ENDROOT
BRANCH   1   7
HETATM    7  C   UNL     1       5.324  30.263  56.909  1.00  0.00     0.242 C 
HETATM    8  N   UNL     1       4.941  31.436  57.492  1.00  0.00    -0.156 N 
HETATM    9  H   UNL     1       4.283  31.970  56.940  1.00  0.00     0.187 HD
HETATM   10  O   UNL     1       4.787  29.970  55.836  1.00  0.00    -0.272 OA
BRANCH   8  11
HETATM   11  C   UNL     1       5.275  31.869  58.745  1.00  0.00     0.725 A 
HETATM   12  N   UNL     1       4.404  31.791  59.800  1.00  0.00    -0.106 N 
HETATM   13  N   UNL     1       4.944  32.282  60.925  1.00  0.00    -0.144 NA
HETATM   14  H   UNL     1       3.455  31.441  59.818  1.00  0.00     0.208 HD
HETATM   15  C   UNL     1       6.166  32.628  60.504  1.00  0.00     0.166 A 
HETATM   16  N   UNL     1       6.400  32.386  59.174  1.00  0.00    -0.046 NA
BRANCH  15  17
HETATM   17  C   UNL     1       7.189  33.245  61.390  1.00  0.00     0.087 C 
BRANCH  17  18
HETATM   18  C   UNL     1       7.832  32.243  62.369  1.00  0.00    -0.016 C 
HETATM   19  C   UNL     1       7.894  32.795  63.796  1.00  0.00     0.010 C 
HETATM   20  C   UNL     1       9.243  31.886  61.896  1.00  0.00     0.010 C 
ENDBRANCH  17  18
ENDBRANCH  15  17
ENDBRANCH   8  11
ENDBRANCH   1   7
BRANCH   3  21
HETATM   21  C   UNL     1       7.907  26.036  57.092  1.00  0.00     0.165 A 
HETATM   22  N   UNL     1       8.331  25.384  58.179  1.00  0.00    -0.155 NA
HETATM   23  N   UNL     1       8.522  24.125  57.784  1.00  0.00    -0.275 N 
HETATM   24  H   UNL     1       8.851  23.457  58.471  1.00  0.00     0.189 HD
HETATM   25  C   UNL     1       8.239  23.901  56.468  1.00  0.00     0.065 A 
HETATM   26  C   UNL     1       7.837  25.139  55.969  1.00  0.00     0.040 A 
HETATM   27  C   UNL     1       8.310  22.735  55.697  1.00  0.00     0.051 A 
HETATM   28  C   UNL     1       7.503  25.216  54.598  1.00  0.00     0.019 A 
HETATM   29  C   UNL     1       7.567  24.062  53.801  1.00  0.00     0.020 A 
HETATM   30  C   UNL     1       7.962  22.846  54.350  1.00  0.00     0.013 A 
HETATM   31 BR   UNL     1       8.036  21.308  53.248  1.00  0.00    -0.051 Br
ENDBRANCH   3  21
TORSDOF 5
ENDMDL
MODEL 2
REMARK VINA RESULT:      -9.1      2.161      3.097
REMARK  5 active torsions:
REMARK  status: ('A' for Active; 'I' for Inactive)
REMARK    1  A    between atoms: C_2  and  C_3 
REMARK    2  A    between atoms: C_3  and  C_4 
REMARK    3  A    between atoms: C_8  and  N_9 
REMARK       I    between atoms: N_9  and  C_10 
REMARK    4  A    between atoms: C_10  and  C_11 
REMARK    5  A    between atoms: N_13  and  C_14 
ROOT
HETATM    1  C   UNL     1       8.457  29.271  56.814  1.00  0.00     0.106 C 
HETATM    2  C   UNL     1       8.509  28.417  55.555  1.00  0.00     0.148 C 
HETATM    3  N   UNL     1       7.719  27.255  55.857  1.00  0.00    -0.299 N 
HETATM    4  C   UNL     1       7.610  27.075  57.241  1.00  0.00     0.226 C 
HETATM    5  O   UNL     1       7.112  26.164  57.885  1.00  0.00    -0.273 OA
HETATM    6  C   UNL     1       8.312  28.230  57.913  1.00  0.00     0.119 C 
ENDROOT
BRANCH   1   7
HETATM    7  C   UNL     1       9.711  30.112  56.967  1.00  0.00     0.242 C 
HETATM    8  N   UNL     1       9.942  30.857  58.086  1.00  0.00    -0.156 N 
HETATM    9  H   UNL     1      10.845  31.312  58.095  1.00  0.00     0.187 HD
HETATM   10  O   UNL     1      10.584  30.133  56.092  1.00  0.00    -0.272 OA
BRANCH   8  11
HETATM   11  C   UNL     1       9.051  31.112  59.092  1.00  0.00     0.725 A 
HETATM   12  N   UNL     1       7.858  31.745  58.866  1.00  0.00    -0.106 N 
HETATM   13  N   UNL     1       7.154  31.893  59.997  1.00  0.00    -0.144 NA
HETATM   14  H   UNL     1       7.481  32.104  57.998  1.00  0.00     0.208 HD
HETATM   15  C   UNL     1       7.959  31.307  60.890  1.00  0.00     0.166 A 
HETATM   16  N   UNL     1       9.128  30.816  60.366  1.00  0.00    -0.046 NA
BRANCH  15  17
HETATM   17  C   UNL     1       7.635  31.206  62.338  1.00  0.00     0.087 C 
BRANCH  17  18
HETATM   18  C   UNL     1       6.963  32.472  62.904  1.00  0.00    -0.016 C 
HETATM   19  C   UNL     1       7.707  33.019  64.125  1.00  0.00     0.010 C 
HETATM   20  C   UNL     1       5.512  32.168  63.280  1.00  0.00     0.010 C 
ENDBRANCH  17  18
ENDBRANCH  15  17
ENDBRANCH   8  11
ENDBRANCH   1   7
BRANCH   3  21
HETATM   21  C   UNL     1       7.208  26.350  54.927  1.00  0.00     0.165 A 
HETATM   22  N   UNL     1       6.243  26.680  54.063  1.00  0.00    -0.155 NA
HETATM   23  N   UNL     1       6.039  25.587  53.329  1.00  0.00    -0.275 N 
HETATM   24  H   UNL     1       5.331  25.628  52.604  1.00  0.00     0.189 HD
HETATM   25  C   UNL     1       6.832  24.529  53.663  1.00  0.00     0.065 A 
HETATM   26  C   UNL     1       7.617  24.985  54.721  1.00  0.00     0.040 A 
HETATM   27  C   UNL     1       6.915  23.236  53.132  1.00  0.00     0.051 A 
HETATM   28  C   UNL     1       8.531  24.076  55.299  1.00  0.00     0.019 A 
HETATM   29  C   UNL     1       8.633  22.773  54.788  1.00  0.00     0.020 A 
HETATM   30  C   UNL     1       7.837  22.369  53.720  1.00  0.00     0.013 A 
HETATM   31 BR   UNL     1       8.001  20.605  53.053  1.00  0.00    -0.051 Br
ENDBRANCH   3  21
TORSDOF 5
ENDMDL
MODEL 3
REMARK VINA RESULT:      -8.9      1.111      1.330
REMARK  5 active torsions:
REMARK  status: ('A' for Active; 'I' for Inactive)
REMARK    1  A    between atoms: C_2  and  C_3 
REMARK    2  A    between atoms: C_3  and  C_4 
REMARK    3  A    between atoms: C_8  and  N_9 
REMARK       I    between atoms: N_9  and  C_10 
REMARK    4  A    between atoms: C_10  and  C_11 
REMARK    5  A    between atoms: N_13  and  C_14 
ROOT
HETATM    1  C   UNL     1       5.470  28.793  57.237  1.00  0.00     0.106 C 
HETATM    2  C   UNL     1       5.641  27.353  56.776  1.00  0.00     0.148 C 
HETATM    3  N   UNL     1       7.031  27.054  56.986  1.00  0.00    -0.299 N 
HETATM    4  C   UNL     1       7.787  28.230  57.052  1.00  0.00     0.226 C 
HETATM    5  O   UNL     1       8.996  28.393  57.121  1.00  0.00    -0.273 OA
HETATM    6  C   UNL     1       6.835  29.397  56.948  1.00  0.00     0.119 C 
ENDROOT
BRANCH   1   7
HETATM    7  C   UNL     1       4.351  29.488  56.483  1.00  0.00     0.242 C 
HETATM    8  N   UNL     1       3.728  30.593  56.985  1.00  0.00    -0.156 N 
HETATM    9  H   UNL     1       3.052  31.003  56.354  1.00  0.00     0.187 HD
HETATM   10  O   UNL     1       3.980  29.093  55.372  1.00  0.00    -0.272 OA
BRANCH   8  11
HETATM   11  C   UNL     1       3.859  31.096  58.250  1.00  0.00     0.725 A 
HETATM   12  N   UNL     1       3.095  30.649  59.296  1.00  0.00    -0.106 N 
HETATM   13  N   UNL     1       3.391  31.291  60.435  1.00  0.00    -0.144 NA
HETATM   14  H   UNL     1       2.369  29.944  59.299  1.00  0.00     0.208 HD
HETATM   15  C   UNL     1       4.366  32.112  60.031  1.00  0.00     0.166 A 
HETATM   16  N   UNL     1       4.678  32.015  58.698  1.00  0.00    -0.046 NA
BRANCH  15  17
HETATM   17  C   UNL     1       5.053  33.071  60.938  1.00  0.00     0.087 C 
BRANCH  17  18
HETATM   18  C   UNL     1       5.991  32.388  61.951  1.00  0.00    -0.016 C 
HETATM   19  C   UNL     1       5.393  32.364  63.361  1.00  0.00     0.010 C 
HETATM   20  C   UNL     1       7.341  33.107  61.979  1.00  0.00     0.010 C 
ENDBRANCH  17  18
ENDBRANCH  15  17
ENDBRANCH   8  11
ENDBRANCH   1   7
BRANCH   3  21
HETATM   21  C   UNL     1       7.597  25.780  57.019  1.00  0.00     0.165 A 
HETATM   22  N   UNL     1       8.253  25.315  58.088  1.00  0.00    -0.155 NA
HETATM   23  N   UNL     1       8.620  24.075  57.764  1.00  0.00    -0.275 N 
HETATM   24  H   UNL     1       9.140  23.540  58.451  1.00  0.00     0.189 HD
HETATM   25  C   UNL     1       8.234  23.683  56.517  1.00  0.00     0.065 A 
HETATM   26  C   UNL     1       7.562  24.782  55.983  1.00  0.00     0.040 A 
HETATM   27  C   UNL     1       8.425  22.477  55.830  1.00  0.00     0.051 A 
HETATM   28  C   UNL     1       7.066  24.670  54.665  1.00  0.00     0.019 A 
HETATM   29  C   UNL     1       7.245  23.473  53.953  1.00  0.00     0.020 A 
HETATM   30  C   UNL     1       7.911  22.400  54.535  1.00  0.00     0.013 A 
HETATM   31 BR   UNL     1       8.134  20.799  53.549  1.00  0.00    -0.051 Br
ENDBRANCH   3  21
TORSDOF 5
ENDMDL
MODEL 4
REMARK VINA RESULT:      -8.8      4.288      8.986
REMARK  5 active torsions:
REMARK  status: ('A' for Active; 'I' for Inactive)
REMARK    1  A    between atoms: C_2  and  C_3 
REMARK    2  A    between atoms: C_3  and  C_4 
REMARK    3  A    between atoms: C_8  and  N_9 
REMARK       I    between atoms: N_9  and  C_10 
REMARK    4  A    between atoms: C_10  and  C_11 
REMARK    5  A    between atoms: N_13  and  C_14 
ROOT
HETATM    1  C   UNL     1       8.036  28.374  56.780  1.00  0.00     0.106 C 
HETATM    2  C   UNL     1       7.181  28.963  57.893  1.00  0.00     0.148 C 
HETATM    3  N   UNL     1       7.846  30.179  58.273  1.00  0.00    -0.299 N 
HETATM    4  C   UNL     1       9.192  30.149  57.891  1.00  0.00     0.226 C 
HETATM    5  O   UNL     1      10.098  30.937  58.117  1.00  0.00    -0.273 OA
HETATM    6  C   UNL     1       9.431  28.860  57.143  1.00  0.00     0.119 C 
ENDROOT
BRANCH   1   7
HETATM    7  C   UNL     1       7.935  26.860  56.745  1.00  0.00     0.242 C 
HETATM    8  N   UNL     1       7.285  26.209  55.738  1.00  0.00    -0.156 N 
HETATM    9  H   UNL     1       7.352  25.201  55.792  1.00  0.00     0.187 HD
HETATM   10  O   UNL     1       8.460  26.158  57.616  1.00  0.00    -0.272 OA
BRANCH   8  11
HETATM   11  C   UNL     1       6.499  26.780  54.774  1.00  0.00     0.725 A 
HETATM   12  N   UNL     1       5.147  26.933  54.933  1.00  0.00    -0.106 N 
HETATM   13  N   UNL     1       4.585  27.507  53.859  1.00  0.00    -0.144 NA
HETATM   14  H   UNL     1       4.562  26.665  55.713  1.00  0.00     0.208 HD
HETATM   15  C   UNL     1       5.651  27.706  53.076  1.00  0.00     0.166 A 
HETATM   16  N   UNL     1       6.839  27.273  53.609  1.00  0.00    -0.046 NA
BRANCH  15  17
HETATM   17  C   UNL     1       5.568  28.327  51.726  1.00  0.00     0.087 C 
BRANCH  17  18
HETATM   18  C   UNL     1       4.384  27.809  50.888  1.00  0.00    -0.016 C 
HETATM   19  C   UNL     1       4.851  26.988  49.682  1.00  0.00     0.010 C 
HETATM   20  C   UNL     1       3.531  28.985  50.408  1.00  0.00     0.010 C 
ENDBRANCH  17  18
ENDBRANCH  15  17
ENDBRANCH   8  11
ENDBRANCH   1   7
BRANCH   3  21
HETATM   21  C   UNL     1       7.286  31.219  59.015  1.00  0.00     0.165 A 
HETATM   22  N   UNL     1       6.409  32.081  58.491  1.00  0.00    -0.155 NA
HETATM   23  N   UNL     1       6.081  32.901  59.489  1.00  0.00    -0.275 N 
HETATM   24  H   UNL     1       5.416  33.641  59.295  1.00  0.00     0.189 HD
HETATM   25  C   UNL     1       6.702  32.624  60.671  1.00  0.00     0.065 A 
HETATM   26  C   UNL     1       7.516  31.524  60.403  1.00  0.00     0.040 A 
HETATM   27  C   UNL     1       6.617  33.244  61.923  1.00  0.00     0.051 A 
HETATM   28  C   UNL     1       8.314  31.026  61.457  1.00  0.00     0.019 A 
HETATM   29  C   UNL     1       8.250  31.630  62.722  1.00  0.00     0.020 A 
HETATM   30  C   UNL     1       7.411  32.718  62.944  1.00  0.00     0.013 A 
HETATM   31 BR   UNL     1       7.347  33.509  64.663  1.00  0.00    -0.051 Br
ENDBRANCH   3  21
TORSDOF 5
ENDMDL
MODEL 5
REMARK VINA RESULT:      -8.5      1.979      2.394
REMARK  5 active torsions:
REMARK  status: ('A' for Active; 'I' for Inactive)
REMARK    1  A    between atoms: C_2  and  C_3 
REMARK    2  A    between atoms: C_3  and  C_4 
REMARK    3  A    between atoms: C_8  and  N_9 
REMARK       I    between atoms: N_9  and  C_10 
REMARK    4  A    between atoms: C_10  and  C_11 
REMARK    5  A    between atoms: N_13  and  C_14 
ROOT
HETATM    1  C   UNL     1       4.621  30.127  57.345  1.00  0.00     0.106 C 
HETATM    2  C   UNL     1       4.236  28.995  56.404  1.00  0.00     0.148 C 
HETATM    3  N   UNL     1       5.483  28.442  55.951  1.00  0.00    -0.299 N 
HETATM    4  C   UNL     1       6.521  29.368  56.105  1.00  0.00     0.226 C 
HETATM    5  O   UNL     1       7.690  29.316  55.754  1.00  0.00    -0.273 OA
HETATM    6  C   UNL     1       5.948  30.597  56.770  1.00  0.00     0.119 C 
ENDROOT
BRANCH   1   7
HETATM    7  C   UNL     1       3.569  31.221  57.357  1.00  0.00     0.242 C 
HETATM    8  N   UNL     1       3.602  32.237  58.266  1.00  0.00    -0.156 N 
HETATM    9  H   UNL     1       2.889  32.939  58.121  1.00  0.00     0.187 HD
HETATM   10  O   UNL     1       2.655  31.245  56.525  1.00  0.00    -0.272 OA
BRANCH   8  11
HETATM   11  C   UNL     1       4.413  32.319  59.365  1.00  0.00     0.725 A 
HETATM   12  N   UNL     1       4.064  31.771  60.571  1.00  0.00    -0.106 N 
HETATM   13  N   UNL     1       5.007  31.982  61.501  1.00  0.00    -0.144 NA
HETATM   14  H   UNL     1       3.222  31.271  60.824  1.00  0.00     0.208 HD
HETATM   15  C   UNL     1       5.928  32.650  60.799  1.00  0.00     0.166 A 
HETATM   16  N   UNL     1       5.596  32.871  59.486  1.00  0.00    -0.046 NA
BRANCH  15  17
HETATM   17  C   UNL     1       7.206  33.137  61.386  1.00  0.00     0.087 C 
BRANCH  17  18
HETATM   18  C   UNL     1       7.820  32.161  62.407  1.00  0.00    -0.016 C 
HETATM   19  C   UNL     1       7.927  32.782  63.802  1.00  0.00     0.010 C 
HETATM   20  C   UNL     1       9.206  31.717  61.935  1.00  0.00     0.010 C 
ENDBRANCH  17  18
ENDBRANCH  15  17
ENDBRANCH   8  11
ENDBRANCH   1   7
BRANCH   3  21
HETATM   21  C   UNL     1       5.653  27.201  55.339  1.00  0.00     0.165 A 
HETATM   22  N   UNL     1       5.116  26.909  54.150  1.00  0.00    -0.155 NA
HETATM   23  N   UNL     1       5.511  25.665  53.881  1.00  0.00    -0.275 N 
HETATM   24  H   UNL     1       5.203  25.248  53.010  1.00  0.00     0.189 HD
HETATM   25  C   UNL     1       6.297  25.104  54.844  1.00  0.00     0.065 A 
HETATM   26  C   UNL     1       6.412  26.081  55.832  1.00  0.00     0.040 A 
HETATM   27  C   UNL     1       6.898  23.842  54.922  1.00  0.00     0.051 A 
HETATM   28  C   UNL     1       7.162  25.763  56.985  1.00  0.00     0.019 A 
HETATM   29  C   UNL     1       7.774  24.503  57.091  1.00  0.00     0.020 A 
HETATM   30  C   UNL     1       7.642  23.567  56.071  1.00  0.00     0.013 A 
HETATM   31 BR   UNL     1       8.481  21.878  56.244  1.00  0.00    -0.051 Br
ENDBRANCH   3  21
TORSDOF 5
ENDMDL
MODEL 6
REMARK VINA RESULT:      -8.5      5.860      9.169
REMARK  5 active torsions:
REMARK  status: ('A' for Active; 'I' for Inactive)
REMARK    1  A    between atoms: C_2  and  C_3 
REMARK    2  A    between atoms: C_3  and  C_4 
REMARK    3  A    between atoms: C_8  and  N_9 
REMARK       I    between atoms: N_9  and  C_10 
REMARK    4  A    between atoms: C_10  and  C_11 
REMARK    5  A    between atoms: N_13  and  C_14 
ROOT
HETATM    1  C   UNL     1       5.559  27.514  53.779  1.00  0.00     0.106 C 
HETATM    2  C   UNL     1       4.503  27.022  52.799  1.00  0.00     0.148 C 
HETATM    3  N   UNL     1       4.812  27.675  51.556  1.00  0.00    -0.299 N 
HETATM    4  C   UNL     1       5.584  28.821  51.775  1.00  0.00     0.226 C 
HETATM    5  O   UNL     1       5.960  29.685  50.997  1.00  0.00    -0.273 OA
HETATM    6  C   UNL     1       5.873  28.907  53.255  1.00  0.00     0.119 C 
ENDROOT
BRANCH   1   7
HETATM    7  C   UNL     1       5.032  27.530  55.202  1.00  0.00     0.242 C 
HETATM    8  N   UNL     1       5.530  26.695  56.159  1.00  0.00    -0.156 N 
HETATM    9  H   UNL     1       5.146  26.855  57.081  1.00  0.00     0.187 HD
HETATM   10  O   UNL     1       4.147  28.318  55.553  1.00  0.00    -0.272 OA
BRANCH   8  11
HETATM   11  C   UNL     1       6.380  25.643  55.958  1.00  0.00     0.725 A 
HETATM   12  N   UNL     1       7.708  25.706  56.288  1.00  0.00    -0.106 N 
HETATM   13  N   UNL     1       8.346  24.563  55.994  1.00  0.00    -0.144 NA
HETATM   14  H   UNL     1       8.230  26.475  56.687  1.00  0.00     0.208 HD
HETATM   15  C   UNL     1       7.347  23.820  55.505  1.00  0.00     0.166 A 
HETATM   16  N   UNL     1       6.130  24.453  55.471  1.00  0.00    -0.046 NA
BRANCH  15  17
HETATM   17  C   UNL     1       7.531  22.427  55.015  1.00  0.00     0.087 C 
BRANCH  17  18
HETATM   18  C   UNL     1       8.320  22.344  53.694  1.00  0.00    -0.016 C 
HETATM   19  C   UNL     1       7.872  23.409  52.690  1.00  0.00     0.010 C 
HETATM   20  C   UNL     1       8.154  20.954  53.076  1.00  0.00     0.010 C 
ENDBRANCH  17  18
ENDBRANCH  15  17
ENDBRANCH   8  11
ENDBRANCH   1   7
BRANCH   3  21
HETATM   21  C   UNL     1       4.336  27.304  50.299  1.00  0.00     0.165 A 
HETATM   22  N   UNL     1       4.838  26.268  49.620  1.00  0.00    -0.155 NA
HETATM   23  N   UNL     1       4.126  26.205  48.495  1.00  0.00    -0.275 N 
HETATM   24  H   UNL     1       4.354  25.476  47.829  1.00  0.00     0.189 HD
HETATM   25  C   UNL     1       3.158  27.160  48.389  1.00  0.00     0.065 A 
HETATM   26  C   UNL     1       3.265  27.915  49.556  1.00  0.00     0.040 A 
HETATM   27  C   UNL     1       2.222  27.415  47.379  1.00  0.00     0.051 A 
HETATM   28  C   UNL     1       2.388  29.012  49.710  1.00  0.00     0.019 A 
HETATM   29  C   UNL     1       1.441  29.291  48.712  1.00  0.00     0.020 A 
HETATM   30  C   UNL     1       1.365  28.499  47.571  1.00  0.00     0.013 A 
HETATM   31 BR   UNL     1       0.076  28.902  46.244  1.00  0.00    -0.051 Br
ENDBRANCH   3  21
TORSDOF 5
ENDMDL
MODEL 7
REMARK VINA RESULT:      -8.4      3.088      4.290
REMARK  5 active torsions:
REMARK  status: ('A' for Active; 'I' for Inactive)
REMARK    1  A    between atoms: C_2  and  C_3 
REMARK    2  A    between atoms: C_3  and  C_4 
REMARK    3  A    between atoms: C_8  and  N_9 
REMARK       I    between atoms: N_9  and  C_10 
REMARK    4  A    between atoms: C_10  and  C_11 
REMARK    5  A    between atoms: N_13  and  C_14 
ROOT
HETATM    1  C   UNL     1       4.986  30.866  56.893  1.00  0.00     0.106 C 
HETATM    2  C   UNL     1       4.567  29.433  56.599  1.00  0.00     0.148 C 
HETATM    3  N   UNL     1       4.533  29.338  55.165  1.00  0.00    -0.299 N 
HETATM    4  C   UNL     1       4.407  30.606  54.587  1.00  0.00     0.226 C 
HETATM    5  O   UNL     1       4.247  30.934  53.421  1.00  0.00    -0.273 OA
HETATM    6  C   UNL     1       4.426  31.626  55.700  1.00  0.00     0.119 C 
ENDROOT
BRANCH   1   7
HETATM    7  C   UNL     1       4.419  31.351  58.214  1.00  0.00     0.242 C 
HETATM    8  N   UNL     1       5.227  31.684  59.262  1.00  0.00    -0.156 N 
HETATM    9  H   UNL     1       4.730  32.061  60.057  1.00  0.00     0.187 HD
HETATM   10  O   UNL     1       3.202  31.486  58.382  1.00  0.00    -0.272 OA
BRANCH   8  11
HETATM   11  C   UNL     1       6.573  31.457  59.355  1.00  0.00     0.725 A 
HETATM   12  N   UNL     1       7.156  30.995  60.505  1.00  0.00    -0.106 N 
HETATM   13  N   UNL     1       8.483  30.856  60.366  1.00  0.00    -0.144 NA
HETATM   14  H   UNL     1       6.726  30.776  61.395  1.00  0.00     0.208 HD
HETATM   15  C   UNL     1       8.656  31.229  59.093  1.00  0.00     0.166 A 
HETATM   16  N   UNL     1       7.505  31.601  58.446  1.00  0.00    -0.046 NA
BRANCH  15  17
HETATM   17  C   UNL     1       9.987  31.260  58.427  1.00  0.00     0.087 C 
BRANCH  17  18
HETATM   18  C   UNL     1      10.109  30.263  57.260  1.00  0.00    -0.016 C 
HETATM   19  C   UNL     1       9.134  29.091  57.403  1.00  0.00     0.010 C 
HETATM   20  C   UNL     1      11.541  29.731  57.177  1.00  0.00     0.010 C 
ENDBRANCH  17  18
ENDBRANCH  15  17
ENDBRANCH   8  11
ENDBRANCH   1   7
BRANCH   3  21
HETATM   21  C   UNL     1       4.520  28.157  54.424  1.00  0.00     0.165 A 
HETATM   22  N   UNL     1       3.563  27.882  53.533  1.00  0.00    -0.155 NA
HETATM   23  N   UNL     1       3.894  26.700  53.013  1.00  0.00    -0.275 N 
HETATM   24  H   UNL     1       3.284  26.305  52.306  1.00  0.00     0.189 HD
HETATM   25  C   UNL     1       5.043  26.167  53.518  1.00  0.00     0.065 A 
HETATM   26  C   UNL     1       5.488  27.092  54.461  1.00  0.00     0.040 A 
HETATM   27  C   UNL     1       5.707  24.968  53.229  1.00  0.00     0.051 A 
HETATM   28  C   UNL     1       6.666  26.784  55.177  1.00  0.00     0.019 A 
HETATM   29  C   UNL     1       7.351  25.588  54.908  1.00  0.00     0.020 A 
HETATM   30  C   UNL     1       6.874  24.703  53.947  1.00  0.00     0.013 A 
HETATM   31 BR   UNL     1       7.821  23.099  53.607  1.00  0.00    -0.051 Br
ENDBRANCH   3  21
TORSDOF 5
ENDMDL
MODEL 8
REMARK VINA RESULT:      -8.3      4.675      7.369
REMARK  5 active torsions:
REMARK  status: ('A' for Active; 'I' for Inactive)
REMARK    1  A    between atoms: C_2  and  C_3 
REMARK    2  A    between atoms: C_3  and  C_4 
REMARK    3  A    between atoms: C_8  and  N_9 
REMARK       I    between atoms: N_9  and  C_10 
REMARK    4  A    between atoms: C_10  and  C_11 
REMARK    5  A    between atoms: N_13  and  C_14 
ROOT
HETATM    1  C   UNL     1       4.922  28.255  54.840  1.00  0.00     0.106 C 
HETATM    2  C   UNL     1       6.343  27.715  54.920  1.00  0.00     0.148 C 
HETATM    3  N   UNL     1       6.253  26.544  55.749  1.00  0.00    -0.299 N 
HETATM    4  C   UNL     1       5.102  26.586  56.544  1.00  0.00     0.226 C 
HETATM    5  O   UNL     1       4.725  25.839  57.435  1.00  0.00    -0.273 OA
HETATM    6  C   UNL     1       4.331  27.831  56.175  1.00  0.00     0.119 C 
ENDROOT
BRANCH   1   7
HETATM    7  C   UNL     1       4.911  29.760  54.646  1.00  0.00     0.242 C 
HETATM    8  N   UNL     1       4.715  30.323  53.419  1.00  0.00    -0.156 N 
HETATM    9  H   UNL     1       4.656  31.332  53.437  1.00  0.00     0.187 HD
HETATM   10  O   UNL     1       5.053  30.534  55.600  1.00  0.00    -0.272 OA
BRANCH   8  11
HETATM   11  C   UNL     1       4.703  29.670  52.217  1.00  0.00     0.725 A 
HETATM   12  N   UNL     1       5.834  29.515  51.460  1.00  0.00    -0.106 N 
HETATM   13  N   UNL     1       5.581  28.853  50.322  1.00  0.00    -0.144 NA
HETATM   14  H   UNL     1       6.775  29.839  51.646  1.00  0.00     0.208 HD
HETATM   15  C   UNL     1       4.273  28.604  50.445  1.00  0.00     0.166 A 
HETATM   16  N   UNL     1       3.706  29.089  51.597  1.00  0.00    -0.046 NA
BRANCH  15  17
HETATM   17  C   UNL     1       3.481  27.877  49.417  1.00  0.00     0.087 C 
BRANCH  17  18
HETATM   18  C   UNL     1       2.072  28.462  49.205  1.00  0.00    -0.016 C 
HETATM   19  C   UNL     1       1.176  27.520  48.396  1.00  0.00     0.010 C 
HETATM   20  C   UNL     1       2.170  29.813  48.494  1.00  0.00     0.010 C 
ENDBRANCH  17  18
ENDBRANCH  15  17
ENDBRANCH   8  11
ENDBRANCH   1   7
BRANCH   3  21
HETATM   21  C   UNL     1       7.214  25.539  55.850  1.00  0.00     0.165 A 
HETATM   22  N   UNL     1       8.119  25.510  56.834  1.00  0.00    -0.155 NA
HETATM   23  N   UNL     1       8.837  24.408  56.620  1.00  0.00    -0.275 N 
HETATM   24  H   UNL     1       9.591  24.200  57.265  1.00  0.00     0.189 HD
HETATM   25  C   UNL     1       8.449  23.688  55.529  1.00  0.00     0.065 A 
HETATM   26  C   UNL     1       7.383  24.402  54.984  1.00  0.00     0.040 A 
HETATM   27  C   UNL     1       8.945  22.494  54.990  1.00  0.00     0.051 A 
HETATM   28  C   UNL     1       6.789  23.896  53.806  1.00  0.00     0.019 A 
HETATM   29  C   UNL     1       7.267  22.702  53.243  1.00  0.00     0.020 A 
HETATM   30  C   UNL     1       8.325  22.018  53.833  1.00  0.00     0.013 A 
HETATM   31 BR   UNL     1       8.945  20.410  53.049  1.00  0.00    -0.051 Br
ENDBRANCH   3  21
TORSDOF 5
ENDMDL
MODEL 9
REMARK VINA RESULT:      -8.1      1.665      2.049
REMARK  5 active torsions:
REMARK  status: ('A' for Active; 'I' for Inactive)
REMARK    1  A    between atoms: C_2  and  C_3 
REMARK    2  A    between atoms: C_3  and  C_4 
REMARK    3  A    between atoms: C_8  and  N_9 
REMARK       I    between atoms: N_9  and  C_10 
REMARK    4  A    between atoms: C_10  and  C_11 
REMARK    5  A    between atoms: N_13  and  C_14 
ROOT
HETATM    1  C   UNL     1       5.749  30.015  57.867  1.00  0.00     0.106 C 
HETATM    2  C   UNL     1       5.809  28.669  57.159  1.00  0.00     0.148 C 
HETATM    3  N   UNL     1       7.104  28.133  57.482  1.00  0.00    -0.299 N 
HETATM    4  C   UNL     1       7.980  29.153  57.870  1.00  0.00     0.226 C 
HETATM    5  O   UNL     1       9.175  29.118  58.123  1.00  0.00    -0.273 OA
HETATM    6  C   UNL     1       7.206  30.449  57.877  1.00  0.00     0.119 C 
ENDROOT
BRANCH   1   7
HETATM    7  C   UNL     1       4.852  30.991  57.127  1.00  0.00     0.242 C 
HETATM    8  N   UNL     1       4.268  32.048  57.762  1.00  0.00    -0.156 N 
HETATM    9  H   UNL     1       3.756  32.664  57.144  1.00  0.00     0.187 HD
HETATM   10  O   UNL     1       4.639  30.879  55.916  1.00  0.00    -0.272 OA
BRANCH   8  11
HETATM   11  C   UNL     1       4.231  32.268  59.111  1.00  0.00     0.725 A 
HETATM   12  N   UNL     1       3.414  31.550  59.945  1.00  0.00    -0.106 N 
HETATM   13  N   UNL     1       3.541  31.944  61.221  1.00  0.00    -0.144 NA
HETATM   14  H   UNL     1       2.758  30.815  59.716  1.00  0.00     0.208 HD
HETATM   15  C   UNL     1       4.472  32.898  61.113  1.00  0.00     0.166 A 
HETATM   16  N   UNL     1       4.917  33.119  59.834  1.00  0.00    -0.046 NA
BRANCH  15  17
HETATM   17  C   UNL     1       4.979  33.677  62.275  1.00  0.00     0.087 C 
BRANCH  17  18
HETATM   18  C   UNL     1       4.888  35.201  62.075  1.00  0.00    -0.016 C 
HETATM   19  C   UNL     1       5.889  35.956  62.954  1.00  0.00     0.010 C 
HETATM   20  C   UNL     1       3.469  35.683  62.384  1.00  0.00     0.010 C 
ENDBRANCH  17  18
ENDBRANCH  15  17
ENDBRANCH   8  11
ENDBRANCH   1   7
BRANCH   3  21
HETATM   21  C   UNL     1       7.497  26.803  57.337  1.00  0.00     0.165 A 
HETATM   22  N   UNL     1       7.858  26.046  58.378  1.00  0.00    -0.155 NA
HETATM   23  N   UNL     1       8.136  24.848  57.863  1.00  0.00    -0.275 N 
HETATM   24  H   UNL     1       8.437  24.117  58.498  1.00  0.00     0.189 HD
HETATM   25  C   UNL     1       7.972  24.766  56.512  1.00  0.00     0.065 A 
HETATM   26  C   UNL     1       7.558  26.038  56.119  1.00  0.00     0.040 A 
HETATM   27  C   UNL     1       8.157  23.698  55.625  1.00  0.00     0.051 A 
HETATM   28  C   UNL     1       7.335  26.259  54.742  1.00  0.00     0.019 A 
HETATM   29  C   UNL     1       7.514  25.207  53.830  1.00  0.00     0.020 A 
HETATM   30  C   UNL     1       7.915  23.951  54.273  1.00  0.00     0.013 A 
HETATM   31 BR   UNL     1       8.147  22.552  53.019  1.00  0.00    -0.051 Br
ENDBRANCH   3  21
TORSDOF 5
ENDMDL
MODEL 10
REMARK VINA RESULT:      -8.0      3.903      8.828
REMARK  5 active torsions:
REMARK  status: ('A' for Active; 'I' for Inactive)
REMARK    1  A    between atoms: C_2  and  C_3 
REMARK    2  A    between atoms: C_3  and  C_4 
REMARK    3  A    between atoms: C_8  and  N_9 
REMARK       I    between atoms: N_9  and  C_10 
REMARK    4  A    between atoms: C_10  and  C_11 
REMARK    5  A    between atoms: N_13  and  C_14 
ROOT
HETATM    1  C   UNL     1       6.930  27.945  54.902  1.00  0.00     0.106 C 
HETATM    2  C   UNL     1       6.843  29.178  55.790  1.00  0.00     0.148 C 
HETATM    3  N   UNL     1       7.432  28.783  57.040  1.00  0.00    -0.299 N 
HETATM    4  C   UNL     1       7.417  27.391  57.177  1.00  0.00     0.226 C 
HETATM    5  O   UNL     1       7.731  26.683  58.123  1.00  0.00    -0.273 OA
HETATM    6  C   UNL     1       6.846  26.807  55.907  1.00  0.00     0.119 C 
ENDROOT
BRANCH   1   7
HETATM    7  C   UNL     1       5.804  27.912  53.885  1.00  0.00     0.242 C 
HETATM    8  N   UNL     1       5.571  26.814  53.110  1.00  0.00    -0.156 N 
HETATM    9  H   UNL     1       4.748  26.892  52.527  1.00  0.00     0.187 HD
HETATM   10  O   UNL     1       5.040  28.872  53.739  1.00  0.00    -0.272 OA
BRANCH   8  11
HETATM   11  C   UNL     1       6.381  25.719  52.986  1.00  0.00     0.725 A 
HETATM   12  N   UNL     1       7.575  25.767  52.315  1.00  0.00    -0.106 N 
HETATM   13  N   UNL     1       8.191  24.576  52.316  1.00  0.00    -0.144 NA
HETATM   14  H   UNL     1       8.007  26.548  51.838  1.00  0.00     0.208 HD
HETATM   15  C   UNL     1       7.334  23.834  53.026  1.00  0.00     0.166 A 
HETATM   16  N   UNL     1       6.217  24.506  53.453  1.00  0.00    -0.046 NA
BRANCH  15  17
HETATM   17  C   UNL     1       7.554  22.392  53.321  1.00  0.00     0.087 C 
BRANCH  17  18
HETATM   18  C   UNL     1       7.984  22.125  54.775  1.00  0.00    -0.016 C 
HETATM   19  C   UNL     1       9.477  22.388  54.990  1.00  0.00     0.010 C 
HETATM   20  C   UNL     1       7.658  20.680  55.158  1.00  0.00     0.010 C 
ENDBRANCH  17  18
ENDBRANCH  15  17
ENDBRANCH   8  11
ENDBRANCH   1   7
BRANCH   3  21
HETATM   21  C   UNL     1       7.870  29.644  58.045  1.00  0.00     0.165 A 
HETATM   22  N   UNL     1       9.128  29.638  58.496  1.00  0.00    -0.155 NA
HETATM   23  N   UNL     1       9.178  30.599  59.418  1.00  0.00    -0.275 N 
HETATM   24  H   UNL     1      10.061  30.758  59.890  1.00  0.00     0.189 HD
HETATM   25  C   UNL     1       7.999  31.258  59.606  1.00  0.00     0.065 A 
HETATM   26  C   UNL     1       7.102  30.655  58.725  1.00  0.00     0.040 A 
HETATM   27  C   UNL     1       7.658  32.309  60.466  1.00  0.00     0.051 A 
HETATM   28  C   UNL     1       5.770  31.124  58.722  1.00  0.00     0.019 A 
HETATM   29  C   UNL     1       5.401  32.175  59.576  1.00  0.00     0.020 A 
HETATM   30  C   UNL     1       6.336  32.754  60.427  1.00  0.00     0.013 A 
HETATM   31 BR   UNL     1       5.806  34.172  61.565  1.00  0.00    -0.051 Br
ENDBRANCH   3  21
TORSDOF 5
ENDMDL
