MODEL 1
REMARK VINA RESULT:     -10.1      0.000      0.000
REMARK  4 active torsions:
REMARK  status: ('A' for Active; 'I' for Inactive)
REMARK    1  A    between atoms: C_10  and  C_11 
REMARK    2  A    between atoms: N_14  and  C_16 
REMARK    3  A    between atoms: C_16  and  C_17 
REMARK    4  A    between atoms: C_22  and  C_23 
ROOT
HETATM    1  C   UNL     1       5.708  26.946  56.677  1.00  0.00     0.024 C 
HETATM    2  C   UNL     1       6.998  27.226  57.475  1.00  0.00     0.037 C 
HETATM    3  C   UNL     1       8.117  26.284  57.051  1.00  0.00     0.236 C 
HETATM    4  N   UNL     1       7.702  24.849  57.279  1.00  0.00    -0.066 N 
HETATM    5  H   UNL     1       7.693  24.709  58.302  1.00  0.00     0.280 HD
HETATM    6  C   UNL     1       6.369  24.488  56.687  1.00  0.00     0.236 C 
HETATM    7  C   UNL     1       5.294  25.514  57.022  1.00  0.00     0.037 C 
ENDROOT
BRANCH   4   8
HETATM    8  C   UNL     1       8.769  23.871  56.784  1.00  0.00     0.294 C 
BRANCH   8   9
HETATM    9  C   UNL     1       8.441  23.222  55.452  1.00  0.00     0.075 A 
HETATM   10  N   UNL     1       8.375  24.073  54.387  1.00  0.00    -0.263 NA
HETATM   11  C   UNL     1       8.087  23.533  53.179  1.00  0.00     0.117 A 
HETATM   12  C   UNL     1       7.866  22.183  52.976  1.00  0.00     0.020 A 
HETATM   13  C   UNL     1       7.956  21.327  54.068  1.00  0.00     0.020 A 
HETATM   14  C   UNL     1       8.259  21.839  55.333  1.00  0.00     0.074 A 
BRANCH  14  15
HETATM   15  C   UNL     1       8.360  20.939  56.534  1.00  0.00     0.419 C 
HETATM   16  F   UNL     1       7.430  19.945  56.488  1.00  0.00    -0.166 F 
HETATM   17  F   UNL     1       9.563  20.306  56.578  1.00  0.00    -0.166 F 
HETATM   18  F   UNL     1       8.200  21.565  57.723  1.00  0.00    -0.166 F 
ENDBRANCH  14  15
ENDBRANCH   8   9
ENDBRANCH   4   8
BRANCH   1  19
HETATM   19  C   UNL     1       5.888  27.268  55.200  1.00  0.00    -0.024 A 
HETATM   20  C   UNL     1       5.551  26.516  54.012  1.00  0.00     0.018 A 
HETATM   21  C   UNL     1       6.055  27.229  52.924  1.00  0.00     0.138 A 
HETATM   22  C   UNL     1       4.899  25.307  53.694  1.00  0.00     0.017 A 
HETATM   23  N   UNL     1       6.051  26.880  51.627  1.00  0.00    -0.242 NA
HETATM   24  N   UNL     1       6.564  28.406  53.379  1.00  0.00    -0.350 N 
HETATM   25  C   UNL     1       5.442  25.702  51.390  1.00  0.00     0.119 A 
HETATM   26  C   UNL     1       4.856  24.900  52.357  1.00  0.00     0.020 A 
HETATM   27  H   UNL     1       6.948  29.118  52.774  1.00  0.00     0.166 HD
HETATM   28  C   UNL     1       6.456  28.453  54.741  1.00  0.00     0.098 A 
ENDBRANCH   1  19
TORSDOF 4
ENDMDL
MODEL 2
REMARK VINA RESULT:      -9.6      4.036      6.610
REMARK  4 active torsions:
REMARK  status: ('A' for Active; 'I' for Inactive)
REMARK    1  A    between atoms: C_10  and  C_11 
REMARK    2  A    between atoms: N_14  and  C_16 
REMARK    3  A    between atoms: C_16  and  C_17 
REMARK    4  A    between atoms: C_22  and  C_23 
ROOT
HETATM    1  C   UNL     1       5.916  25.225  56.911  1.00  0.00     0.024 C 
HETATM    2  C   UNL     1       4.987  26.453  56.977  1.00  0.00     0.037 C 
HETATM    3  C   UNL     1       5.679  27.692  56.423  1.00  0.00     0.236 C 
HETATM    4  N   UNL     1       6.934  27.983  57.215  1.00  0.00    -0.066 N 
HETATM    5  H   UNL     1       6.620  28.319  58.140  1.00  0.00     0.280 HD
HETATM    6  C   UNL     1       7.856  26.808  57.369  1.00  0.00     0.236 C 
HETATM    7  C   UNL     1       7.118  25.548  57.802  1.00  0.00     0.037 C 
ENDROOT
BRANCH   4   8
HETATM    8  C   UNL     1       7.702  29.170  56.633  1.00  0.00     0.294 C 
BRANCH   8   9
HETATM    9  C   UNL     1       8.179  30.166  57.672  1.00  0.00     0.075 A 
HETATM   10  N   UNL     1       7.203  30.700  58.463  1.00  0.00    -0.263 NA
HETATM   11  C   UNL     1       7.589  31.593  59.406  1.00  0.00     0.117 A 
HETATM   12  C   UNL     1       8.902  31.979  59.605  1.00  0.00     0.020 A 
HETATM   13  C   UNL     1       9.887  31.412  58.803  1.00  0.00     0.020 A 
HETATM   14  C   UNL     1       9.536  30.479  57.822  1.00  0.00     0.074 A 
BRANCH  14  15
HETATM   15  C   UNL     1      10.577  29.851  56.938  1.00  0.00     0.419 C 
HETATM   16  F   UNL     1      11.835  30.197  57.329  1.00  0.00    -0.166 F 
HETATM   17  F   UNL     1      10.537  28.493  57.013  1.00  0.00    -0.166 F 
HETATM   18  F   UNL     1      10.475  30.176  55.628  1.00  0.00    -0.166 F 
ENDBRANCH  14  15
ENDBRANCH   8   9
ENDBRANCH   4   8
BRANCH   1  19
HETATM   19  C   UNL     1       6.220  24.834  55.471  1.00  0.00    -0.024 A 
HETATM   20  C   UNL     1       7.029  23.768  54.922  1.00  0.00     0.018 A 
HETATM   21  C   UNL     1       7.061  23.955  53.540  1.00  0.00     0.138 A 
HETATM   22  C   UNL     1       7.765  22.666  55.402  1.00  0.00     0.017 A 
HETATM   23  N   UNL     1       7.751  23.257  52.623  1.00  0.00    -0.242 NA
HETATM   24  N   UNL     1       6.234  24.988  53.225  1.00  0.00    -0.350 N 
HETATM   25  C   UNL     1       8.459  22.237  53.145  1.00  0.00     0.119 A 
HETATM   26  C   UNL     1       8.495  21.898  54.489  1.00  0.00     0.020 A 
HETATM   27  H   UNL     1       6.052  25.288  52.278  1.00  0.00     0.166 HD
HETATM   28  C   UNL     1       5.708  25.516  54.372  1.00  0.00     0.098 A 
ENDBRANCH   1  19
TORSDOF 4
ENDMDL
MODEL 3
REMARK VINA RESULT:      -9.2      1.934      2.466
REMARK  4 active torsions:
REMARK  status: ('A' for Active; 'I' for Inactive)
REMARK    1  A    between atoms: C_10  and  C_11 
REMARK    2  A    between atoms: N_14  and  C_16 
REMARK    3  A    between atoms: C_16  and  C_17 
REMARK    4  A    between atoms: C_22  and  C_23 
ROOT
HETATM    1  C   UNL     1       5.294  27.234  56.533  1.00  0.00     0.024 C 
HETATM    2  C   UNL     1       6.685  27.397  57.177  1.00  0.00     0.037 C 
HETATM    3  C   UNL     1       7.741  26.622  56.400  1.00  0.00     0.236 C 
HETATM    4  N   UNL     1       7.386  25.153  56.366  1.00  0.00    -0.066 N 
HETATM    5  H   UNL     1       7.534  24.797  57.324  1.00  0.00     0.280 HD
HETATM    6  C   UNL     1       5.985  24.865  55.909  1.00  0.00     0.236 C 
HETATM    7  C   UNL     1       4.957  25.743  56.611  1.00  0.00     0.037 C 
ENDROOT
BRANCH   4   8
HETATM    8  C   UNL     1       8.380  24.356  55.519  1.00  0.00     0.294 C 
BRANCH   8   9
HETATM    9  C   UNL     1       8.283  22.854  55.703  1.00  0.00     0.075 A 
HETATM   10  N   UNL     1       8.447  22.410  56.984  1.00  0.00    -0.263 NA
HETATM   11  C   UNL     1       8.366  21.074  57.191  1.00  0.00     0.117 A 
HETATM   12  C   UNL     1       8.123  20.155  56.187  1.00  0.00     0.020 A 
HETATM   13  C   UNL     1       7.938  20.626  54.891  1.00  0.00     0.020 A 
HETATM   14  C   UNL     1       8.005  21.998  54.631  1.00  0.00     0.074 A 
BRANCH  14  15
HETATM   15  C   UNL     1       7.813  22.537  53.241  1.00  0.00     0.419 C 
HETATM   16  F   UNL     1       8.817  23.392  52.897  1.00  0.00    -0.166 F 
HETATM   17  F   UNL     1       7.853  21.542  52.314  1.00  0.00    -0.166 F 
HETATM   18  F   UNL     1       6.652  23.206  53.051  1.00  0.00    -0.166 F 
ENDBRANCH  14  15
ENDBRANCH   8   9
ENDBRANCH   4   8
BRANCH   1  19
HETATM   19  C   UNL     1       5.242  27.874  55.152  1.00  0.00    -0.024 A 
HETATM   20  C   UNL     1       5.147  27.289  53.833  1.00  0.00     0.018 A 
HETATM   21  C   UNL     1       5.269  28.334  52.917  1.00  0.00     0.138 A 
HETATM   22  C   UNL     1       4.992  26.006  53.271  1.00  0.00     0.017 A 
HETATM   23  N   UNL     1       5.318  28.263  51.577  1.00  0.00    -0.242 NA
HETATM   24  N   UNL     1       5.314  29.507  53.605  1.00  0.00    -0.350 N 
HETATM   25  C   UNL     1       5.196  27.009  51.101  1.00  0.00     0.119 A 
HETATM   26  C   UNL     1       5.025  25.875  51.879  1.00  0.00     0.020 A 
HETATM   27  H   UNL     1       5.355  30.413  53.160  1.00  0.00     0.166 HD
HETATM   28  C   UNL     1       5.282  29.249  54.947  1.00  0.00     0.098 A 
ENDBRANCH   1  19
TORSDOF 4
ENDMDL
MODEL 4
REMARK VINA RESULT:      -9.0      2.981      6.482
REMARK  4 active torsions:
REMARK  status: ('A' for Active; 'I' for Inactive)
REMARK    1  A    between atoms: C_10  and  C_11 
REMARK    2  A    between atoms: N_14  and  C_16 
REMARK    3  A    between atoms: C_16  and  C_17 
REMARK    4  A    between atoms: C_22  and  C_23 
ROOT
HETATM    1  C   UNL     1       6.153  24.379  53.111  1.00  0.00     0.024 C 
HETATM    2  C   UNL     1       7.094  25.253  52.257  1.00  0.00     0.037 C 
HETATM    3  C   UNL     1       7.786  26.306  53.111  1.00  0.00     0.236 C 
HETATM    4  N   UNL     1       6.758  27.195  53.773  1.00  0.00    -0.066 N 
HETATM    5  H   UNL     1       6.351  27.776  53.022  1.00  0.00     0.280 HD
HETATM    6  C   UNL     1       5.679  26.453  54.508  1.00  0.00     0.236 C 
HETATM    7  C   UNL     1       5.089  25.322  53.676  1.00  0.00     0.037 C 
ENDROOT
BRANCH   4   8
HETATM    8  C   UNL     1       7.416  28.212  54.708  1.00  0.00     0.294 C 
BRANCH   8   9
HETATM    9  C   UNL     1       6.431  29.020  55.531  1.00  0.00     0.075 A 
HETATM   10  N   UNL     1       5.355  29.505  54.846  1.00  0.00    -0.263 NA
HETATM   11  C   UNL     1       4.450  30.231  55.545  1.00  0.00     0.117 A 
HETATM   12  C   UNL     1       4.561  30.496  56.899  1.00  0.00     0.020 A 
HETATM   13  C   UNL     1       5.654  29.979  57.586  1.00  0.00     0.020 A 
HETATM   14  C   UNL     1       6.609  29.216  56.906  1.00  0.00     0.074 A 
BRANCH  14  15
HETATM   15  C   UNL     1       7.803  28.647  57.621  1.00  0.00     0.419 C 
HETATM   16  F   UNL     1       7.880  29.106  58.902  1.00  0.00    -0.166 F 
HETATM   17  F   UNL     1       7.717  27.293  57.728  1.00  0.00    -0.166 F 
HETATM   18  F   UNL     1       8.993  28.922  57.038  1.00  0.00    -0.166 F 
ENDBRANCH  14  15
ENDBRANCH   8   9
ENDBRANCH   4   8
BRANCH   1  19
HETATM   19  C   UNL     1       6.932  23.546  54.120  1.00  0.00    -0.024 A 
HETATM   20  C   UNL     1       7.648  22.298  53.976  1.00  0.00     0.018 A 
HETATM   21  C   UNL     1       8.066  21.921  55.252  1.00  0.00     0.138 A 
HETATM   22  C   UNL     1       7.993  21.408  52.938  1.00  0.00     0.017 A 
HETATM   23  N   UNL     1       8.697  20.794  55.621  1.00  0.00    -0.242 NA
HETATM   24  N   UNL     1       7.746  22.917  56.122  1.00  0.00    -0.350 N 
HETATM   25  C   UNL     1       8.973  19.971  54.591  1.00  0.00     0.119 A 
HETATM   26  C   UNL     1       8.661  20.224  53.265  1.00  0.00     0.020 A 
HETATM   27  H   UNL     1       7.987  22.900  57.103  1.00  0.00     0.166 HD
HETATM   28  C   UNL     1       7.080  23.908  55.455  1.00  0.00     0.098 A 
ENDBRANCH   1  19
TORSDOF 4
ENDMDL
MODEL 5
REMARK VINA RESULT:      -8.9      4.427      7.559
REMARK  4 active torsions:
REMARK  status: ('A' for Active; 'I' for Inactive)
REMARK    1  A    between atoms: C_10  and  C_11 
REMARK    2  A    between atoms: N_14  and  C_16 
REMARK    3  A    between atoms: C_16  and  C_17 
REMARK    4  A    between atoms: C_22  and  C_23 
ROOT
HETATM    1  C   UNL     1       7.006  24.933  54.580  1.00  0.00     0.024 C 
HETATM    2  C   UNL     1       5.477  25.129  54.567  1.00  0.00     0.037 C 
HETATM    3  C   UNL     1       4.931  25.069  53.147  1.00  0.00     0.236 C 
HETATM    4  N   UNL     1       5.571  26.146  52.299  1.00  0.00    -0.066 N 
HETATM    5  H   UNL     1       5.182  27.043  52.630  1.00  0.00     0.280 HD
HETATM    6  C   UNL     1       7.071  26.169  52.356  1.00  0.00     0.236 C 
HETATM    7  C   UNL     1       7.595  26.100  53.785  1.00  0.00     0.037 C 
ENDROOT
BRANCH   4   8
HETATM    8  C   UNL     1       5.110  26.061  50.843  1.00  0.00     0.294 C 
BRANCH   8   9
HETATM    9  C   UNL     1       4.448  27.325  50.330  1.00  0.00     0.075 A 
HETATM   10  N   UNL     1       4.465  28.385  51.190  1.00  0.00    -0.263 NA
HETATM   11  C   UNL     1       3.885  29.535  50.769  1.00  0.00     0.117 A 
HETATM   12  C   UNL     1       3.292  29.684  49.529  1.00  0.00     0.020 A 
HETATM   13  C   UNL     1       3.300  28.601  48.657  1.00  0.00     0.020 A 
HETATM   14  C   UNL     1       3.894  27.396  49.046  1.00  0.00     0.074 A 
BRANCH  14  15
HETATM   15  C   UNL     1       3.916  26.206  48.127  1.00  0.00     0.419 C 
HETATM   16  F   UNL     1       3.129  26.410  47.033  1.00  0.00    -0.166 F 
HETATM   17  F   UNL     1       5.164  25.982  47.636  1.00  0.00    -0.166 F 
HETATM   18  F   UNL     1       3.501  25.049  48.693  1.00  0.00    -0.166 F 
ENDBRANCH  14  15
ENDBRANCH   8   9
ENDBRANCH   4   8
BRANCH   1  19
HETATM   19  C   UNL     1       7.391  23.533  54.123  1.00  0.00    -0.024 A 
HETATM   20  C   UNL     1       7.737  22.345  54.872  1.00  0.00     0.018 A 
HETATM   21  C   UNL     1       8.129  21.381  53.944  1.00  0.00     0.138 A 
HETATM   22  C   UNL     1       7.796  21.947  56.223  1.00  0.00     0.017 A 
HETATM   23  N   UNL     1       8.609  20.148  54.179  1.00  0.00    -0.242 NA
HETATM   24  N   UNL     1       7.928  21.878  52.694  1.00  0.00    -0.350 N 
HETATM   25  C   UNL     1       8.669  19.836  55.488  1.00  0.00     0.119 A 
HETATM   26  C   UNL     1       8.278  20.669  56.524  1.00  0.00     0.020 A 
HETATM   27  H   UNL     1       8.094  21.348  51.850  1.00  0.00     0.166 HD
HETATM   28  C   UNL     1       7.469  23.163  52.784  1.00  0.00     0.098 A 
ENDBRANCH   1  19
TORSDOF 4
ENDMDL
MODEL 6
REMARK VINA RESULT:      -8.8      2.932      4.590
REMARK  4 active torsions:
REMARK  status: ('A' for Active; 'I' for Inactive)
REMARK    1  A    between atoms: C_10  and  C_11 
REMARK    2  A    between atoms: N_14  and  C_16 
REMARK    3  A    between atoms: C_16  and  C_17 
REMARK    4  A    between atoms: C_22  and  C_23 
ROOT
HETATM    1  C   UNL     1       5.064  27.222  56.379  1.00  0.00     0.024 C 
HETATM    2  C   UNL     1       4.994  25.857  57.093  1.00  0.00     0.037 C 
HETATM    3  C   UNL     1       6.347  25.159  57.073  1.00  0.00     0.236 C 
HETATM    4  N   UNL     1       6.799  24.944  55.646  1.00  0.00    -0.066 N 
HETATM    5  H   UNL     1       6.185  24.211  55.256  1.00  0.00     0.280 HD
HETATM    6  C   UNL     1       6.756  26.177  54.790  1.00  0.00     0.236 C 
HETATM    7  C   UNL     1       5.436  26.926  54.925  1.00  0.00     0.037 C 
ENDROOT
BRANCH   4   8
HETATM    8  C   UNL     1       8.196  24.323  55.589  1.00  0.00     0.294 C 
BRANCH   8   9
HETATM    9  C   UNL     1       8.204  22.810  55.690  1.00  0.00     0.075 A 
HETATM   10  N   UNL     1       8.380  22.308  56.947  1.00  0.00    -0.263 NA
HETATM   11  C   UNL     1       8.391  20.961  57.081  1.00  0.00     0.117 A 
HETATM   12  C   UNL     1       8.230  20.084  56.024  1.00  0.00     0.020 A 
HETATM   13  C   UNL     1       8.032  20.611  54.752  1.00  0.00     0.020 A 
HETATM   14  C   UNL     1       8.005  21.997  54.567  1.00  0.00     0.074 A 
BRANCH  14  15
HETATM   15  C   UNL     1       7.796  22.596  53.205  1.00  0.00     0.419 C 
HETATM   16  F   UNL     1       8.782  23.485  52.898  1.00  0.00    -0.166 F 
HETATM   17  F   UNL     1       7.851  21.647  52.232  1.00  0.00    -0.166 F 
HETATM   18  F   UNL     1       6.622  23.252  53.051  1.00  0.00    -0.166 F 
ENDBRANCH  14  15
ENDBRANCH   8   9
ENDBRANCH   4   8
BRANCH   1  19
HETATM   19  C   UNL     1       5.964  28.195  57.129  1.00  0.00    -0.024 A 
HETATM   20  C   UNL     1       5.729  29.543  57.598  1.00  0.00     0.018 A 
HETATM   21  C   UNL     1       6.940  30.011  58.107  1.00  0.00     0.138 A 
HETATM   22  C   UNL     1       4.657  30.456  57.649  1.00  0.00     0.017 A 
HETATM   23  N   UNL     1       7.225  31.236  58.580  1.00  0.00    -0.242 NA
HETATM   24  N   UNL     1       7.843  28.994  58.077  1.00  0.00    -0.350 N 
HETATM   25  C   UNL     1       6.170  32.072  58.576  1.00  0.00     0.119 A 
HETATM   26  C   UNL     1       4.895  31.743  58.143  1.00  0.00     0.020 A 
HETATM   27  H   UNL     1       8.784  29.072  58.436  1.00  0.00     0.166 HD
HETATM   28  C   UNL     1       7.267  27.891  57.508  1.00  0.00     0.098 A 
ENDBRANCH   1  19
TORSDOF 4
ENDMDL
MODEL 7
REMARK VINA RESULT:      -8.8      2.226      3.575
REMARK  4 active torsions:
REMARK  status: ('A' for Active; 'I' for Inactive)
REMARK    1  A    between atoms: C_10  and  C_11 
REMARK    2  A    between atoms: N_14  and  C_16 
REMARK    3  A    between atoms: C_16  and  C_17 
REMARK    4  A    between atoms: C_22  and  C_23 
ROOT
HETATM    1  C   UNL     1       4.524  26.684  53.046  1.00  0.00     0.024 C 
HETATM    2  C   UNL     1       5.511  27.256  54.083  1.00  0.00     0.037 C 
HETATM    3  C   UNL     1       6.891  26.631  53.928  1.00  0.00     0.236 C 
HETATM    4  N   UNL     1       6.805  25.132  54.107  1.00  0.00    -0.066 N 
HETATM    5  H   UNL     1       6.619  24.971  55.110  1.00  0.00     0.280 HD
HETATM    6  C   UNL     1       5.755  24.467  53.264  1.00  0.00     0.236 C 
HETATM    7  C   UNL     1       4.414  25.186  53.339  1.00  0.00     0.037 C 
ENDROOT
BRANCH   4   8
HETATM    8  C   UNL     1       8.159  24.461  53.871  1.00  0.00     0.294 C 
BRANCH   8   9
HETATM    9  C   UNL     1       8.151  22.961  54.091  1.00  0.00     0.075 A 
HETATM   10  N   UNL     1       8.106  22.203  52.957  1.00  0.00    -0.263 NA
HETATM   11  C   UNL     1       8.099  20.857  53.110  1.00  0.00     0.117 A 
HETATM   12  C   UNL     1       8.141  20.225  54.339  1.00  0.00     0.020 A 
HETATM   13  C   UNL     1       8.207  21.011  55.485  1.00  0.00     0.020 A 
HETATM   14  C   UNL     1       8.224  22.405  55.375  1.00  0.00     0.074 A 
BRANCH  14  15
HETATM   15  C   UNL     1       8.292  23.282  56.594  1.00  0.00     0.419 C 
HETATM   16  F   UNL     1       7.135  23.981  56.767  1.00  0.00    -0.166 F 
HETATM   17  F   UNL     1       8.439  22.543  57.727  1.00  0.00    -0.166 F 
HETATM   18  F   UNL     1       9.295  24.190  56.582  1.00  0.00    -0.166 F 
ENDBRANCH  14  15
ENDBRANCH   8   9
ENDBRANCH   4   8
BRANCH   1  19
HETATM   19  C   UNL     1       4.920  27.074  51.628  1.00  0.00    -0.024 A 
HETATM   20  C   UNL     1       5.163  28.367  51.027  1.00  0.00     0.018 A 
HETATM   21  C   UNL     1       5.368  28.148  49.665  1.00  0.00     0.138 A 
HETATM   22  C   UNL     1       5.220  29.714  51.440  1.00  0.00     0.017 A 
HETATM   23  N   UNL     1       5.551  29.060  48.695  1.00  0.00    -0.242 NA
HETATM   24  N   UNL     1       5.378  26.807  49.440  1.00  0.00    -0.350 N 
HETATM   25  C   UNL     1       5.566  30.329  49.147  1.00  0.00     0.119 A 
HETATM   26  C   UNL     1       5.419  30.703  50.473  1.00  0.00     0.020 A 
HETATM   27  H   UNL     1       5.555  26.394  48.535  1.00  0.00     0.166 HD
HETATM   28  C   UNL     1       5.128  26.147  50.611  1.00  0.00     0.098 A 
ENDBRANCH   1  19
TORSDOF 4
ENDMDL
MODEL 8
REMARK VINA RESULT:      -8.7      2.395      3.715
REMARK  4 active torsions:
REMARK  status: ('A' for Active; 'I' for Inactive)
REMARK    1  A    between atoms: C_10  and  C_11 
REMARK    2  A    between atoms: N_14  and  C_16 
REMARK    3  A    between atoms: C_16  and  C_17 
REMARK    4  A    between atoms: C_22  and  C_23 
ROOT
HETATM    1  C   UNL     1       5.345  27.222  53.410  1.00  0.00     0.024 C 
HETATM    2  C   UNL     1       6.798  27.631  53.724  1.00  0.00     0.037 C 
HETATM    3  C   UNL     1       7.762  26.488  53.434  1.00  0.00     0.236 C 
HETATM    4  N   UNL     1       7.401  25.281  54.270  1.00  0.00    -0.066 N 
HETATM    5  H   UNL     1       7.651  25.518  55.243  1.00  0.00     0.280 HD
HETATM    6  C   UNL     1       5.957  24.875  54.181  1.00  0.00     0.236 C 
HETATM    7  C   UNL     1       5.014  26.060  54.349  1.00  0.00     0.037 C 
ENDROOT
BRANCH   4   8
HETATM    8  C   UNL     1       8.295  24.085  53.941  1.00  0.00     0.294 C 
BRANCH   8   9
HETATM    9  C   UNL     1       8.289  23.000  55.001  1.00  0.00     0.075 A 
HETATM   10  N   UNL     1       8.425  23.437  56.287  1.00  0.00    -0.263 NA
HETATM   11  C   UNL     1       8.423  22.499  57.264  1.00  0.00     0.117 A 
HETATM   12  C   UNL     1       8.286  21.144  57.026  1.00  0.00     0.020 A 
HETATM   13  C   UNL     1       8.129  20.716  55.712  1.00  0.00     0.020 A 
HETATM   14  C   UNL     1       8.117  21.650  54.671  1.00  0.00     0.074 A 
BRANCH  14  15
HETATM   15  C   UNL     1       7.953  21.219  53.240  1.00  0.00     0.419 C 
HETATM   16  F   UNL     1       7.214  20.077  53.148  1.00  0.00    -0.166 F 
HETATM   17  F   UNL     1       7.272  22.149  52.518  1.00  0.00    -0.166 F 
HETATM   18  F   UNL     1       9.113  20.983  52.585  1.00  0.00    -0.166 F 
ENDBRANCH  14  15
ENDBRANCH   8   9
ENDBRANCH   4   8
BRANCH   1  19
HETATM   19  C   UNL     1       5.146  26.974  51.920  1.00  0.00    -0.024 A 
HETATM   20  C   UNL     1       5.252  27.861  50.783  1.00  0.00     0.018 A 
HETATM   21  C   UNL     1       4.839  27.137  49.666  1.00  0.00     0.138 A 
HETATM   22  C   UNL     1       5.625  29.198  50.536  1.00  0.00     0.017 A 
HETATM   23  N   UNL     1       4.694  27.570  48.402  1.00  0.00    -0.242 NA
HETATM   24  N   UNL     1       4.607  25.852  50.046  1.00  0.00    -0.350 N 
HETATM   25  C   UNL     1       5.037  28.862  48.234  1.00  0.00     0.119 A 
HETATM   26  C   UNL     1       5.505  29.697  49.236  1.00  0.00     0.020 A 
HETATM   27  H   UNL     1       4.340  25.119  49.403  1.00  0.00     0.166 HD
HETATM   28  C   UNL     1       4.803  25.733  51.394  1.00  0.00     0.098 A 
ENDBRANCH   1  19
TORSDOF 4
ENDMDL
MODEL 9
REMARK VINA RESULT:      -8.7      2.074      3.728
REMARK  4 active torsions:
REMARK  status: ('A' for Active; 'I' for Inactive)
REMARK    1  A    between atoms: C_10  and  C_11 
REMARK    2  A    between atoms: N_14  and  C_16 
REMARK    3  A    between atoms: C_16  and  C_17 
REMARK    4  A    between atoms: C_22  and  C_23 
ROOT
HETATM    1  C   UNL     1       4.911  26.297  52.327  1.00  0.00     0.024 C 
HETATM    2  C   UNL     1       4.641  24.927  52.981  1.00  0.00     0.037 C 
HETATM    3  C   UNL     1       5.802  24.508  53.872  1.00  0.00     0.236 C 
HETATM    4  N   UNL     1       7.074  24.421  53.060  1.00  0.00    -0.066 N 
HETATM    5  H   UNL     1       6.973  23.592  52.452  1.00  0.00     0.280 HD
HETATM    6  C   UNL     1       7.369  25.643  52.238  1.00  0.00     0.236 C 
HETATM    7  C   UNL     1       6.153  26.116  51.452  1.00  0.00     0.037 C 
ENDROOT
BRANCH   4   8
HETATM    8  C   UNL     1       8.280  24.087  53.940  1.00  0.00     0.294 C 
BRANCH   8   9
HETATM    9  C   UNL     1       8.356  22.630  54.355  1.00  0.00     0.075 A 
HETATM   10  N   UNL     1       8.417  21.732  53.329  1.00  0.00    -0.263 NA
HETATM   11  C   UNL     1       8.488  20.419  53.657  1.00  0.00     0.117 A 
HETATM   12  C   UNL     1       8.507  19.955  54.960  1.00  0.00     0.020 A 
HETATM   13  C   UNL     1       8.464  20.884  55.993  1.00  0.00     0.020 A 
HETATM   14  C   UNL     1       8.399  22.250  55.702  1.00  0.00     0.074 A 
BRANCH  14  15
HETATM   15  C   UNL     1       8.348  23.278  56.797  1.00  0.00     0.419 C 
HETATM   16  F   UNL     1       8.450  22.699  58.027  1.00  0.00    -0.166 F 
HETATM   17  F   UNL     1       9.398  24.140  56.717  1.00  0.00    -0.166 F 
HETATM   18  F   UNL     1       7.222  24.029  56.815  1.00  0.00    -0.166 F 
ENDBRANCH  14  15
ENDBRANCH   8   9
ENDBRANCH   4   8
BRANCH   1  19
HETATM   19  C   UNL     1       4.965  27.408  53.367  1.00  0.00    -0.024 A 
HETATM   20  C   UNL     1       6.065  27.937  54.143  1.00  0.00     0.018 A 
HETATM   21  C   UNL     1       5.523  28.860  55.036  1.00  0.00     0.138 A 
HETATM   22  C   UNL     1       7.459  27.750  54.234  1.00  0.00     0.017 A 
HETATM   23  N   UNL     1       6.152  29.545  56.007  1.00  0.00    -0.242 NA
HETATM   24  N   UNL     1       4.198  28.999  54.764  1.00  0.00    -0.350 N 
HETATM   25  C   UNL     1       7.475  29.303  56.064  1.00  0.00     0.119 A 
HETATM   26  C   UNL     1       8.165  28.447  55.220  1.00  0.00     0.020 A 
HETATM   27  H   UNL     1       3.593  29.648  55.247  1.00  0.00     0.166 HD
HETATM   28  C   UNL     1       3.850  28.146  53.753  1.00  0.00     0.098 A 
ENDBRANCH   1  19
TORSDOF 4
ENDMDL
MODEL 10
REMARK VINA RESULT:      -8.6      3.458      6.545
REMARK  4 active torsions:
REMARK  status: ('A' for Active; 'I' for Inactive)
REMARK    1  A    between atoms: C_10  and  C_11 
REMARK    2  A    between atoms: N_14  and  C_16 
REMARK    3  A    between atoms: C_16  and  C_17 
REMARK    4  A    between atoms: C_22  and  C_23 
ROOT
HETATM    1  C   UNL     1       6.473  23.982  52.811  1.00  0.00     0.024 C 
HETATM    2  C   UNL     1       7.501  24.824  52.029  1.00  0.00     0.037 C 
HETATM    3  C   UNL     1       7.735  26.167  52.707  1.00  0.00     0.236 C 
HETATM    4  N   UNL     1       6.437  26.937  52.797  1.00  0.00    -0.066 N 
HETATM    5  H   UNL     1       6.208  27.231  51.834  1.00  0.00     0.280 HD
HETATM    6  C   UNL     1       5.298  26.162  53.396  1.00  0.00     0.236 C 
HETATM    7  C   UNL     1       5.164  24.772  52.788  1.00  0.00     0.037 C 
ENDROOT
BRANCH   4   8
HETATM    8  C   UNL     1       6.618  28.255  53.551  1.00  0.00     0.294 C 
BRANCH   8   9
HETATM    9  C   UNL     1       6.783  28.093  55.050  1.00  0.00     0.075 A 
HETATM   10  N   UNL     1       7.967  27.545  55.452  1.00  0.00    -0.263 NA
HETATM   11  C   UNL     1       8.154  27.384  56.784  1.00  0.00     0.117 A 
HETATM   12  C   UNL     1       7.222  27.747  57.739  1.00  0.00     0.020 A 
HETATM   13  C   UNL     1       6.029  28.322  57.313  1.00  0.00     0.020 A 
HETATM   14  C   UNL     1       5.795  28.515  55.948  1.00  0.00     0.074 A 
BRANCH  14  15
HETATM   15  C   UNL     1       4.515  29.130  55.457  1.00  0.00     0.419 C 
HETATM   16  F   UNL     1       3.729  29.536  56.494  1.00  0.00    -0.166 F 
HETATM   17  F   UNL     1       4.753  30.252  54.726  1.00  0.00    -0.166 F 
HETATM   18  F   UNL     1       3.754  28.314  54.691  1.00  0.00    -0.166 F 
ENDBRANCH  14  15
ENDBRANCH   8   9
ENDBRANCH   4   8
BRANCH   1  19
HETATM   19  C   UNL     1       7.007  23.586  54.182  1.00  0.00    -0.024 A 
HETATM   20  C   UNL     1       7.756  22.429  54.617  1.00  0.00     0.018 A 
HETATM   21  C   UNL     1       7.869  22.516  56.004  1.00  0.00     0.138 A 
HETATM   22  C   UNL     1       8.348  21.291  54.031  1.00  0.00     0.017 A 
HETATM   23  N   UNL     1       8.414  21.627  56.851  1.00  0.00    -0.242 NA
HETATM   24  N   UNL     1       7.339  23.703  56.406  1.00  0.00    -0.350 N 
HETATM   25  C   UNL     1       8.935  20.549  56.236  1.00  0.00     0.119 A 
HETATM   26  C   UNL     1       8.939  20.338  54.867  1.00  0.00     0.020 A 
HETATM   27  H   UNL     1       7.343  24.020  57.365  1.00  0.00     0.166 HD
HETATM   28  C   UNL     1       6.832  24.365  55.322  1.00  0.00     0.098 A 
ENDBRANCH   1  19
TORSDOF 4
ENDMDL
