MODEL 1
REMARK VINA RESULT:     -10.4      0.000      0.000
REMARK  3 active torsions:
REMARK  status: ('A' for Active; 'I' for Inactive)
REMARK    1  A    between atoms: C_7  and  C_8 
REMARK       I    between atoms: C_8  and  N_9 
REMARK    2  A    between atoms: N_9  and  C_10 
REMARK    3  A    between atoms: C_18  and  N_19 
ROOT
HETATM    1  C   UNL     1       7.665  25.527  57.269  1.00  0.00     0.262 C 
HETATM    2  N   UNL     1       6.848  26.396  56.580  1.00  0.00    -0.305 N 
HETATM    3  O   UNL     1       8.144  25.694  58.386  1.00  0.00    -0.267 OA
HETATM    4  H   UNL     1       6.565  26.141  55.637  1.00  0.00     0.170 HD
ENDROOT
BRANCH   2   5
HETATM    5  C   UNL     1       6.342  27.583  57.066  1.00  0.00     0.163 A 
HETATM    6  N   UNL     1       5.051  27.834  57.285  1.00  0.00    -0.155 NA
HETATM    7  N   UNL     1       5.018  29.097  57.721  1.00  0.00    -0.275 N 
HETATM    8  H   UNL     1       4.115  29.500  57.944  1.00  0.00     0.189 HD
HETATM    9  C   UNL     1       6.248  29.692  57.811  1.00  0.00     0.064 A 
HETATM   10  C   UNL     1       7.148  28.720  57.388  1.00  0.00     0.042 A 
HETATM   11  C   UNL     1       6.628  30.973  58.223  1.00  0.00     0.034 A 
HETATM   12  C   UNL     1       8.525  29.022  57.376  1.00  0.00     0.053 A 
HETATM   13  C   UNL     1       8.929  30.303  57.798  1.00  0.00     0.103 A 
HETATM   14  C   UNL     1       7.996  31.266  58.212  1.00  0.00     0.038 A 
BRANCH  13  15
HETATM   15  N   UNL     1      10.360  30.633  57.815  1.00  0.00    -0.116 N 
HETATM   16  O   UNL     1      10.685  31.769  58.192  1.00  0.00    -0.532 OA
HETATM   17  O   UNL     1      11.159  29.758  57.455  1.00  0.00    -0.532 OA
ENDBRANCH  13  15
ENDBRANCH   2   5
BRANCH   1  18
HETATM   18  C   UNL     1       7.972  24.272  56.512  1.00  0.00     0.098 C 
HETATM   19  C   UNL     1       8.308  23.167  57.200  1.00  0.00     0.109 C 
HETATM   20  N   UNL     1       8.601  21.945  56.649  1.00  0.00    -0.364 N 
HETATM   21  C   UNL     1       8.428  21.725  55.276  1.00  0.00     0.046 A 
HETATM   22  H   UNL     1       8.664  21.145  57.268  1.00  0.00     0.165 HD
HETATM   23  C   UNL     1       8.106  22.799  54.429  1.00  0.00     0.042 A 
HETATM   24  C   UNL     1       8.637  20.462  54.717  1.00  0.00     0.030 A 
HETATM   25  C   UNL     1       7.959  22.608  53.052  1.00  0.00     0.018 A 
HETATM   26  C   UNL     1       7.911  24.146  55.027  1.00  0.00     0.201 C 
HETATM   27  C   UNL     1       8.148  21.337  52.511  1.00  0.00     0.001 A 
HETATM   28  C   UNL     1       8.489  20.267  53.341  1.00  0.00     0.002 A 
HETATM   29  O   UNL     1       7.697  25.127  54.317  1.00  0.00    -0.286 OA
ENDBRANCH   1  18
TORSDOF 3
ENDMDL
MODEL 2
REMARK VINA RESULT:     -10.0      5.342      7.434
REMARK  3 active torsions:
REMARK  status: ('A' for Active; 'I' for Inactive)
REMARK    1  A    between atoms: C_7  and  C_8 
REMARK       I    between atoms: C_8  and  N_9 
REMARK    2  A    between atoms: N_9  and  C_10 
REMARK    3  A    between atoms: C_18  and  N_19 
ROOT
HETATM    1  C   UNL     1       6.052  26.191  53.484  1.00  0.00     0.262 C 
HETATM    2  N   UNL     1       6.255  26.346  52.132  1.00  0.00    -0.305 N 
HETATM    3  O   UNL     1       5.471  26.967  54.237  1.00  0.00    -0.267 OA
HETATM    4  H   UNL     1       6.800  25.638  51.645  1.00  0.00     0.170 HD
ENDROOT
BRANCH   2   5
HETATM    5  C   UNL     1       5.756  27.370  51.354  1.00  0.00     0.163 A 
HETATM    6  N   UNL     1       5.973  28.669  51.563  1.00  0.00    -0.155 NA
HETATM    7  N   UNL     1       5.284  29.289  50.600  1.00  0.00    -0.275 N 
HETATM    8  H   UNL     1       5.307  30.303  50.577  1.00  0.00     0.189 HD
HETATM    9  C   UNL     1       4.624  28.445  49.748  1.00  0.00     0.064 A 
HETATM   10  C   UNL     1       4.915  27.167  50.215  1.00  0.00     0.042 A 
HETATM   11  C   UNL     1       3.819  28.698  48.634  1.00  0.00     0.034 A 
HETATM   12  C   UNL     1       4.384  26.054  49.533  1.00  0.00     0.053 A 
HETATM   13  C   UNL     1       3.580  26.287  48.401  1.00  0.00     0.103 A 
HETATM   14  C   UNL     1       3.298  27.589  47.959  1.00  0.00     0.038 A 
BRANCH  13  15
HETATM   15  N   UNL     1       3.034  25.142  47.661  1.00  0.00    -0.116 N 
HETATM   16  O   UNL     1       2.838  24.091  48.288  1.00  0.00    -0.532 OA
HETATM   17  O   UNL     1       2.798  25.294  46.455  1.00  0.00    -0.532 OA
ENDBRANCH  13  15
ENDBRANCH   2   5
BRANCH   1  18
HETATM   18  C   UNL     1       6.640  24.928  54.034  1.00  0.00     0.098 C 
HETATM   19  C   UNL     1       6.551  24.694  55.354  1.00  0.00     0.109 C 
HETATM   20  N   UNL     1       7.027  23.580  55.998  1.00  0.00    -0.364 N 
HETATM   21  C   UNL     1       7.538  22.501  55.267  1.00  0.00     0.046 A 
HETATM   22  H   UNL     1       6.747  23.429  56.962  1.00  0.00     0.165 HD
HETATM   23  C   UNL     1       7.715  22.616  53.878  1.00  0.00     0.042 A 
HETATM   24  C   UNL     1       7.943  21.326  55.905  1.00  0.00     0.030 A 
HETATM   25  C   UNL     1       8.253  21.562  53.132  1.00  0.00     0.018 A 
HETATM   26  C   UNL     1       7.307  23.880  53.209  1.00  0.00     0.201 C 
HETATM   27  C   UNL     1       8.630  20.386  53.779  1.00  0.00     0.001 A 
HETATM   28  C   UNL     1       8.479  20.269  55.162  1.00  0.00     0.002 A 
HETATM   29  O   UNL     1       7.508  24.052  52.008  1.00  0.00    -0.286 OA
ENDBRANCH   1  18
TORSDOF 3
ENDMDL
MODEL 3
REMARK VINA RESULT:     -10.0      1.432      2.066
REMARK  3 active torsions:
REMARK  status: ('A' for Active; 'I' for Inactive)
REMARK    1  A    between atoms: C_7  and  C_8 
REMARK       I    between atoms: C_8  and  N_9 
REMARK    2  A    between atoms: N_9  and  C_10 
REMARK    3  A    between atoms: C_18  and  N_19 
ROOT
HETATM    1  C   UNL     1       6.878  26.502  54.839  1.00  0.00     0.262 C 
HETATM    2  N   UNL     1       6.407  26.576  56.130  1.00  0.00    -0.305 N 
HETATM    3  O   UNL     1       7.035  27.433  54.056  1.00  0.00    -0.267 OA
HETATM    4  H   UNL     1       6.285  25.708  56.646  1.00  0.00     0.170 HD
ENDROOT
BRANCH   2   5
HETATM    5  C   UNL     1       6.111  27.737  56.815  1.00  0.00     0.163 A 
HETATM    6  N   UNL     1       4.893  28.099  57.219  1.00  0.00    -0.155 NA
HETATM    7  N   UNL     1       5.068  29.288  57.805  1.00  0.00    -0.275 N 
HETATM    8  H   UNL     1       4.252  29.755  58.185  1.00  0.00     0.189 HD
HETATM    9  C   UNL     1       6.366  29.724  57.814  1.00  0.00     0.064 A 
HETATM   10  C   UNL     1       7.084  28.722  57.170  1.00  0.00     0.042 A 
HETATM   11  C   UNL     1       6.948  30.887  58.327  1.00  0.00     0.034 A 
HETATM   12  C   UNL     1       8.479  28.868  57.024  1.00  0.00     0.053 A 
HETATM   13  C   UNL     1       9.085  30.026  57.545  1.00  0.00     0.103 A 
HETATM   14  C   UNL     1       8.332  31.023  58.183  1.00  0.00     0.038 A 
BRANCH  13  15
HETATM   15  N   UNL     1      10.540  30.189  57.425  1.00  0.00    -0.116 N 
HETATM   16  O   UNL     1      11.041  31.236  57.860  1.00  0.00    -0.532 OA
HETATM   17  O   UNL     1      11.183  29.270  56.898  1.00  0.00    -0.532 OA
ENDBRANCH  13  15
ENDBRANCH   2   5
BRANCH   1  18
HETATM   18  C   UNL     1       7.200  25.106  54.402  1.00  0.00     0.098 C 
HETATM   19  C   UNL     1       7.522  24.889  53.115  1.00  0.00     0.109 C 
HETATM   20  N   UNL     1       7.854  23.673  52.573  1.00  0.00    -0.364 N 
HETATM   21  C   UNL     1       8.020  22.550  53.393  1.00  0.00     0.046 A 
HETATM   22  H   UNL     1       8.250  23.659  51.639  1.00  0.00     0.165 HD
HETATM   23  C   UNL     1       7.691  22.625  54.758  1.00  0.00     0.042 A 
HETATM   24  C   UNL     1       8.444  21.328  52.866  1.00  0.00     0.030 A 
HETATM   25  C   UNL     1       7.819  21.507  55.589  1.00  0.00     0.018 A 
HETATM   26  C   UNL     1       7.214  23.921  55.307  1.00  0.00     0.201 C 
HETATM   27  C   UNL     1       8.266  20.300  55.054  1.00  0.00     0.001 A 
HETATM   28  C   UNL     1       8.575  20.210  53.695  1.00  0.00     0.002 A 
HETATM   29  O   UNL     1       6.849  24.014  56.478  1.00  0.00    -0.286 OA
ENDBRANCH   1  18
TORSDOF 3
ENDMDL
MODEL 4
REMARK VINA RESULT:      -9.8      4.907      6.506
REMARK  3 active torsions:
REMARK  status: ('A' for Active; 'I' for Inactive)
REMARK    1  A    between atoms: C_7  and  C_8 
REMARK       I    between atoms: C_8  and  N_9 
REMARK    2  A    between atoms: N_9  and  C_10 
REMARK    3  A    between atoms: C_18  and  N_19 
ROOT
HETATM    1  C   UNL     1       6.556  26.329  53.891  1.00  0.00     0.262 C 
HETATM    2  N   UNL     1       5.374  26.266  53.188  1.00  0.00    -0.305 N 
HETATM    3  O   UNL     1       7.209  27.336  54.147  1.00  0.00    -0.267 OA
HETATM    4  H   UNL     1       4.969  25.349  53.013  1.00  0.00     0.170 HD
ENDROOT
BRANCH   2   5
HETATM    5  C   UNL     1       4.655  27.347  52.720  1.00  0.00     0.163 A 
HETATM    6  N   UNL     1       4.066  28.266  53.485  1.00  0.00    -0.155 NA
HETATM    7  N   UNL     1       3.470  29.095  52.624  1.00  0.00    -0.275 N 
HETATM    8  H   UNL     1       2.949  29.879  53.002  1.00  0.00     0.189 HD
HETATM    9  C   UNL     1       3.652  28.766  51.308  1.00  0.00     0.064 A 
HETATM   10  C   UNL     1       4.433  27.615  51.333  1.00  0.00     0.042 A 
HETATM   11  C   UNL     1       3.206  29.373  50.131  1.00  0.00     0.034 A 
HETATM   12  C   UNL     1       4.812  27.020  50.113  1.00  0.00     0.053 A 
HETATM   13  C   UNL     1       4.383  27.624  48.916  1.00  0.00     0.103 A 
HETATM   14  C   UNL     1       3.588  28.780  48.923  1.00  0.00     0.038 A 
BRANCH  13  15
HETATM   15  N   UNL     1       4.784  27.035  47.632  1.00  0.00    -0.116 N 
HETATM   16  O   UNL     1       4.190  26.014  47.255  1.00  0.00    -0.532 OA
HETATM   17  O   UNL     1       5.690  27.593  46.998  1.00  0.00    -0.532 OA
ENDBRANCH  13  15
ENDBRANCH   2   5
BRANCH   1  18
HETATM   18  C   UNL     1       7.048  24.991  54.350  1.00  0.00     0.098 C 
HETATM   19  C   UNL     1       7.049  24.718  55.666  1.00  0.00     0.109 C 
HETATM   20  N   UNL     1       7.454  23.536  56.232  1.00  0.00    -0.364 N 
HETATM   21  C   UNL     1       7.782  22.438  55.428  1.00  0.00     0.046 A 
HETATM   22  H   UNL     1       7.243  23.380  57.212  1.00  0.00     0.165 HD
HETATM   23  C   UNL     1       7.850  22.587  54.032  1.00  0.00     0.042 A 
HETATM   24  C   UNL     1       8.110  21.203  55.993  1.00  0.00     0.030 A 
HETATM   25  C   UNL     1       8.205  21.511  53.212  1.00  0.00     0.018 A 
HETATM   26  C   UNL     1       7.525  23.911  53.439  1.00  0.00     0.201 C 
HETATM   27  C   UNL     1       8.507  20.278  53.788  1.00  0.00     0.001 A 
HETATM   28  C   UNL     1       8.463  20.125  55.175  1.00  0.00     0.002 A 
HETATM   29  O   UNL     1       7.639  24.106  52.230  1.00  0.00    -0.286 OA
ENDBRANCH   1  18
TORSDOF 3
ENDMDL
MODEL 5
REMARK VINA RESULT:      -9.6      2.307      8.097
REMARK  3 active torsions:
REMARK  status: ('A' for Active; 'I' for Inactive)
REMARK    1  A    between atoms: C_7  and  C_8 
REMARK       I    between atoms: C_8  and  N_9 
REMARK    2  A    between atoms: N_9  and  C_10 
REMARK    3  A    between atoms: C_18  and  N_19 
ROOT
HETATM    1  C   UNL     1       6.665  27.540  55.077  1.00  0.00     0.262 C 
HETATM    2  N   UNL     1       7.727  26.743  54.714  1.00  0.00    -0.305 N 
HETATM    3  O   UNL     1       5.530  27.514  54.610  1.00  0.00    -0.267 OA
HETATM    4  H   UNL     1       8.626  26.913  55.158  1.00  0.00     0.170 HD
ENDROOT
BRANCH   2   5
HETATM    5  C   UNL     1       7.681  25.698  53.815  1.00  0.00     0.163 A 
HETATM    6  N   UNL     1       7.441  25.819  52.509  1.00  0.00    -0.155 NA
HETATM    7  N   UNL     1       7.461  24.567  52.041  1.00  0.00    -0.275 N 
HETATM    8  H   UNL     1       7.292  24.427  51.051  1.00  0.00     0.189 HD
HETATM    9  C   UNL     1       7.719  23.616  52.991  1.00  0.00     0.064 A 
HETATM   10  C   UNL     1       7.872  24.328  54.177  1.00  0.00     0.042 A 
HETATM   11  C   UNL     1       7.829  22.225  52.903  1.00  0.00     0.034 A 
HETATM   12  C   UNL     1       8.162  23.624  55.363  1.00  0.00     0.053 A 
HETATM   13  C   UNL     1       8.289  22.224  55.293  1.00  0.00     0.103 A 
HETATM   14  C   UNL     1       8.121  21.533  54.083  1.00  0.00     0.038 A 
BRANCH  13  15
HETATM   15  N   UNL     1       8.614  21.471  56.512  1.00  0.00    -0.116 N 
HETATM   16  O   UNL     1       8.330  21.989  57.602  1.00  0.00    -0.532 OA
HETATM   17  O   UNL     1       9.149  20.362  56.380  1.00  0.00    -0.532 OA
ENDBRANCH  13  15
ENDBRANCH   2   5
BRANCH   1  18
HETATM   18  C   UNL     1       7.001  28.531  56.148  1.00  0.00     0.098 C 
HETATM   19  C   UNL     1       6.088  28.790  57.099  1.00  0.00     0.109 C 
HETATM   20  N   UNL     1       6.257  29.658  58.148  1.00  0.00    -0.364 N 
HETATM   21  C   UNL     1       7.502  30.255  58.383  1.00  0.00     0.046 A 
HETATM   22  H   UNL     1       5.575  29.639  58.899  1.00  0.00     0.165 HD
HETATM   23  C   UNL     1       8.543  30.094  57.453  1.00  0.00     0.042 A 
HETATM   24  C   UNL     1       7.712  31.071  59.498  1.00  0.00     0.030 A 
HETATM   25  C   UNL     1       9.785  30.707  57.651  1.00  0.00     0.018 A 
HETATM   26  C   UNL     1       8.305  29.247  56.254  1.00  0.00     0.201 C 
HETATM   27  C   UNL     1       9.987  31.498  58.781  1.00  0.00     0.001 A 
HETATM   28  C   UNL     1       8.953  31.682  59.700  1.00  0.00     0.002 A 
HETATM   29  O   UNL     1       9.163  29.134  55.380  1.00  0.00    -0.286 OA
ENDBRANCH   1  18
TORSDOF 3
ENDMDL
MODEL 6
REMARK VINA RESULT:      -9.5      5.147      8.192
REMARK  3 active torsions:
REMARK  status: ('A' for Active; 'I' for Inactive)
REMARK    1  A    between atoms: C_7  and  C_8 
REMARK       I    between atoms: C_8  and  N_9 
REMARK    2  A    between atoms: N_9  and  C_10 
REMARK    3  A    between atoms: C_18  and  N_19 
ROOT
HETATM    1  C   UNL     1       5.534  25.874  52.765  1.00  0.00     0.262 C 
HETATM    2  N   UNL     1       6.777  25.997  53.344  1.00  0.00    -0.305 N 
HETATM    3  O   UNL     1       4.584  25.220  53.187  1.00  0.00    -0.267 OA
HETATM    4  H   UNL     1       7.483  26.538  52.851  1.00  0.00     0.170 HD
ENDROOT
BRANCH   2   5
HETATM    5  C   UNL     1       7.153  25.475  54.564  1.00  0.00     0.163 A 
HETATM    6  N   UNL     1       7.171  26.150  55.714  1.00  0.00    -0.155 NA
HETATM    7  N   UNL     1       7.622  25.273  56.616  1.00  0.00    -0.275 N 
HETATM    8  H   UNL     1       7.722  25.587  57.576  1.00  0.00     0.189 HD
HETATM    9  C   UNL     1       7.894  24.032  56.107  1.00  0.00     0.064 A 
HETATM   10  C   UNL     1       7.593  24.128  54.753  1.00  0.00     0.042 A 
HETATM   11  C   UNL     1       8.364  22.864  56.715  1.00  0.00     0.034 A 
HETATM   12  C   UNL     1       7.758  22.992  53.934  1.00  0.00     0.053 A 
HETATM   13  C   UNL     1       8.219  21.803  54.530  1.00  0.00     0.103 A 
HETATM   14  C   UNL     1       8.522  21.740  55.899  1.00  0.00     0.038 A 
BRANCH  13  15
HETATM   15  N   UNL     1       8.378  20.600  53.702  1.00  0.00    -0.116 N 
HETATM   16  O   UNL     1       8.074  20.682  52.503  1.00  0.00    -0.532 OA
HETATM   17  O   UNL     1       8.808  19.575  54.249  1.00  0.00    -0.532 OA
ENDBRANCH  13  15
ENDBRANCH   2   5
BRANCH   1  18
HETATM   18  C   UNL     1       5.397  26.631  51.480  1.00  0.00     0.098 C 
HETATM   19  C   UNL     1       5.055  25.962  50.367  1.00  0.00     0.109 C 
HETATM   20  N   UNL     1       4.878  26.519  49.126  1.00  0.00    -0.364 N 
HETATM   21  C   UNL     1       4.911  27.910  48.960  1.00  0.00     0.046 A 
HETATM   22  H   UNL     1       4.449  25.951  48.404  1.00  0.00     0.165 HD
HETATM   23  C   UNL     1       5.283  28.735  50.035  1.00  0.00     0.042 A 
HETATM   24  C   UNL     1       4.644  28.494  47.720  1.00  0.00     0.030 A 
HETATM   25  C   UNL     1       5.353  30.123  49.884  1.00  0.00     0.018 A 
HETATM   26  C   UNL     1       5.592  28.104  51.346  1.00  0.00     0.201 C 
HETATM   27  C   UNL     1       5.061  30.695  48.646  1.00  0.00     0.001 A 
HETATM   28  C   UNL     1       4.711  29.883  47.566  1.00  0.00     0.002 A 
HETATM   29  O   UNL     1       5.990  28.780  52.293  1.00  0.00    -0.286 OA
ENDBRANCH   1  18
TORSDOF 3
ENDMDL
MODEL 7
REMARK VINA RESULT:      -9.5      2.208      2.973
REMARK  3 active torsions:
REMARK  status: ('A' for Active; 'I' for Inactive)
REMARK    1  A    between atoms: C_7  and  C_8 
REMARK       I    between atoms: C_8  and  N_9 
REMARK    2  A    between atoms: N_9  and  C_10 
REMARK    3  A    between atoms: C_18  and  N_19 
ROOT
HETATM    1  C   UNL     1       6.872  26.135  53.942  1.00  0.00     0.262 C 
HETATM    2  N   UNL     1       5.659  26.407  54.533  1.00  0.00    -0.305 N 
HETATM    3  O   UNL     1       7.626  26.939  53.402  1.00  0.00    -0.267 OA
HETATM    4  H   UNL     1       5.120  25.626  54.900  1.00  0.00     0.170 HD
ENDROOT
BRANCH   2   5
HETATM    5  C   UNL     1       5.110  27.660  54.708  1.00  0.00     0.163 A 
HETATM    6  N   UNL     1       4.099  28.160  53.997  1.00  0.00    -0.155 NA
HETATM    7  N   UNL     1       3.920  29.393  54.480  1.00  0.00    -0.275 N 
HETATM    8  H   UNL     1       3.189  29.964  54.068  1.00  0.00     0.189 HD
HETATM    9  C   UNL     1       4.771  29.727  55.498  1.00  0.00     0.064 A 
HETATM   10  C   UNL     1       5.571  28.604  55.678  1.00  0.00     0.042 A 
HETATM   11  C   UNL     1       4.895  30.895  56.256  1.00  0.00     0.034 A 
HETATM   12  C   UNL     1       6.562  28.624  56.680  1.00  0.00     0.053 A 
HETATM   13  C   UNL     1       6.694  29.786  57.462  1.00  0.00     0.103 A 
HETATM   14  C   UNL     1       5.877  30.907  57.252  1.00  0.00     0.038 A 
BRANCH  13  15
HETATM   15  N   UNL     1       7.705  29.822  58.528  1.00  0.00    -0.116 N 
HETATM   16  O   UNL     1       8.587  28.952  58.516  1.00  0.00    -0.532 OA
HETATM   17  O   UNL     1       7.618  30.722  59.376  1.00  0.00    -0.532 OA
ENDBRANCH  13  15
ENDBRANCH   2   5
BRANCH   1  18
HETATM   18  C   UNL     1       7.245  24.685  53.985  1.00  0.00     0.098 C 
HETATM   19  C   UNL     1       7.621  24.080  52.845  1.00  0.00     0.109 C 
HETATM   20  N   UNL     1       8.003  22.767  52.731  1.00  0.00    -0.364 N 
HETATM   21  C   UNL     1       8.165  21.972  53.873  1.00  0.00     0.046 A 
HETATM   22  H   UNL     1       8.435  22.470  51.863  1.00  0.00     0.165 HD
HETATM   23  C   UNL     1       7.783  22.467  55.131  1.00  0.00     0.042 A 
HETATM   24  C   UNL     1       8.639  20.662  53.778  1.00  0.00     0.030 A 
HETATM   25  C   UNL     1       7.906  21.679  56.280  1.00  0.00     0.018 A 
HETATM   26  C   UNL     1       7.254  23.854  55.222  1.00  0.00     0.201 C 
HETATM   27  C   UNL     1       8.404  20.381  56.173  1.00  0.00     0.001 A 
HETATM   28  C   UNL     1       8.766  19.873  54.925  1.00  0.00     0.002 A 
HETATM   29  O   UNL     1       6.842  24.303  56.291  1.00  0.00    -0.286 OA
ENDBRANCH   1  18
TORSDOF 3
ENDMDL
MODEL 8
REMARK VINA RESULT:      -9.5      4.646      7.755
REMARK  3 active torsions:
REMARK  status: ('A' for Active; 'I' for Inactive)
REMARK    1  A    between atoms: C_7  and  C_8 
REMARK       I    between atoms: C_8  and  N_9 
REMARK    2  A    between atoms: N_9  and  C_10 
REMARK    3  A    between atoms: C_18  and  N_19 
ROOT
HETATM    1  C   UNL     1       6.649  26.945  53.531  1.00  0.00     0.262 C 
HETATM    2  N   UNL     1       6.113  25.855  54.177  1.00  0.00    -0.305 N 
HETATM    3  O   UNL     1       7.621  27.607  53.882  1.00  0.00    -0.267 OA
HETATM    4  H   UNL     1       5.271  25.434  53.790  1.00  0.00     0.170 HD
ENDROOT
BRANCH   2   5
HETATM    5  C   UNL     1       6.633  25.247  55.301  1.00  0.00     0.163 A 
HETATM    6  N   UNL     1       6.661  25.784  56.521  1.00  0.00    -0.155 NA
HETATM    7  N   UNL     1       7.272  24.871  57.282  1.00  0.00    -0.275 N 
HETATM    8  H   UNL     1       7.406  25.084  58.264  1.00  0.00     0.189 HD
HETATM    9  C   UNL     1       7.643  23.737  56.610  1.00  0.00     0.064 A 
HETATM   10  C   UNL     1       7.235  23.950  55.298  1.00  0.00     0.042 A 
HETATM   11  C   UNL     1       8.285  22.574  57.043  1.00  0.00     0.034 A 
HETATM   12  C   UNL     1       7.466  22.942  54.339  1.00  0.00     0.053 A 
HETATM   13  C   UNL     1       8.100  21.758  54.758  1.00  0.00     0.103 A 
HETATM   14  C   UNL     1       8.508  21.576  56.088  1.00  0.00     0.038 A 
BRANCH  13  15
HETATM   15  N   UNL     1       8.332  20.684  53.782  1.00  0.00    -0.116 N 
HETATM   16  O   UNL     1       8.786  19.611  54.203  1.00  0.00    -0.532 OA
HETATM   17  O   UNL     1       8.057  20.913  52.596  1.00  0.00    -0.532 OA
ENDBRANCH  13  15
ENDBRANCH   2   5
BRANCH   1  18
HETATM   18  C   UNL     1       5.913  27.319  52.281  1.00  0.00     0.098 C 
HETATM   19  C   UNL     1       5.781  28.620  51.972  1.00  0.00     0.109 C 
HETATM   20  N   UNL     1       5.149  29.113  50.859  1.00  0.00    -0.364 N 
HETATM   21  C   UNL     1       4.698  28.246  49.855  1.00  0.00     0.046 A 
HETATM   22  H   UNL     1       5.266  30.096  50.639  1.00  0.00     0.165 HD
HETATM   23  C   UNL     1       4.747  26.856  50.056  1.00  0.00     0.042 A 
HETATM   24  C   UNL     1       4.133  28.739  48.677  1.00  0.00     0.030 A 
HETATM   25  C   UNL     1       4.273  25.973  49.081  1.00  0.00     0.018 A 
HETATM   26  C   UNL     1       5.324  26.338  51.324  1.00  0.00     0.201 C 
HETATM   27  C   UNL     1       3.734  26.479  47.899  1.00  0.00     0.001 A 
HETATM   28  C   UNL     1       3.661  27.858  47.699  1.00  0.00     0.002 A 
HETATM   29  O   UNL     1       5.323  25.133  51.572  1.00  0.00    -0.286 OA
ENDBRANCH   1  18
TORSDOF 3
ENDMDL
MODEL 9
REMARK VINA RESULT:      -9.1      3.385      4.665
REMARK  3 active torsions:
REMARK  status: ('A' for Active; 'I' for Inactive)
REMARK    1  A    between atoms: C_7  and  C_8 
REMARK       I    between atoms: C_8  and  N_9 
REMARK    2  A    between atoms: N_9  and  C_10 
REMARK    3  A    between atoms: C_18  and  N_19 
ROOT
HETATM    1  C   UNL     1       6.842  26.360  54.686  1.00  0.00     0.262 C 
HETATM    2  N   UNL     1       5.705  26.488  55.451  1.00  0.00    -0.305 N 
HETATM    3  O   UNL     1       7.554  27.267  54.265  1.00  0.00    -0.267 OA
HETATM    4  H   UNL     1       5.189  25.644  55.687  1.00  0.00     0.170 HD
ENDROOT
BRANCH   2   5
HETATM    5  C   UNL     1       5.207  27.668  55.964  1.00  0.00     0.163 A 
HETATM    6  N   UNL     1       5.276  28.037  57.243  1.00  0.00    -0.155 NA
HETATM    7  N   UNL     1       4.650  29.217  57.292  1.00  0.00    -0.275 N 
HETATM    8  H   UNL     1       4.581  29.682  58.191  1.00  0.00     0.189 HD
HETATM    9  C   UNL     1       4.176  29.652  56.084  1.00  0.00     0.064 A 
HETATM   10  C   UNL     1       4.528  28.653  55.182  1.00  0.00     0.042 A 
HETATM   11  C   UNL     1       3.487  30.813  55.723  1.00  0.00     0.034 A 
HETATM   12  C   UNL     1       4.185  28.808  53.823  1.00  0.00     0.053 A 
HETATM   13  C   UNL     1       3.502  29.977  53.438  1.00  0.00     0.103 A 
HETATM   14  C   UNL     1       3.154  30.963  54.373  1.00  0.00     0.038 A 
BRANCH  13  15
HETATM   15  N   UNL     1       3.155  30.171  52.024  1.00  0.00    -0.116 N 
HETATM   16  O   UNL     1       3.339  29.221  51.249  1.00  0.00    -0.532 OA
HETATM   17  O   UNL     1       2.695  31.271  51.688  1.00  0.00    -0.532 OA
ENDBRANCH  13  15
ENDBRANCH   2   5
BRANCH   1  18
HETATM   18  C   UNL     1       7.183  24.939  54.358  1.00  0.00     0.098 C 
HETATM   19  C   UNL     1       7.493  24.625  53.089  1.00  0.00     0.109 C 
HETATM   20  N   UNL     1       7.840  23.375  52.641  1.00  0.00    -0.364 N 
HETATM   21  C   UNL     1       8.034  22.324  53.547  1.00  0.00     0.046 A 
HETATM   22  H   UNL     1       8.225  23.292  51.707  1.00  0.00     0.165 HD
HETATM   23  C   UNL     1       7.720  22.502  54.905  1.00  0.00     0.042 A 
HETATM   24  C   UNL     1       8.472  21.071  53.113  1.00  0.00     0.030 A 
HETATM   25  C   UNL     1       7.876  21.457  55.821  1.00  0.00     0.018 A 
HETATM   26  C   UNL     1       7.227  23.831  55.355  1.00  0.00     0.201 C 
HETATM   27  C   UNL     1       8.337  20.218  55.378  1.00  0.00     0.001 A 
HETATM   28  C   UNL     1       8.632  20.025  54.027  1.00  0.00     0.002 A 
HETATM   29  O   UNL     1       6.874  24.012  56.519  1.00  0.00    -0.286 OA
ENDBRANCH   1  18
TORSDOF 3
ENDMDL
MODEL 10
REMARK VINA RESULT:      -8.9      3.454      5.437
REMARK  3 active torsions:
REMARK  status: ('A' for Active; 'I' for Inactive)
REMARK    1  A    between atoms: C_7  and  C_8 
REMARK       I    between atoms: C_8  and  N_9 
REMARK    2  A    between atoms: N_9  and  C_10 
REMARK    3  A    between atoms: C_18  and  N_19 
ROOT
HETATM    1  C   UNL     1       8.935  29.571  57.910  1.00  0.00     0.262 C 
HETATM    2  N   UNL     1       8.026  29.811  58.916  1.00  0.00    -0.305 N 
HETATM    3  O   UNL     1      10.079  30.009  57.829  1.00  0.00    -0.267 OA
HETATM    4  H   UNL     1       7.094  29.415  58.823  1.00  0.00     0.170 HD
ENDROOT
BRANCH   2   5
HETATM    5  C   UNL     1       8.272  30.520  60.073  1.00  0.00     0.163 A 
HETATM    6  N   UNL     1       9.304  30.316  60.893  1.00  0.00    -0.155 NA
HETATM    7  N   UNL     1       9.130  31.196  61.884  1.00  0.00    -0.275 N 
HETATM    8  H   UNL     1       9.813  31.207  62.634  1.00  0.00     0.189 HD
HETATM    9  C   UNL     1       8.023  31.988  61.745  1.00  0.00     0.064 A 
HETATM   10  C   UNL     1       7.432  31.570  60.557  1.00  0.00     0.042 A 
HETATM   11  C   UNL     1       7.510  33.011  62.548  1.00  0.00     0.034 A 
HETATM   12  C   UNL     1       6.254  32.210  60.118  1.00  0.00     0.053 A 
HETATM   13  C   UNL     1       5.730  33.251  60.906  1.00  0.00     0.103 A 
HETATM   14  C   UNL     1       6.344  33.645  62.105  1.00  0.00     0.038 A 
BRANCH  13  15
HETATM   15  N   UNL     1       4.516  33.948  60.458  1.00  0.00    -0.116 N 
HETATM   16  O   UNL     1       3.675  33.292  59.827  1.00  0.00    -0.532 OA
HETATM   17  O   UNL     1       4.403  35.149  60.739  1.00  0.00    -0.532 OA
ENDBRANCH  13  15
ENDBRANCH   2   5
BRANCH   1  18
HETATM   18  C   UNL     1       8.404  28.686  56.825  1.00  0.00     0.098 C 
HETATM   19  C   UNL     1       8.370  29.155  55.566  1.00  0.00     0.109 C 
HETATM   20  N   UNL     1       7.927  28.459  54.470  1.00  0.00    -0.364 N 
HETATM   21  C   UNL     1       7.592  27.104  54.576  1.00  0.00     0.046 A 
HETATM   22  H   UNL     1       8.114  28.846  53.551  1.00  0.00     0.165 HD
HETATM   23  C   UNL     1       7.556  26.488  55.839  1.00  0.00     0.042 A 
HETATM   24  C   UNL     1       7.225  26.362  53.451  1.00  0.00     0.030 A 
HETATM   25  C   UNL     1       7.194  25.143  55.971  1.00  0.00     0.018 A 
HETATM   26  C   UNL     1       7.922  27.291  57.035  1.00  0.00     0.201 C 
HETATM   27  C   UNL     1       6.853  24.408  54.837  1.00  0.00     0.001 A 
HETATM   28  C   UNL     1       6.865  25.016  53.580  1.00  0.00     0.002 A 
HETATM   29  O   UNL     1       7.837  26.814  58.166  1.00  0.00    -0.286 OA
ENDBRANCH   1  18
TORSDOF 3
ENDMDL
