MODEL 1
REMARK VINA RESULT:     -10.5      0.000      0.000
REMARK  8 active torsions:
REMARK  status: ('A' for Active; 'I' for Inactive)
REMARK    1  A    between atoms: C_6  and  N_7 
REMARK       I    between atoms: N_7  and  C_8 
REMARK    2  A    between atoms: C_8  and  C_9 
REMARK    3  A    between atoms: C_9  and  S_10 
REMARK    4  A    between atoms: S_10  and  C_11 
REMARK    5  A    between atoms: N_12  and  C_13 
REMARK    6  A    between atoms: C_13  and  C_14 
REMARK    7  A    between atoms: C_25  and  C_26 
REMARK       I    between atoms: C_26  and  N_27 
REMARK    8  A    between atoms: C_30  and  C_31 
REMARK       I    between atoms: C_31  and  N_32 
ROOT
HETATM    1  C   UNL     1       4.540  29.512  55.682  1.00  0.00     0.172 C 
HETATM    2  N   UNL     1       3.584  30.385  56.162  1.00  0.00    -0.286 N 
HETATM    3  C   UNL     1       2.973  31.293  55.302  1.00  0.00     0.262 C 
HETATM    4  O   UNL     1       2.212  32.186  55.666  1.00  0.00    -0.267 OA
HETATM    5  C   UNL     1       3.265  31.141  53.868  1.00  0.00     0.061 A 
HETATM    6  C   UNL     1       4.197  30.172  53.496  1.00  0.00     0.076 A 
HETATM    7  C   UNL     1       2.592  31.915  52.914  1.00  0.00     0.020 A 
HETATM    8  C   UNL     1       2.832  31.694  51.559  1.00  0.00     0.018 A 
HETATM    9  C   UNL     1       3.729  30.692  51.178  1.00  0.00     0.034 A 
HETATM   10  C   UNL     1       4.432  29.953  52.138  1.00  0.00     0.050 A 
HETATM   11  N   UNL     1       4.887  29.401  54.440  1.00  0.00    -0.224 NA
ENDROOT
BRANCH   1  12
HETATM   12  S   UNL     1       5.428  28.496  56.793  1.00  0.00    -0.082 SA
BRANCH  12  13
HETATM   13  C   UNL     1       6.704  27.915  55.643  1.00  0.00     0.185 C 
BRANCH  13  14
HETATM   14  C   UNL     1       6.494  26.494  55.143  1.00  0.00     0.231 C 
HETATM   15  N   UNL     1       7.647  25.769  54.910  1.00  0.00    -0.326 N 
HETATM   16  H   UNL     1       8.525  26.280  54.981  1.00  0.00     0.169 HD
HETATM   17  O   UNL     1       5.346  26.062  55.050  1.00  0.00    -0.272 OA
BRANCH  15  18
HETATM   18  C   UNL     1       7.742  24.419  54.504  1.00  0.00     0.036 A 
HETATM   19  C   UNL     1       7.692  23.332  55.379  1.00  0.00     0.053 A 
HETATM   20  C   UNL     1       7.794  22.022  54.895  1.00  0.00     0.042 A 
HETATM   21  C   UNL     1       7.929  21.769  53.522  1.00  0.00    -0.040 A 
HETATM   22 CL   UNL     1       7.759  20.733  56.049  1.00  0.00    -0.084 Cl
HETATM   23  C   UNL     1       8.059  20.379  52.969  1.00  0.00     0.050 C 
HETATM   24  C   UNL     1       8.000  22.865  52.651  1.00  0.00     0.011 A 
HETATM   25  C   UNL     1       7.908  24.173  53.138  1.00  0.00     0.030 A 
ENDBRANCH  15  18
ENDBRANCH  13  14
ENDBRANCH  12  13
ENDBRANCH   1  12
BRANCH   2  26
HETATM   26  C   UNL     1       3.107  30.416  57.547  1.00  0.00     0.199 C 
BRANCH  26  27
HETATM   27  C   UNL     1       3.810  31.509  58.276  1.00  0.00     0.070 A 
HETATM   28  O   UNL     1       3.105  32.162  59.243  1.00  0.00    -0.325 OA
HETATM   29  C   UNL     1       3.922  33.122  59.748  1.00  0.00     0.142 A 
HETATM   30  C   UNL     1       5.145  33.094  59.121  1.00  0.00     0.027 A 
HETATM   31  C   UNL     1       5.076  32.050  58.168  1.00  0.00     0.036 A 
ENDBRANCH  26  27
ENDBRANCH   2  26
BRANCH   9  32
HETATM   32  C   UNL     1       3.956  30.454  49.739  1.00  0.00     0.253 C 
HETATM   33  N   UNL     1       4.164  29.143  49.299  1.00  0.00    -0.348 N 
HETATM   34  C   UNL     1       4.327  28.953  47.859  1.00  0.00     0.127 C 
HETATM   35  C   UNL     1       3.683  27.969  50.027  1.00  0.00     0.127 C 
HETATM   36  C   UNL     1       5.202  27.741  47.544  1.00  0.00     0.034 C 
HETATM   37  C   UNL     1       4.762  26.474  48.287  1.00  0.00     0.081 C 
HETATM   38  C   UNL     1       4.582  26.761  49.782  1.00  0.00     0.034 C 
HETATM   39  O   UNL     1       3.959  31.439  49.007  1.00  0.00    -0.267 OA
BRANCH  37  40
HETATM   40  C   UNL     1       3.507  25.861  47.679  1.00  0.00     0.219 C 
HETATM   41  N   UNL     1       2.898  24.910  48.447  1.00  0.00    -0.370 N 
HETATM   42  H   UNL     1       3.372  24.454  49.214  1.00  0.00     0.159 HD
HETATM   43  H   UNL     1       2.112  24.429  48.026  1.00  0.00     0.159 HD
HETATM   44  O   UNL     1       3.039  26.168  46.590  1.00  0.00    -0.273 OA
ENDBRANCH  37  40
ENDBRANCH   9  32
TORSDOF 8
ENDMDL
MODEL 2
REMARK VINA RESULT:     -10.4      1.930      2.160
REMARK  8 active torsions:
REMARK  status: ('A' for Active; 'I' for Inactive)
REMARK    1  A    between atoms: C_6  and  N_7 
REMARK       I    between atoms: N_7  and  C_8 
REMARK    2  A    between atoms: C_8  and  C_9 
REMARK    3  A    between atoms: C_9  and  S_10 
REMARK    4  A    between atoms: S_10  and  C_11 
REMARK    5  A    between atoms: N_12  and  C_13 
REMARK    6  A    between atoms: C_13  and  C_14 
REMARK    7  A    between atoms: C_25  and  C_26 
REMARK       I    between atoms: C_26  and  N_27 
REMARK    8  A    between atoms: C_30  and  C_31 
REMARK       I    between atoms: C_31  and  N_32 
ROOT
HETATM    1  C   UNL     1       4.668  28.346  55.554  1.00  0.00     0.172 C 
HETATM    2  N   UNL     1       4.188  29.606  55.849  1.00  0.00    -0.286 N 
HETATM    3  C   UNL     1       4.075  30.563  54.844  1.00  0.00     0.262 C 
HETATM    4  O   UNL     1       3.781  31.740  55.040  1.00  0.00    -0.267 OA
HETATM    5  C   UNL     1       4.316  30.103  53.467  1.00  0.00     0.061 A 
HETATM    6  C   UNL     1       4.728  28.783  53.287  1.00  0.00     0.076 A 
HETATM    7  C   UNL     1       4.091  30.955  52.378  1.00  0.00     0.020 A 
HETATM    8  C   UNL     1       4.252  30.469  51.083  1.00  0.00     0.018 A 
HETATM    9  C   UNL     1       4.618  29.133  50.894  1.00  0.00     0.034 A 
HETATM   10  C   UNL     1       4.885  28.299  51.988  1.00  0.00     0.050 A 
HETATM   11  N   UNL     1       4.969  27.924  54.368  1.00  0.00    -0.224 NA
ENDROOT
BRANCH   1  12
HETATM   12  S   UNL     1       4.971  27.206  56.844  1.00  0.00    -0.082 SA
BRANCH  12  13
HETATM   13  C   UNL     1       6.784  27.247  56.800  1.00  0.00     0.185 C 
BRANCH  13  14
HETATM   14  C   UNL     1       7.430  25.923  56.420  1.00  0.00     0.231 C 
HETATM   15  N   UNL     1       6.790  25.214  55.422  1.00  0.00    -0.326 N 
HETATM   16  H   UNL     1       5.890  25.579  55.113  1.00  0.00     0.169 HD
HETATM   17  O   UNL     1       8.492  25.607  56.954  1.00  0.00    -0.272 OA
BRANCH  15  18
HETATM   18  C   UNL     1       7.201  23.995  54.838  1.00  0.00     0.036 A 
HETATM   19  C   UNL     1       7.406  22.814  55.553  1.00  0.00     0.053 A 
HETATM   20  C   UNL     1       7.815  21.645  54.899  1.00  0.00     0.042 A 
HETATM   21  C   UNL     1       8.009  21.628  53.510  1.00  0.00    -0.040 A 
HETATM   22 CL   UNL     1       8.082  20.234  55.863  1.00  0.00    -0.084 Cl
HETATM   23  C   UNL     1       8.464  20.398  52.776  1.00  0.00     0.050 C 
HETATM   24  C   UNL     1       7.821  22.822  52.800  1.00  0.00     0.011 A 
HETATM   25  C   UNL     1       7.423  23.991  53.458  1.00  0.00     0.030 A 
ENDBRANCH  15  18
ENDBRANCH  13  14
ENDBRANCH  12  13
ENDBRANCH   1  12
BRANCH   2  26
HETATM   26  C   UNL     1       3.729  30.032  57.174  1.00  0.00     0.199 C 
BRANCH  26  27
HETATM   27  C   UNL     1       4.781  30.882  57.799  1.00  0.00     0.070 A 
HETATM   28  O   UNL     1       6.067  30.436  57.719  1.00  0.00    -0.325 OA
HETATM   29  C   UNL     1       6.841  31.343  58.370  1.00  0.00     0.142 A 
HETATM   30  C   UNL     1       6.071  32.367  58.867  1.00  0.00     0.027 A 
HETATM   31  C   UNL     1       4.737  32.072  58.497  1.00  0.00     0.036 A 
ENDBRANCH  26  27
ENDBRANCH   2  26
BRANCH   9  32
HETATM   32  C   UNL     1       4.762  28.626  49.516  1.00  0.00     0.253 C 
HETATM   33  N   UNL     1       3.622  28.183  48.840  1.00  0.00    -0.348 N 
HETATM   34  C   UNL     1       3.807  27.743  47.458  1.00  0.00     0.127 C 
HETATM   35  C   UNL     1       2.270  28.638  49.167  1.00  0.00     0.127 C 
HETATM   36  C   UNL     1       2.781  26.683  47.060  1.00  0.00     0.034 C 
HETATM   37  C   UNL     1       1.340  27.089  47.388  1.00  0.00     0.081 C 
HETATM   38  C   UNL     1       1.232  27.568  48.841  1.00  0.00     0.034 C 
HETATM   39  O   UNL     1       5.895  28.613  49.044  1.00  0.00    -0.267 OA
BRANCH  37  40
HETATM   40  C   UNL     1       0.802  28.131  46.415  1.00  0.00     0.219 C 
HETATM   41  N   UNL     1       0.089  27.628  45.365  1.00  0.00    -0.370 N 
HETATM   42  H   UNL     1       0.139  26.654  45.099  1.00  0.00     0.159 HD
HETATM   43  H   UNL     1      -0.204  28.294  44.661  1.00  0.00     0.159 HD
HETATM   44  O   UNL     1       0.969  29.339  46.526  1.00  0.00    -0.273 OA
ENDBRANCH  37  40
ENDBRANCH   9  32
TORSDOF 8
ENDMDL
MODEL 3
REMARK VINA RESULT:     -10.2      5.272      9.544
REMARK  8 active torsions:
REMARK  status: ('A' for Active; 'I' for Inactive)
REMARK    1  A    between atoms: C_6  and  N_7 
REMARK       I    between atoms: N_7  and  C_8 
REMARK    2  A    between atoms: C_8  and  C_9 
REMARK    3  A    between atoms: C_9  and  S_10 
REMARK    4  A    between atoms: S_10  and  C_11 
REMARK    5  A    between atoms: N_12  and  C_13 
REMARK    6  A    between atoms: C_13  and  C_14 
REMARK    7  A    between atoms: C_25  and  C_26 
REMARK       I    between atoms: C_26  and  N_27 
REMARK    8  A    between atoms: C_30  and  C_31 
REMARK       I    between atoms: C_31  and  N_32 
ROOT
HETATM    1  C   UNL     1       4.764  33.382  62.137  1.00  0.00     0.172 C 
HETATM    2  N   UNL     1       5.350  33.550  63.376  1.00  0.00    -0.286 N 
HETATM    3  C   UNL     1       6.644  33.091  63.604  1.00  0.00     0.262 C 
HETATM    4  O   UNL     1       7.191  33.083  64.705  1.00  0.00    -0.267 OA
HETATM    5  C   UNL     1       7.386  32.602  62.432  1.00  0.00     0.061 A 
HETATM    6  C   UNL     1       6.709  32.546  61.214  1.00  0.00     0.076 A 
HETATM    7  C   UNL     1       8.738  32.251  62.535  1.00  0.00     0.020 A 
HETATM    8  C   UNL     1       9.436  31.866  61.392  1.00  0.00     0.018 A 
HETATM    9  C   UNL     1       8.776  31.854  60.160  1.00  0.00     0.034 A 
HETATM   10  C   UNL     1       7.412  32.163  60.071  1.00  0.00     0.050 A 
HETATM   11  N   UNL     1       5.353  32.882  61.099  1.00  0.00    -0.224 NA
ENDROOT
BRANCH   1  12
HETATM   12  S   UNL     1       3.083  33.801  61.905  1.00  0.00    -0.082 SA
BRANCH  12  13
HETATM   13  C   UNL     1       3.297  34.952  60.518  1.00  0.00     0.185 C 
BRANCH  13  14
HETATM   14  C   UNL     1       2.986  34.353  59.156  1.00  0.00     0.231 C 
HETATM   15  N   UNL     1       3.959  33.523  58.634  1.00  0.00    -0.326 N 
HETATM   16  H   UNL     1       4.837  33.477  59.148  1.00  0.00     0.169 HD
HETATM   17  O   UNL     1       1.887  34.576  58.647  1.00  0.00    -0.272 OA
BRANCH  15  18
HETATM   18  C   UNL     1       3.905  32.793  57.426  1.00  0.00     0.036 A 
HETATM   19  C   UNL     1       4.232  33.323  56.176  1.00  0.00     0.053 A 
HETATM   20  C   UNL     1       4.152  32.532  55.023  1.00  0.00     0.042 A 
HETATM   21  C   UNL     1       3.762  31.186  55.098  1.00  0.00    -0.040 A 
HETATM   22 CL   UNL     1       4.539  33.274  53.509  1.00  0.00    -0.084 Cl
HETATM   23  C   UNL     1       3.649  30.312  53.882  1.00  0.00     0.050 C 
HETATM   24  C   UNL     1       3.416  30.666  56.352  1.00  0.00     0.011 A 
HETATM   25  C   UNL     1       3.486  31.462  57.501  1.00  0.00     0.030 A 
ENDBRANCH  15  18
ENDBRANCH  13  14
ENDBRANCH  12  13
ENDBRANCH   1  12
BRANCH   2  26
HETATM   26  C   UNL     1       4.718  34.233  64.508  1.00  0.00     0.199 C 
BRANCH  26  27
HETATM   27  C   UNL     1       5.007  35.691  64.414  1.00  0.00     0.070 A 
HETATM   28  O   UNL     1       5.502  36.151  63.230  1.00  0.00    -0.325 OA
HETATM   29  C   UNL     1       5.714  37.484  63.380  1.00  0.00     0.142 A 
HETATM   30  C   UNL     1       5.361  37.890  64.644  1.00  0.00     0.027 A 
HETATM   31  C   UNL     1       4.902  36.732  65.316  1.00  0.00     0.036 A 
ENDBRANCH  26  27
ENDBRANCH   2  26
BRANCH   9  32
HETATM   32  C   UNL     1       9.534  31.467  58.954  1.00  0.00     0.253 C 
HETATM   33  N   UNL     1       9.092  30.371  58.206  1.00  0.00    -0.348 N 
HETATM   34  C   UNL     1       9.842  30.062  56.990  1.00  0.00     0.127 C 
HETATM   35  C   UNL     1       7.705  29.904  58.211  1.00  0.00     0.127 C 
HETATM   36  C   UNL     1       9.784  28.574  56.652  1.00  0.00     0.034 C 
HETATM   37  C   UNL     1       8.357  28.013  56.654  1.00  0.00     0.081 C 
HETATM   38  C   UNL     1       7.626  28.405  57.944  1.00  0.00     0.034 C 
HETATM   39  O   UNL     1      10.527  32.135  58.684  1.00  0.00    -0.267 OA
BRANCH  37  40
HETATM   40  C   UNL     1       7.574  28.435  55.417  1.00  0.00     0.219 C 
HETATM   41  N   UNL     1       8.319  28.575  54.282  1.00  0.00    -0.370 N 
HETATM   42  H   UNL     1       9.326  28.662  54.306  1.00  0.00     0.159 HD
HETATM   43  H   UNL     1       7.835  28.937  53.469  1.00  0.00     0.159 HD
HETATM   44  O   UNL     1       6.368  28.640  55.394  1.00  0.00    -0.273 OA
ENDBRANCH  37  40
ENDBRANCH   9  32
TORSDOF 8
ENDMDL
MODEL 4
REMARK VINA RESULT:     -10.2      2.781      8.530
REMARK  8 active torsions:
REMARK  status: ('A' for Active; 'I' for Inactive)
REMARK    1  A    between atoms: C_6  and  N_7 
REMARK       I    between atoms: N_7  and  C_8 
REMARK    2  A    between atoms: C_8  and  C_9 
REMARK    3  A    between atoms: C_9  and  S_10 
REMARK    4  A    between atoms: S_10  and  C_11 
REMARK    5  A    between atoms: N_12  and  C_13 
REMARK    6  A    between atoms: C_13  and  C_14 
REMARK    7  A    between atoms: C_25  and  C_26 
REMARK       I    between atoms: C_26  and  N_27 
REMARK    8  A    between atoms: C_30  and  C_31 
REMARK       I    between atoms: C_31  and  N_32 
ROOT
HETATM    1  C   UNL     1       4.664  28.723  54.269  1.00  0.00     0.172 C 
HETATM    2  N   UNL     1       3.888  29.706  53.688  1.00  0.00    -0.286 N 
HETATM    3  C   UNL     1       3.663  30.905  54.359  1.00  0.00     0.262 C 
HETATM    4  O   UNL     1       2.886  31.776  53.976  1.00  0.00    -0.267 OA
HETATM    5  C   UNL     1       4.428  31.121  55.597  1.00  0.00     0.061 A 
HETATM    6  C   UNL     1       5.238  30.079  56.048  1.00  0.00     0.076 A 
HETATM    7  C   UNL     1       4.376  32.350  56.266  1.00  0.00     0.020 A 
HETATM    8  C   UNL     1       5.172  32.553  57.391  1.00  0.00     0.018 A 
HETATM    9  C   UNL     1       6.021  31.530  57.821  1.00  0.00     0.034 A 
HETATM   10  C   UNL     1       6.036  30.287  57.174  1.00  0.00     0.050 A 
HETATM   11  N   UNL     1       5.290  28.840  55.396  1.00  0.00    -0.224 NA
ENDROOT
BRANCH   1  12
HETATM   12  S   UNL     1       4.801  27.157  53.505  1.00  0.00    -0.082 SA
BRANCH  12  13
HETATM   13  C   UNL     1       6.559  27.243  53.062  1.00  0.00     0.185 C 
BRANCH  13  14
HETATM   14  C   UNL     1       7.300  25.921  53.189  1.00  0.00     0.231 C 
HETATM   15  N   UNL     1       6.879  25.099  54.217  1.00  0.00    -0.326 N 
HETATM   16  H   UNL     1       6.198  25.495  54.863  1.00  0.00     0.169 HD
HETATM   17  O   UNL     1       8.153  25.636  52.349  1.00  0.00    -0.272 OA
BRANCH  15  18
HETATM   18  C   UNL     1       7.347  23.802  54.523  1.00  0.00     0.036 A 
HETATM   19  C   UNL     1       7.579  22.808  53.571  1.00  0.00     0.053 A 
HETATM   20  C   UNL     1       8.044  21.544  53.956  1.00  0.00     0.042 A 
HETATM   21  C   UNL     1       8.307  21.254  55.303  1.00  0.00    -0.040 A 
HETATM   22 CL   UNL     1       8.272  20.357  52.718  1.00  0.00    -0.084 Cl
HETATM   23  C   UNL     1       8.790  19.906  55.756  1.00  0.00     0.050 C 
HETATM   24  C   UNL     1       8.053  22.249  56.257  1.00  0.00     0.011 A 
HETATM   25  C   UNL     1       7.578  23.507  55.870  1.00  0.00     0.030 A 
ENDBRANCH  15  18
ENDBRANCH  13  14
ENDBRANCH  12  13
ENDBRANCH   1  12
BRANCH   2  26
HETATM   26  C   UNL     1       3.288  29.611  52.355  1.00  0.00     0.199 C 
BRANCH  26  27
HETATM   27  C   UNL     1       4.276  30.086  51.346  1.00  0.00     0.070 A 
HETATM   28  O   UNL     1       4.869  29.139  50.565  1.00  0.00    -0.325 OA
HETATM   29  C   UNL     1       5.740  29.787  49.750  1.00  0.00     0.142 A 
HETATM   30  C   UNL     1       5.715  31.140  49.993  1.00  0.00     0.027 A 
HETATM   31  C   UNL     1       4.767  31.336  51.025  1.00  0.00     0.036 A 
ENDBRANCH  26  27
ENDBRANCH   2  26
BRANCH   9  32
HETATM   32  C   UNL     1       6.876  31.767  59.001  1.00  0.00     0.253 C 
HETATM   33  N   UNL     1       6.308  32.357  60.135  1.00  0.00    -0.348 N 
HETATM   34  C   UNL     1       7.181  32.518  61.296  1.00  0.00     0.127 C 
HETATM   35  C   UNL     1       4.879  32.293  60.440  1.00  0.00     0.127 C 
HETATM   36  C   UNL     1       6.769  33.715  62.151  1.00  0.00     0.034 C 
HETATM   37  C   UNL     1       5.275  33.720  62.498  1.00  0.00     0.081 C 
HETATM   38  C   UNL     1       4.428  33.514  61.236  1.00  0.00     0.034 C 
HETATM   39  O   UNL     1       8.054  31.435  58.909  1.00  0.00    -0.267 OA
BRANCH  37  40
HETATM   40  C   UNL     1       4.934  32.697  63.573  1.00  0.00     0.219 C 
HETATM   41  N   UNL     1       4.669  33.220  64.806  1.00  0.00    -0.370 N 
HETATM   42  H   UNL     1       4.937  34.161  65.059  1.00  0.00     0.159 HD
HETATM   43  H   UNL     1       4.524  32.555  65.555  1.00  0.00     0.159 HD
HETATM   44  O   UNL     1       4.885  31.487  63.393  1.00  0.00    -0.273 OA
ENDBRANCH  37  40
ENDBRANCH   9  32
TORSDOF 8
ENDMDL
MODEL 5
REMARK VINA RESULT:     -10.2      3.780      7.621
REMARK  8 active torsions:
REMARK  status: ('A' for Active; 'I' for Inactive)
REMARK    1  A    between atoms: C_6  and  N_7 
REMARK       I    between atoms: N_7  and  C_8 
REMARK    2  A    between atoms: C_8  and  C_9 
REMARK    3  A    between atoms: C_9  and  S_10 
REMARK    4  A    between atoms: S_10  and  C_11 
REMARK    5  A    between atoms: N_12  and  C_13 
REMARK    6  A    between atoms: C_13  and  C_14 
REMARK    7  A    between atoms: C_25  and  C_26 
REMARK       I    between atoms: C_26  and  N_27 
REMARK    8  A    between atoms: C_30  and  C_31 
REMARK       I    between atoms: C_31  and  N_32 
ROOT
HETATM    1  C   UNL     1       5.566  28.334  56.159  1.00  0.00     0.172 C 
HETATM    2  N   UNL     1       6.646  27.521  56.436  1.00  0.00    -0.286 N 
HETATM    3  C   UNL     1       7.080  26.592  55.495  1.00  0.00     0.262 C 
HETATM    4  O   UNL     1       7.945  25.745  55.706  1.00  0.00    -0.267 OA
HETATM    5  C   UNL     1       6.453  26.659  54.165  1.00  0.00     0.061 A 
HETATM    6  C   UNL     1       5.417  27.575  53.983  1.00  0.00     0.076 A 
HETATM    7  C   UNL     1       6.918  25.861  53.113  1.00  0.00     0.020 A 
HETATM    8  C   UNL     1       6.358  26.003  51.845  1.00  0.00     0.018 A 
HETATM    9  C   UNL     1       5.353  26.952  51.644  1.00  0.00     0.034 A 
HETATM   10  C   UNL     1       4.860  27.716  52.711  1.00  0.00     0.050 A 
HETATM   11  N   UNL     1       4.933  28.370  55.030  1.00  0.00    -0.224 NA
ENDROOT
BRANCH   1  12
HETATM   12  S   UNL     1       4.917  29.375  57.405  1.00  0.00    -0.082 SA
BRANCH  12  13
HETATM   13  C   UNL     1       5.950  30.832  57.082  1.00  0.00     0.185 C 
BRANCH  13  14
HETATM   14  C   UNL     1       6.085  31.776  58.267  1.00  0.00     0.231 C 
HETATM   15  N   UNL     1       6.436  31.183  59.464  1.00  0.00    -0.326 N 
HETATM   16  H   UNL     1       6.460  30.165  59.474  1.00  0.00     0.169 HD
HETATM   17  O   UNL     1       5.951  32.985  58.080  1.00  0.00    -0.272 OA
BRANCH  15  18
HETATM   18  C   UNL     1       6.685  31.824  60.697  1.00  0.00     0.036 A 
HETATM   19  C   UNL     1       5.808  32.726  61.303  1.00  0.00     0.053 A 
HETATM   20  C   UNL     1       6.130  33.321  62.530  1.00  0.00     0.042 A 
HETATM   21  C   UNL     1       7.329  33.011  63.188  1.00  0.00    -0.040 A 
HETATM   22 CL   UNL     1       5.004  34.454  63.195  1.00  0.00    -0.084 Cl
HETATM   23  C   UNL     1       7.716  33.641  64.495  1.00  0.00     0.050 C 
HETATM   24  C   UNL     1       8.215  32.121  62.565  1.00  0.00     0.011 A 
HETATM   25  C   UNL     1       7.896  31.536  61.334  1.00  0.00     0.030 A 
ENDBRANCH  15  18
ENDBRANCH  13  14
ENDBRANCH  12  13
ENDBRANCH   1  12
BRANCH   2  26
HETATM   26  C   UNL     1       7.435  27.579  57.669  1.00  0.00     0.199 C 
BRANCH  26  27
HETATM   27  C   UNL     1       8.501  28.608  57.513  1.00  0.00     0.070 A 
HETATM   28  O   UNL     1       8.747  29.414  58.585  1.00  0.00    -0.325 OA
HETATM   29  C   UNL     1       9.724  30.280  58.212  1.00  0.00     0.142 A 
HETATM   30  C   UNL     1      10.112  30.043  56.915  1.00  0.00     0.027 A 
HETATM   31  C   UNL     1       9.322  28.959  56.460  1.00  0.00     0.036 A 
ENDBRANCH  26  27
ENDBRANCH   2  26
BRANCH   9  32
HETATM   32  C   UNL     1       4.784  27.108  50.291  1.00  0.00     0.253 C 
HETATM   33  N   UNL     1       4.528  28.397  49.813  1.00  0.00    -0.348 N 
HETATM   34  C   UNL     1       4.019  28.501  48.447  1.00  0.00     0.127 C 
HETATM   35  C   UNL     1       5.224  29.586  50.306  1.00  0.00     0.127 C 
HETATM   36  C   UNL     1       3.145  29.739  48.262  1.00  0.00     0.034 C 
HETATM   37  C   UNL     1       3.808  31.024  48.771  1.00  0.00     0.081 C 
HETATM   38  C   UNL     1       4.343  30.827  50.195  1.00  0.00     0.034 C 
HETATM   39  O   UNL     1       4.558  26.078  49.662  1.00  0.00    -0.267 OA
BRANCH  37  40
HETATM   40  C   UNL     1       4.897  31.519  47.828  1.00  0.00     0.219 C 
HETATM   41  N   UNL     1       5.797  32.381  48.386  1.00  0.00    -0.370 N 
HETATM   42  H   UNL     1       5.613  32.863  49.254  1.00  0.00     0.159 HD
HETATM   43  H   UNL     1       6.478  32.789  47.756  1.00  0.00     0.159 HD
HETATM   44  O   UNL     1       5.000  31.194  46.652  1.00  0.00    -0.273 OA
ENDBRANCH  37  40
ENDBRANCH   9  32
TORSDOF 8
ENDMDL
MODEL 6
REMARK VINA RESULT:     -10.0      3.695      9.125
REMARK  8 active torsions:
REMARK  status: ('A' for Active; 'I' for Inactive)
REMARK    1  A    between atoms: C_6  and  N_7 
REMARK       I    between atoms: N_7  and  C_8 
REMARK    2  A    between atoms: C_8  and  C_9 
REMARK    3  A    between atoms: C_9  and  S_10 
REMARK    4  A    between atoms: S_10  and  C_11 
REMARK    5  A    between atoms: N_12  and  C_13 
REMARK    6  A    between atoms: C_13  and  C_14 
REMARK    7  A    between atoms: C_25  and  C_26 
REMARK       I    between atoms: C_26  and  N_27 
REMARK    8  A    between atoms: C_30  and  C_31 
REMARK       I    between atoms: C_31  and  N_32 
ROOT
HETATM    1  C   UNL     1       6.638  28.416  56.382  1.00  0.00     0.172 C 
HETATM    2  N   UNL     1       7.762  28.408  55.581  1.00  0.00    -0.286 N 
HETATM    3  C   UNL     1       8.809  29.288  55.840  1.00  0.00     0.262 C 
HETATM    4  O   UNL     1       9.784  29.437  55.107  1.00  0.00    -0.267 OA
HETATM    5  C   UNL     1       8.723  30.066  57.086  1.00  0.00     0.061 A 
HETATM    6  C   UNL     1       7.566  29.935  57.853  1.00  0.00     0.076 A 
HETATM    7  C   UNL     1       9.790  30.872  57.502  1.00  0.00     0.020 A 
HETATM    8  C   UNL     1       9.712  31.535  58.725  1.00  0.00     0.018 A 
HETATM    9  C   UNL     1       8.575  31.371  59.521  1.00  0.00     0.034 A 
HETATM   10  C   UNL     1       7.493  30.599  59.078  1.00  0.00     0.050 A 
HETATM   11  N   UNL     1       6.485  29.143  57.442  1.00  0.00    -0.224 NA
ENDROOT
BRANCH   1  12
HETATM   12  S   UNL     1       5.256  27.435  55.952  1.00  0.00    -0.082 SA
BRANCH  12  13
HETATM   13  C   UNL     1       5.467  26.136  57.202  1.00  0.00     0.185 C 
BRANCH  13  14
HETATM   14  C   UNL     1       6.430  25.031  56.797  1.00  0.00     0.231 C 
HETATM   15  N   UNL     1       6.116  24.366  55.628  1.00  0.00    -0.326 N 
HETATM   16  H   UNL     1       5.217  24.593  55.206  1.00  0.00     0.169 HD
HETATM   17  O   UNL     1       7.442  24.850  57.474  1.00  0.00    -0.272 OA
BRANCH  15  18
HETATM   18  C   UNL     1       6.863  23.348  54.994  1.00  0.00     0.036 A 
HETATM   19  C   UNL     1       7.381  22.232  55.653  1.00  0.00     0.053 A 
HETATM   20  C   UNL     1       8.112  21.265  54.951  1.00  0.00     0.042 A 
HETATM   21  C   UNL     1       8.324  21.384  53.570  1.00  0.00    -0.040 A 
HETATM   22 CL   UNL     1       8.751  19.930  55.848  1.00  0.00    -0.084 Cl
HETATM   23  C   UNL     1       9.117  20.377  52.787  1.00  0.00     0.050 C 
HETATM   24  C   UNL     1       7.819  22.518  52.918  1.00  0.00     0.011 A 
HETATM   25  C   UNL     1       7.098  23.488  53.623  1.00  0.00     0.030 A 
ENDBRANCH  15  18
ENDBRANCH  13  14
ENDBRANCH  12  13
ENDBRANCH   1  12
BRANCH   2  26
HETATM   26  C   UNL     1       7.977  27.491  54.459  1.00  0.00     0.199 C 
BRANCH  26  27
HETATM   27  C   UNL     1       6.921  27.726  53.434  1.00  0.00     0.070 A 
HETATM   28  O   UNL     1       6.698  29.017  53.058  1.00  0.00    -0.325 OA
HETATM   29  C   UNL     1       5.690  28.996  52.149  1.00  0.00     0.142 A 
HETATM   30  C   UNL     1       5.261  27.708  51.932  1.00  0.00     0.027 A 
HETATM   31  C   UNL     1       6.058  26.884  52.762  1.00  0.00     0.036 A 
ENDBRANCH  26  27
ENDBRANCH   2  26
BRANCH   9  32
HETATM   32  C   UNL     1       8.516  32.061  60.824  1.00  0.00     0.253 C 
HETATM   33  N   UNL     1       7.327  32.694  61.196  1.00  0.00    -0.348 N 
HETATM   34  C   UNL     1       7.300  33.315  62.519  1.00  0.00     0.127 C 
HETATM   35  C   UNL     1       6.017  32.313  60.666  1.00  0.00     0.127 C 
HETATM   36  C   UNL     1       6.343  34.505  62.566  1.00  0.00     0.034 C 
HETATM   37  C   UNL     1       4.952  34.180  62.011  1.00  0.00     0.081 C 
HETATM   38  C   UNL     1       5.064  33.503  60.639  1.00  0.00     0.034 C 
HETATM   39  O   UNL     1       9.536  32.046  61.507  1.00  0.00    -0.267 OA
BRANCH  37  40
HETATM   40  C   UNL     1       4.129  33.342  62.982  1.00  0.00     0.219 C 
HETATM   41  N   UNL     1       3.112  32.631  62.413  1.00  0.00    -0.370 N 
HETATM   42  H   UNL     1       2.758  32.843  61.491  1.00  0.00     0.159 HD
HETATM   43  H   UNL     1       2.500  32.135  63.050  1.00  0.00     0.159 HD
HETATM   44  O   UNL     1       4.330  33.277  64.188  1.00  0.00    -0.273 OA
ENDBRANCH  37  40
ENDBRANCH   9  32
TORSDOF 8
ENDMDL
MODEL 7
REMARK VINA RESULT:     -10.0      4.927     11.156
REMARK  8 active torsions:
REMARK  status: ('A' for Active; 'I' for Inactive)
REMARK    1  A    between atoms: C_6  and  N_7 
REMARK       I    between atoms: N_7  and  C_8 
REMARK    2  A    between atoms: C_8  and  C_9 
REMARK    3  A    between atoms: C_9  and  S_10 
REMARK    4  A    between atoms: S_10  and  C_11 
REMARK    5  A    between atoms: N_12  and  C_13 
REMARK    6  A    between atoms: C_13  and  C_14 
REMARK    7  A    between atoms: C_25  and  C_26 
REMARK       I    between atoms: C_26  and  N_27 
REMARK    8  A    between atoms: C_30  and  C_31 
REMARK       I    between atoms: C_31  and  N_32 
ROOT
HETATM    1  C   UNL     1       6.417  31.128  58.362  1.00  0.00     0.172 C 
HETATM    2  N   UNL     1       7.421  30.384  58.947  1.00  0.00    -0.286 N 
HETATM    3  C   UNL     1       8.012  30.817  60.130  1.00  0.00     0.262 C 
HETATM    4  O   UNL     1       8.993  30.287  60.647  1.00  0.00    -0.267 OA
HETATM    5  C   UNL     1       7.394  31.978  60.789  1.00  0.00     0.061 A 
HETATM    6  C   UNL     1       6.335  32.607  60.134  1.00  0.00     0.076 A 
HETATM    7  C   UNL     1       7.829  32.402  62.051  1.00  0.00     0.020 A 
HETATM    8  C   UNL     1       7.173  33.454  62.685  1.00  0.00     0.018 A 
HETATM    9  C   UNL     1       6.081  34.058  62.055  1.00  0.00     0.034 A 
HETATM   10  C   UNL     1       5.679  33.659  60.774  1.00  0.00     0.050 A 
HETATM   11  N   UNL     1       5.898  32.202  58.866  1.00  0.00    -0.224 NA
ENDROOT
BRANCH   1  12
HETATM   12  S   UNL     1       5.799  30.674  56.791  1.00  0.00    -0.082 SA
BRANCH  12  13
HETATM   13  C   UNL     1       5.061  29.083  57.257  1.00  0.00     0.185 C 
BRANCH  13  14
HETATM   14  C   UNL     1       5.253  27.981  56.228  1.00  0.00     0.231 C 
HETATM   15  N   UNL     1       6.348  27.162  56.430  1.00  0.00    -0.326 N 
HETATM   16  H   UNL     1       6.987  27.437  57.174  1.00  0.00     0.169 HD
HETATM   17  O   UNL     1       4.407  27.839  55.346  1.00  0.00    -0.272 OA
BRANCH  15  18
HETATM   18  C   UNL     1       6.726  26.034  55.669  1.00  0.00     0.036 A 
HETATM   19  C   UNL     1       7.160  26.093  54.343  1.00  0.00     0.053 A 
HETATM   20  C   UNL     1       7.517  24.925  53.657  1.00  0.00     0.042 A 
HETATM   21  C   UNL     1       7.468  23.674  54.289  1.00  0.00    -0.040 A 
HETATM   22 CL   UNL     1       8.010  25.081  52.005  1.00  0.00    -0.084 Cl
HETATM   23  C   UNL     1       7.827  22.400  53.580  1.00  0.00     0.050 C 
HETATM   24  C   UNL     1       7.012  23.619  55.613  1.00  0.00     0.011 A 
HETATM   25  C   UNL     1       6.645  24.786  56.293  1.00  0.00     0.030 A 
ENDBRANCH  15  18
ENDBRANCH  13  14
ENDBRANCH  12  13
ENDBRANCH   1  12
BRANCH   2  26
HETATM   26  C   UNL     1       7.913  29.103  58.433  1.00  0.00     0.199 C 
BRANCH  26  27
HETATM   27  C   UNL     1       8.984  29.364  57.431  1.00  0.00     0.070 A 
HETATM   28  O   UNL     1       8.703  29.067  56.130  1.00  0.00    -0.325 OA
HETATM   29  C   UNL     1       9.817  29.355  55.408  1.00  0.00     0.142 A 
HETATM   30  C   UNL     1      10.811  29.835  56.226  1.00  0.00     0.027 A 
HETATM   31  C   UNL     1      10.275  29.843  57.536  1.00  0.00     0.036 A 
ENDBRANCH  26  27
ENDBRANCH   2  26
BRANCH   9  32
HETATM   32  C   UNL     1       5.381  35.157  62.749  1.00  0.00     0.253 C 
HETATM   33  N   UNL     1       5.012  34.981  64.086  1.00  0.00    -0.348 N 
HETATM   34  C   UNL     1       4.373  36.118  64.745  1.00  0.00     0.127 C 
HETATM   35  C   UNL     1       5.686  34.044  64.986  1.00  0.00     0.127 C 
HETATM   36  C   UNL     1       3.420  35.669  65.851  1.00  0.00     0.034 C 
HETATM   37  C   UNL     1       4.058  34.672  66.825  1.00  0.00     0.081 C 
HETATM   38  C   UNL     1       4.734  33.527  66.060  1.00  0.00     0.034 C 
HETATM   39  O   UNL     1       5.153  36.170  62.095  1.00  0.00    -0.267 OA
BRANCH  37  40
HETATM   40  C   UNL     1       5.026  35.350  67.787  1.00  0.00     0.219 C 
HETATM   41  N   UNL     1       5.243  34.680  68.956  1.00  0.00    -0.370 N 
HETATM   42  H   UNL     1       4.624  33.951  69.281  1.00  0.00     0.159 HD
HETATM   43  H   UNL     1       5.815  35.154  69.645  1.00  0.00     0.159 HD
HETATM   44  O   UNL     1       5.592  36.413  67.569  1.00  0.00    -0.273 OA
ENDBRANCH  37  40
ENDBRANCH   9  32
TORSDOF 8
ENDMDL
MODEL 8
REMARK VINA RESULT:     -10.0      4.903     10.914
REMARK  8 active torsions:
REMARK  status: ('A' for Active; 'I' for Inactive)
REMARK    1  A    between atoms: C_6  and  N_7 
REMARK       I    between atoms: N_7  and  C_8 
REMARK    2  A    between atoms: C_8  and  C_9 
REMARK    3  A    between atoms: C_9  and  S_10 
REMARK    4  A    between atoms: S_10  and  C_11 
REMARK    5  A    between atoms: N_12  and  C_13 
REMARK    6  A    between atoms: C_13  and  C_14 
REMARK    7  A    between atoms: C_25  and  C_26 
REMARK       I    between atoms: C_26  and  N_27 
REMARK    8  A    between atoms: C_30  and  C_31 
REMARK       I    between atoms: C_31  and  N_32 
ROOT
HETATM    1  C   UNL     1       6.611  31.419  59.000  1.00  0.00     0.172 C 
HETATM    2  N   UNL     1       7.597  30.582  59.482  1.00  0.00    -0.286 N 
HETATM    3  C   UNL     1       8.207  30.852  60.704  1.00  0.00     0.262 C 
HETATM    4  O   UNL     1       9.175  30.237  61.145  1.00  0.00    -0.267 OA
HETATM    5  C   UNL     1       7.625  31.942  61.503  1.00  0.00     0.061 A 
HETATM    6  C   UNL     1       6.581  32.674  60.938  1.00  0.00     0.076 A 
HETATM    7  C   UNL     1       8.079  32.197  62.803  1.00  0.00     0.020 A 
HETATM    8  C   UNL     1       7.456  33.183  63.566  1.00  0.00     0.018 A 
HETATM    9  C   UNL     1       6.379  33.888  63.023  1.00  0.00     0.034 A 
HETATM   10  C   UNL     1       5.958  33.659  61.706  1.00  0.00     0.050 A 
HETATM   11  N   UNL     1       6.126  32.438  59.634  1.00  0.00    -0.224 NA
ENDROOT
BRANCH   1  12
HETATM   12  S   UNL     1       5.972  31.176  57.391  1.00  0.00    -0.082 SA
BRANCH  12  13
HETATM   13  C   UNL     1       4.988  29.689  57.730  1.00  0.00     0.185 C 
BRANCH  13  14
HETATM   14  C   UNL     1       5.143  28.588  56.693  1.00  0.00     0.231 C 
HETATM   15  N   UNL     1       6.196  27.718  56.901  1.00  0.00    -0.326 N 
HETATM   16  H   UNL     1       6.837  27.956  57.656  1.00  0.00     0.169 HD
HETATM   17  O   UNL     1       4.303  28.494  55.799  1.00  0.00    -0.272 OA
BRANCH  15  18
HETATM   18  C   UNL     1       6.531  26.580  56.135  1.00  0.00     0.036 A 
HETATM   19  C   UNL     1       7.025  26.633  54.830  1.00  0.00     0.053 A 
HETATM   20  C   UNL     1       7.335  25.457  54.135  1.00  0.00     0.042 A 
HETATM   21  C   UNL     1       7.175  24.201  54.739  1.00  0.00    -0.040 A 
HETATM   22 CL   UNL     1       7.908  25.608  52.510  1.00  0.00    -0.084 Cl
HETATM   23  C   UNL     1       7.480  22.918  54.021  1.00  0.00     0.050 C 
HETATM   24  C   UNL     1       6.660  24.153  56.042  1.00  0.00     0.011 A 
HETATM   25  C   UNL     1       6.341  25.330  56.729  1.00  0.00     0.030 A 
ENDBRANCH  15  18
ENDBRANCH  13  14
ENDBRANCH  12  13
ENDBRANCH   1  12
BRANCH   2  26
HETATM   26  C   UNL     1       8.049  29.359  58.813  1.00  0.00     0.199 C 
BRANCH  26  27
HETATM   27  C   UNL     1       9.111  29.712  57.828  1.00  0.00     0.070 A 
HETATM   28  O   UNL     1       8.944  29.266  56.551  1.00  0.00    -0.325 OA
HETATM   29  C   UNL     1      10.029  29.675  55.844  1.00  0.00     0.142 A 
HETATM   30  C   UNL     1      10.892  30.381  56.649  1.00  0.00     0.027 A 
HETATM   31  C   UNL     1      10.299  30.407  57.934  1.00  0.00     0.036 A 
ENDBRANCH  26  27
ENDBRANCH   2  26
BRANCH   9  32
HETATM   32  C   UNL     1       5.714  34.915  63.850  1.00  0.00     0.253 C 
HETATM   33  N   UNL     1       5.728  36.242  63.414  1.00  0.00    -0.348 N 
HETATM   34  C   UNL     1       5.008  37.211  64.238  1.00  0.00     0.127 C 
HETATM   35  C   UNL     1       5.884  36.622  62.009  1.00  0.00     0.127 C 
HETATM   36  C   UNL     1       5.617  38.608  64.132  1.00  0.00     0.034 C 
HETATM   37  C   UNL     1       5.824  39.065  62.683  1.00  0.00     0.081 C 
HETATM   38  C   UNL     1       6.555  37.985  61.876  1.00  0.00     0.034 C 
HETATM   39  O   UNL     1       5.191  34.534  64.894  1.00  0.00    -0.267 OA
BRANCH  37  40
HETATM   40  C   UNL     1       4.514  39.469  62.019  1.00  0.00     0.219 C 
HETATM   41  N   UNL     1       4.392  40.800  61.742  1.00  0.00    -0.370 N 
HETATM   42  H   UNL     1       4.983  41.496  62.176  1.00  0.00     0.159 HD
HETATM   43  H   UNL     1       3.497  41.104  61.379  1.00  0.00     0.159 HD
HETATM   44  O   UNL     1       3.610  38.694  61.732  1.00  0.00    -0.273 OA
ENDBRANCH  37  40
ENDBRANCH   9  32
TORSDOF 8
ENDMDL
MODEL 9
REMARK VINA RESULT:      -9.9      5.583     10.026
REMARK  8 active torsions:
REMARK  status: ('A' for Active; 'I' for Inactive)
REMARK    1  A    between atoms: C_6  and  N_7 
REMARK       I    between atoms: N_7  and  C_8 
REMARK    2  A    between atoms: C_8  and  C_9 
REMARK    3  A    between atoms: C_9  and  S_10 
REMARK    4  A    between atoms: S_10  and  C_11 
REMARK    5  A    between atoms: N_12  and  C_13 
REMARK    6  A    between atoms: C_13  and  C_14 
REMARK    7  A    between atoms: C_25  and  C_26 
REMARK       I    between atoms: C_26  and  N_27 
REMARK    8  A    between atoms: C_30  and  C_31 
REMARK       I    between atoms: C_31  and  N_32 
ROOT
HETATM    1  C   UNL     1       5.960  31.160  57.895  1.00  0.00     0.172 C 
HETATM    2  N   UNL     1       7.147  31.165  58.601  1.00  0.00    -0.286 N 
HETATM    3  C   UNL     1       7.936  30.019  58.647  1.00  0.00     0.262 C 
HETATM    4  O   UNL     1       8.935  29.896  59.352  1.00  0.00    -0.267 OA
HETATM    5  C   UNL     1       7.531  28.905  57.776  1.00  0.00     0.061 A 
HETATM    6  C   UNL     1       6.347  29.045  57.053  1.00  0.00     0.076 A 
HETATM    7  C   UNL     1       8.336  27.766  57.649  1.00  0.00     0.020 A 
HETATM    8  C   UNL     1       7.967  26.762  56.757  1.00  0.00     0.018 A 
HETATM    9  C   UNL     1       6.807  26.917  55.994  1.00  0.00     0.034 A 
HETATM   10  C   UNL     1       5.982  28.038  56.158  1.00  0.00     0.050 A 
HETATM   11  N   UNL     1       5.525  30.173  57.181  1.00  0.00    -0.224 NA
ENDROOT
BRANCH   1  12
HETATM   12  S   UNL     1       4.891  32.540  57.982  1.00  0.00    -0.082 SA
BRANCH  12  13
HETATM   13  C   UNL     1       3.896  32.003  59.401  1.00  0.00     0.185 C 
BRANCH  13  14
HETATM   14  C   UNL     1       3.884  32.985  60.562  1.00  0.00     0.231 C 
HETATM   15  N   UNL     1       4.753  34.053  60.447  1.00  0.00    -0.326 N 
HETATM   16  H   UNL     1       5.399  34.028  59.661  1.00  0.00     0.169 HD
HETATM   17  O   UNL     1       3.073  32.817  61.473  1.00  0.00    -0.272 OA
BRANCH  15  18
HETATM   18  C   UNL     1       4.902  35.136  61.342  1.00  0.00     0.036 A 
HETATM   19  C   UNL     1       4.301  36.384  61.169  1.00  0.00     0.053 A 
HETATM   20  C   UNL     1       4.499  37.408  62.104  1.00  0.00     0.042 A 
HETATM   21  C   UNL     1       5.289  37.199  63.243  1.00  0.00    -0.040 A 
HETATM   22 CL   UNL     1       3.747  38.936  61.796  1.00  0.00    -0.084 Cl
HETATM   23  C   UNL     1       5.539  38.278  64.258  1.00  0.00     0.050 C 
HETATM   24  C   UNL     1       5.908  35.951  63.401  1.00  0.00     0.011 A 
HETATM   25  C   UNL     1       5.716  34.933  62.460  1.00  0.00     0.030 A 
ENDBRANCH  15  18
ENDBRANCH  13  14
ENDBRANCH  12  13
ENDBRANCH   1  12
BRANCH   2  26
HETATM   26  C   UNL     1       7.692  32.331  59.302  1.00  0.00     0.199 C 
BRANCH  26  27
HETATM   27  C   UNL     1       7.720  32.046  60.764  1.00  0.00     0.070 A 
HETATM   28  O   UNL     1       6.554  31.631  61.337  1.00  0.00    -0.325 OA
HETATM   29  C   UNL     1       6.803  31.460  62.661  1.00  0.00     0.142 A 
HETATM   30  C   UNL     1       8.114  31.756  62.948  1.00  0.00     0.027 A 
HETATM   31  C   UNL     1       8.710  32.135  61.722  1.00  0.00     0.036 A 
ENDBRANCH  26  27
ENDBRANCH   2  26
BRANCH   9  32
HETATM   32  C   UNL     1       6.441  25.855  55.036  1.00  0.00     0.253 C 
HETATM   33  N   UNL     1       7.203  24.684  55.007  1.00  0.00    -0.348 N 
HETATM   34  C   UNL     1       6.766  23.640  54.082  1.00  0.00     0.127 C 
HETATM   35  C   UNL     1       7.987  24.210  56.148  1.00  0.00     0.127 C 
HETATM   36  C   UNL     1       7.937  22.784  53.601  1.00  0.00     0.034 C 
HETATM   37  C   UNL     1       8.811  22.264  54.748  1.00  0.00     0.081 C 
HETATM   38  C   UNL     1       9.202  23.409  55.691  1.00  0.00     0.034 C 
HETATM   39  O   UNL     1       5.479  26.074  54.305  1.00  0.00    -0.267 OA
BRANCH  37  40
HETATM   40  C   UNL     1       8.145  21.121  55.503  1.00  0.00     0.219 C 
HETATM   41  N   UNL     1       8.591  20.934  56.780  1.00  0.00    -0.370 N 
HETATM   42  H   UNL     1       9.463  21.326  57.108  1.00  0.00     0.159 HD
HETATM   43  H   UNL     1       8.224  20.127  57.270  1.00  0.00     0.159 HD
HETATM   44  O   UNL     1       7.270  20.399  55.043  1.00  0.00    -0.273 OA
ENDBRANCH  37  40
ENDBRANCH   9  32
TORSDOF 8
ENDMDL
MODEL 10
REMARK VINA RESULT:      -9.8      3.692      7.538
REMARK  8 active torsions:
REMARK  status: ('A' for Active; 'I' for Inactive)
REMARK    1  A    between atoms: C_6  and  N_7 
REMARK       I    between atoms: N_7  and  C_8 
REMARK    2  A    between atoms: C_8  and  C_9 
REMARK    3  A    between atoms: C_9  and  S_10 
REMARK    4  A    between atoms: S_10  and  C_11 
REMARK    5  A    between atoms: N_12  and  C_13 
REMARK    6  A    between atoms: C_13  and  C_14 
REMARK    7  A    between atoms: C_25  and  C_26 
REMARK       I    between atoms: C_26  and  N_27 
REMARK    8  A    between atoms: C_30  and  C_31 
REMARK       I    between atoms: C_31  and  N_32 
ROOT
HETATM    1  C   UNL     1       5.135  30.766  58.175  1.00  0.00     0.172 C 
HETATM    2  N   UNL     1       6.400  31.133  58.590  1.00  0.00    -0.286 N 
HETATM    3  C   UNL     1       7.482  30.287  58.363  1.00  0.00     0.262 C 
HETATM    4  O   UNL     1       8.611  30.474  58.809  1.00  0.00    -0.267 OA
HETATM    5  C   UNL     1       7.230  29.107  57.520  1.00  0.00     0.061 A 
HETATM    6  C   UNL     1       5.920  28.879  57.099  1.00  0.00     0.076 A 
HETATM    7  C   UNL     1       8.283  28.274  57.122  1.00  0.00     0.020 A 
HETATM    8  C   UNL     1       8.027  27.210  56.259  1.00  0.00     0.018 A 
HETATM    9  C   UNL     1       6.725  27.005  55.795  1.00  0.00     0.034 A 
HETATM   10  C   UNL     1       5.668  27.814  56.233  1.00  0.00     0.050 A 
HETATM   11  N   UNL     1       4.856  29.696  57.501  1.00  0.00    -0.224 NA
ENDROOT
BRANCH   1  12
HETATM   12  S   UNL     1       3.756  31.746  58.613  1.00  0.00    -0.082 SA
BRANCH  12  13
HETATM   13  C   UNL     1       3.735  32.824  57.154  1.00  0.00     0.185 C 
BRANCH  13  14
HETATM   14  C   UNL     1       3.069  32.209  55.933  1.00  0.00     0.231 C 
HETATM   15  N   UNL     1       3.930  31.735  54.961  1.00  0.00    -0.326 N 
HETATM   16  H   UNL     1       4.918  31.942  55.093  1.00  0.00     0.169 HD
HETATM   17  O   UNL     1       1.843  32.104  55.916  1.00  0.00    -0.272 OA
BRANCH  15  18
HETATM   18  C   UNL     1       3.586  31.069  53.764  1.00  0.00     0.036 A 
HETATM   19  C   UNL     1       3.162  31.716  52.601  1.00  0.00     0.053 A 
HETATM   20  C   UNL     1       2.839  30.981  51.453  1.00  0.00     0.042 A 
HETATM   21  C   UNL     1       2.953  29.583  51.437  1.00  0.00    -0.040 A 
HETATM   22 CL   UNL     1       2.288  31.856  50.066  1.00  0.00    -0.084 Cl
HETATM   23  C   UNL     1       2.600  28.761  50.231  1.00  0.00     0.050 C 
HETATM   24  C   UNL     1       3.360  28.938  52.613  1.00  0.00     0.011 A 
HETATM   25  C   UNL     1       3.671  29.674  53.762  1.00  0.00     0.030 A 
ENDBRANCH  15  18
ENDBRANCH  13  14
ENDBRANCH  12  13
ENDBRANCH   1  12
BRANCH   2  26
HETATM   26  C   UNL     1       6.724  32.405  59.240  1.00  0.00     0.199 C 
BRANCH  26  27
HETATM   27  C   UNL     1       6.896  32.171  60.701  1.00  0.00     0.070 A 
HETATM   28  O   UNL     1       5.763  31.972  61.434  1.00  0.00    -0.325 OA
HETATM   29  C   UNL     1       6.151  31.809  62.725  1.00  0.00     0.142 A 
HETATM   30  C   UNL     1       7.518  31.900  62.834  1.00  0.00     0.027 A 
HETATM   31  C   UNL     1       8.003  32.133  61.525  1.00  0.00     0.036 A 
ENDBRANCH  26  27
ENDBRANCH   2  26
BRANCH   9  32
HETATM   32  C   UNL     1       6.473  25.887  54.864  1.00  0.00     0.253 C 
HETATM   33  N   UNL     1       7.240  24.725  54.984  1.00  0.00    -0.348 N 
HETATM   34  C   UNL     1       6.914  23.627  54.077  1.00  0.00     0.127 C 
HETATM   35  C   UNL     1       7.895  24.324  56.230  1.00  0.00     0.127 C 
HETATM   36  C   UNL     1       8.135  22.760  53.777  1.00  0.00     0.034 C 
HETATM   37  C   UNL     1       8.881  22.314  55.040  1.00  0.00     0.081 C 
HETATM   38  C   UNL     1       9.158  23.513  55.954  1.00  0.00     0.034 C 
HETATM   39  O   UNL     1       5.597  26.055  54.020  1.00  0.00    -0.267 OA
BRANCH  37  40
HETATM   40  C   UNL     1       8.142  21.206  55.780  1.00  0.00     0.219 C 
HETATM   41  N   UNL     1       8.446  21.094  57.106  1.00  0.00    -0.370 N 
HETATM   42  H   UNL     1       9.274  21.513  57.505  1.00  0.00     0.159 HD
HETATM   43  H   UNL     1       8.031  20.311  57.597  1.00  0.00     0.159 HD
HETATM   44  O   UNL     1       7.325  20.451  55.267  1.00  0.00    -0.273 OA
ENDBRANCH  37  40
ENDBRANCH   9  32
TORSDOF 8
ENDMDL
