MODEL 1
REMARK VINA RESULT:      -9.8      0.000      0.000
REMARK  3 active torsions:
REMARK  status: ('A' for Active; 'I' for Inactive)
REMARK    1  A    between atoms: C_7  and  C_8 
REMARK    2  A    between atoms: N_9  and  C_11 
REMARK    3  A    between atoms: C_11  and  C_12 
ROOT
HETATM    1  C   UNL     1       6.413  27.460  55.253  1.00  0.00     0.238 C 
HETATM    2  N   UNL     1       6.485  27.876  56.711  1.00  0.00    -0.056 N 
HETATM    3  H   UNL     1       5.886  27.207  57.208  1.00  0.00     0.281 HD
HETATM    4  C   UNL     1       5.891  29.245  56.965  1.00  0.00     0.236 C 
HETATM    5  C   UNL     1       4.445  29.287  56.502  1.00  0.00     0.028 C 
HETATM    6  C   UNL     1       4.355  28.961  55.021  1.00  0.00     0.004 C 
HETATM    7  C   UNL     1       4.964  27.596  54.744  1.00  0.00     0.040 C 
ENDROOT
BRANCH   2   8
HETATM    8  C   UNL     1       7.858  27.723  57.358  1.00  0.00     0.295 C 
BRANCH   8   9
HETATM    9  C   UNL     1       8.760  28.884  57.205  1.00  0.00     0.077 A 
HETATM   10  N   UNL     1       8.952  29.889  58.138  1.00  0.00    -0.155 N 
HETATM   11  C   UNL     1       9.942  30.736  57.630  1.00  0.00     0.732 A 
HETATM   12  C   UNL     1       8.357  30.130  59.373  1.00  0.00     0.117 A 
HETATM   13  N   UNL     1      10.412  31.787  58.356  1.00  0.00    -0.074 NA
HETATM   14  N   UNL     1      10.284  30.362  56.417  1.00  0.00    -0.072 NA
HETATM   15  C   UNL     1       9.849  31.994  59.505  1.00  0.00     0.138 A 
HETATM   16  C   UNL     1       8.758  31.177  60.106  1.00  0.00     0.038 A 
HETATM   17  C   UNL     1       9.526  29.273  56.124  1.00  0.00     0.164 A 
ENDBRANCH   8   9
ENDBRANCH   2   8
BRANCH   1  18
HETATM   18  C   UNL     1       6.848  26.041  55.051  1.00  0.00     0.041 A 
HETATM   19  N   UNL     1       7.276  25.583  53.822  1.00  0.00    -0.357 N 
HETATM   20  C   UNL     1       7.584  24.244  53.889  1.00  0.00     0.042 A 
HETATM   21  H   UNL     1       7.343  26.125  52.969  1.00  0.00     0.166 HD
HETATM   22  C   UNL     1       7.314  23.819  55.187  1.00  0.00    -0.008 A 
HETATM   23  C   UNL     1       8.055  23.376  52.897  1.00  0.00     0.030 A 
HETATM   24  C   UNL     1       7.519  22.467  55.521  1.00  0.00     0.014 A 
HETATM   25  C   UNL     1       6.841  24.950  55.905  1.00  0.00     0.040 A 
HETATM   26  C   UNL     1       7.990  21.587  54.541  1.00  0.00     0.001 A 
HETATM   27  C   UNL     1       8.253  22.037  53.249  1.00  0.00     0.002 A 
ENDBRANCH   1  18
TORSDOF 3
ENDMDL
MODEL 2
REMARK VINA RESULT:      -9.5      1.791      3.128
REMARK  3 active torsions:
REMARK  status: ('A' for Active; 'I' for Inactive)
REMARK    1  A    between atoms: C_7  and  C_8 
REMARK    2  A    between atoms: N_9  and  C_11 
REMARK    3  A    between atoms: C_11  and  C_12 
ROOT
HETATM    1  C   UNL     1       6.789  25.880  52.334  1.00  0.00     0.238 C 
HETATM    2  N   UNL     1       6.518  27.034  53.283  1.00  0.00    -0.056 N 
HETATM    3  H   UNL     1       5.758  26.707  53.889  1.00  0.00     0.281 HD
HETATM    4  C   UNL     1       5.996  28.267  52.578  1.00  0.00     0.236 C 
HETATM    5  C   UNL     1       4.726  27.940  51.811  1.00  0.00     0.028 C 
HETATM    6  C   UNL     1       4.993  26.847  50.791  1.00  0.00     0.004 C 
HETATM    7  C   UNL     1       5.535  25.605  51.479  1.00  0.00     0.040 C 
ENDROOT
BRANCH   2   8
HETATM    8  C   UNL     1       7.660  27.365  54.237  1.00  0.00     0.295 C 
BRANCH   8   9
HETATM    9  C   UNL     1       7.248  27.855  55.569  1.00  0.00     0.077 A 
HETATM   10  N   UNL     1       8.011  28.641  56.416  1.00  0.00    -0.155 N 
HETATM   11  C   UNL     1       7.214  28.941  57.525  1.00  0.00     0.732 A 
HETATM   12  C   UNL     1       9.315  29.116  56.310  1.00  0.00     0.117 A 
HETATM   13  N   UNL     1       7.660  29.769  58.510  1.00  0.00    -0.074 NA
HETATM   14  N   UNL     1       6.065  28.309  57.446  1.00  0.00    -0.072 NA
HETATM   15  C   UNL     1       8.875  30.205  58.393  1.00  0.00     0.138 A 
HETATM   16  C   UNL     1       9.811  29.902  57.275  1.00  0.00     0.038 A 
HETATM   17  C   UNL     1       6.098  27.595  56.290  1.00  0.00     0.164 A 
ENDBRANCH   8   9
ENDBRANCH   2   8
BRANCH   1  18
HETATM   18  C   UNL     1       7.140  24.621  53.066  1.00  0.00     0.041 A 
HETATM   19  N   UNL     1       7.649  23.519  52.409  1.00  0.00    -0.357 N 
HETATM   20  C   UNL     1       7.855  22.486  53.293  1.00  0.00     0.042 A 
HETATM   21  H   UNL     1       7.833  23.445  51.416  1.00  0.00     0.166 HD
HETATM   22  C   UNL     1       7.435  22.920  54.547  1.00  0.00    -0.008 A 
HETATM   23  C   UNL     1       8.355  21.197  53.073  1.00  0.00     0.030 A 
HETATM   24  C   UNL     1       7.513  22.036  55.639  1.00  0.00     0.014 A 
HETATM   25  C   UNL     1       6.976  24.256  54.393  1.00  0.00     0.040 A 
HETATM   26  C   UNL     1       8.010  20.744  55.436  1.00  0.00     0.001 A 
HETATM   27  C   UNL     1       8.425  20.334  54.170  1.00  0.00     0.002 A 
ENDBRANCH   1  18
TORSDOF 3
ENDMDL
MODEL 3
REMARK VINA RESULT:      -9.4      2.149      6.762
REMARK  3 active torsions:
REMARK  status: ('A' for Active; 'I' for Inactive)
REMARK    1  A    between atoms: C_7  and  C_8 
REMARK    2  A    between atoms: N_9  and  C_11 
REMARK    3  A    between atoms: C_11  and  C_12 
ROOT
HETATM    1  C   UNL     1       5.742  27.741  53.772  1.00  0.00     0.238 C 
HETATM    2  N   UNL     1       5.890  26.235  53.654  1.00  0.00    -0.056 N 
HETATM    3  H   UNL     1       6.870  26.084  53.390  1.00  0.00     0.281 HD
HETATM    4  C   UNL     1       5.056  25.644  52.537  1.00  0.00     0.236 C 
HETATM    5  C   UNL     1       5.417  26.289  51.210  1.00  0.00     0.028 C 
HETATM    6  C   UNL     1       5.192  27.790  51.274  1.00  0.00     0.004 C 
HETATM    7  C   UNL     1       6.009  28.398  52.403  1.00  0.00     0.040 C 
ENDROOT
BRANCH   2   8
HETATM    8  C   UNL     1       5.717  25.466  54.960  1.00  0.00     0.295 C 
BRANCH   8   9
HETATM    9  C   UNL     1       6.909  24.720  55.415  1.00  0.00     0.077 A 
HETATM   10  N   UNL     1       7.505  23.661  54.751  1.00  0.00    -0.155 N 
HETATM   11  C   UNL     1       8.644  23.308  55.481  1.00  0.00     0.732 A 
HETATM   12  C   UNL     1       7.156  22.989  53.583  1.00  0.00     0.117 A 
HETATM   13  N   UNL     1       9.493  22.339  55.040  1.00  0.00    -0.074 NA
HETATM   14  N   UNL     1       8.714  24.016  56.586  1.00  0.00    -0.072 NA
HETATM   15  C   UNL     1       9.154  21.727  53.949  1.00  0.00     0.138 A 
HETATM   16  C   UNL     1       7.940  22.001  53.130  1.00  0.00     0.038 A 
HETATM   17  C   UNL     1       7.630  24.835  56.587  1.00  0.00     0.164 A 
ENDBRANCH   8   9
ENDBRANCH   2   8
BRANCH   1  18
HETATM   18  C   UNL     1       6.700  28.324  54.764  1.00  0.00     0.041 A 
HETATM   19  N   UNL     1       8.010  28.599  54.430  1.00  0.00    -0.357 N 
HETATM   20  C   UNL     1       8.690  29.094  55.520  1.00  0.00     0.042 A 
HETATM   21  H   UNL     1       8.444  28.449  53.528  1.00  0.00     0.166 HD
HETATM   22  C   UNL     1       7.804  29.105  56.593  1.00  0.00    -0.008 A 
HETATM   23  C   UNL     1      10.022  29.506  55.640  1.00  0.00     0.030 A 
HETATM   24  C   UNL     1       8.258  29.544  57.851  1.00  0.00     0.014 A 
HETATM   25  C   UNL     1       6.562  28.608  56.113  1.00  0.00     0.040 A 
HETATM   26  C   UNL     1       9.587  29.960  57.988  1.00  0.00     0.001 A 
HETATM   27  C   UNL     1      10.454  29.940  56.898  1.00  0.00     0.002 A 
ENDBRANCH   1  18
TORSDOF 3
ENDMDL
MODEL 4
REMARK VINA RESULT:      -9.4      2.739      5.652
REMARK  3 active torsions:
REMARK  status: ('A' for Active; 'I' for Inactive)
REMARK    1  A    between atoms: C_7  and  C_8 
REMARK    2  A    between atoms: N_9  and  C_11 
REMARK    3  A    between atoms: C_11  and  C_12 
ROOT
HETATM    1  C   UNL     1       7.064  26.150  56.138  1.00  0.00     0.238 C 
HETATM    2  N   UNL     1       6.442  27.148  55.178  1.00  0.00    -0.056 N 
HETATM    3  H   UNL     1       7.117  27.234  54.409  1.00  0.00     0.281 HD
HETATM    4  C   UNL     1       6.300  28.532  55.773  1.00  0.00     0.236 C 
HETATM    5  C   UNL     1       7.653  29.052  56.230  1.00  0.00     0.028 C 
HETATM    6  C   UNL     1       8.258  28.114  57.260  1.00  0.00     0.004 C 
HETATM    7  C   UNL     1       8.391  26.714  56.684  1.00  0.00     0.040 C 
ENDROOT
BRANCH   2   8
HETATM    8  C   UNL     1       5.152  26.682  54.510  1.00  0.00     0.295 C 
BRANCH   8   9
HETATM    9  C   UNL     1       5.199  26.598  53.036  1.00  0.00     0.077 A 
HETATM   10  N   UNL     1       5.166  27.672  52.161  1.00  0.00    -0.155 N 
HETATM   11  C   UNL     1       5.316  27.154  50.871  1.00  0.00     0.732 A 
HETATM   12  C   UNL     1       5.023  29.038  52.382  1.00  0.00     0.117 A 
HETATM   13  N   UNL     1       5.400  27.975  49.787  1.00  0.00    -0.074 NA
HETATM   14  N   UNL     1       5.338  25.841  50.906  1.00  0.00    -0.072 NA
HETATM   15  C   UNL     1       5.269  29.244  50.012  1.00  0.00     0.138 A 
HETATM   16  C   UNL     1       5.059  29.882  51.341  1.00  0.00     0.038 A 
HETATM   17  C   UNL     1       5.206  25.489  52.212  1.00  0.00     0.164 A 
ENDBRANCH   8   9
ENDBRANCH   2   8
BRANCH   1  18
HETATM   18  C   UNL     1       7.352  24.838  55.476  1.00  0.00     0.041 A 
HETATM   19  N   UNL     1       7.217  23.642  56.152  1.00  0.00    -0.357 N 
HETATM   20  C   UNL     1       7.572  22.589  55.340  1.00  0.00     0.042 A 
HETATM   21  H   UNL     1       6.923  23.525  57.114  1.00  0.00     0.166 HD
HETATM   22  C   UNL     1       7.979  23.123  54.121  1.00  0.00    -0.008 A 
HETATM   23  C   UNL     1       7.587  21.214  55.601  1.00  0.00     0.030 A 
HETATM   24  C   UNL     1       8.426  22.253  53.108  1.00  0.00     0.014 A 
HETATM   25  C   UNL     1       7.850  24.534  54.220  1.00  0.00     0.040 A 
HETATM   26  C   UNL     1       8.447  20.875  53.353  1.00  0.00     0.001 A 
HETATM   27  C   UNL     1       8.033  20.367  54.582  1.00  0.00     0.002 A 
ENDBRANCH   1  18
TORSDOF 3
ENDMDL
MODEL 5
REMARK VINA RESULT:      -8.9      3.535      6.508
REMARK  3 active torsions:
REMARK  status: ('A' for Active; 'I' for Inactive)
REMARK    1  A    between atoms: C_7  and  C_8 
REMARK    2  A    between atoms: N_9  and  C_11 
REMARK    3  A    between atoms: C_11  and  C_12 
ROOT
HETATM    1  C   UNL     1       5.543  28.156  53.726  1.00  0.00     0.238 C 
HETATM    2  N   UNL     1       6.226  27.037  54.491  1.00  0.00    -0.056 N 
HETATM    3  H   UNL     1       5.627  26.215  54.351  1.00  0.00     0.281 HD
HETATM    4  C   UNL     1       6.268  27.281  55.984  1.00  0.00     0.236 C 
HETATM    5  C   UNL     1       4.863  27.474  56.527  1.00  0.00     0.028 C 
HETATM    6  C   UNL     1       4.188  28.648  55.839  1.00  0.00     0.004 C 
HETATM    7  C   UNL     1       4.153  28.428  54.335  1.00  0.00     0.040 C 
ENDROOT
BRANCH   2   8
HETATM    8  C   UNL     1       7.588  26.621  53.944  1.00  0.00     0.295 C 
BRANCH   8   9
HETATM    9  C   UNL     1       7.747  25.176  53.679  1.00  0.00     0.077 A 
HETATM   10  N   UNL     1       7.982  24.198  54.632  1.00  0.00    -0.155 N 
HETATM   11  C   UNL     1       7.982  22.969  53.966  1.00  0.00     0.732 A 
HETATM   12  C   UNL     1       8.187  24.279  56.006  1.00  0.00     0.117 A 
HETATM   13  N   UNL     1       8.113  21.798  54.648  1.00  0.00    -0.074 NA
HETATM   14  N   UNL     1       7.863  23.152  52.671  1.00  0.00    -0.072 NA
HETATM   15  C   UNL     1       8.299  21.891  55.927  1.00  0.00     0.138 A 
HETATM   16  C   UNL     1       8.361  23.154  56.715  1.00  0.00     0.038 A 
HETATM   17  C   UNL     1       7.782  24.495  52.478  1.00  0.00     0.164 A 
ENDBRANCH   8   9
ENDBRANCH   2   8
BRANCH   1  18
HETATM   18  C   UNL     1       5.360  27.818  52.279  1.00  0.00     0.041 A 
HETATM   19  N   UNL     1       5.672  28.719  51.280  1.00  0.00    -0.357 N 
HETATM   20  C   UNL     1       5.383  28.185  50.045  1.00  0.00     0.042 A 
HETATM   21  H   UNL     1       6.041  29.653  51.408  1.00  0.00     0.166 HD
HETATM   22  C   UNL     1       4.838  26.922  50.255  1.00  0.00    -0.008 A 
HETATM   23  C   UNL     1       5.539  28.734  48.767  1.00  0.00     0.030 A 
HETATM   24  C   UNL     1       4.425  26.163  49.144  1.00  0.00     0.014 A 
HETATM   25  C   UNL     1       4.815  26.706  51.659  1.00  0.00     0.040 A 
HETATM   26  C   UNL     1       4.574  26.697  47.859  1.00  0.00     0.001 A 
HETATM   27  C   UNL     1       5.123  27.964  47.677  1.00  0.00     0.002 A 
ENDBRANCH   1  18
TORSDOF 3
ENDMDL
MODEL 6
REMARK VINA RESULT:      -8.8      3.123      6.816
REMARK  3 active torsions:
REMARK  status: ('A' for Active; 'I' for Inactive)
REMARK    1  A    between atoms: C_7  and  C_8 
REMARK    2  A    between atoms: N_9  and  C_11 
REMARK    3  A    between atoms: C_11  and  C_12 
ROOT
HETATM    1  C   UNL     1       8.471  23.322  56.049  1.00  0.00     0.238 C 
HETATM    2  N   UNL     1       7.869  22.891  54.723  1.00  0.00    -0.056 N 
HETATM    3  H   UNL     1       6.855  22.906  54.874  1.00  0.00     0.281 HD
HETATM    4  C   UNL     1       8.221  21.467  54.350  1.00  0.00     0.236 C 
HETATM    5  C   UNL     1       7.771  20.509  55.439  1.00  0.00     0.028 C 
HETATM    6  C   UNL     1       8.431  20.866  56.761  1.00  0.00     0.004 C 
HETATM    7  C   UNL     1       8.103  22.300  57.143  1.00  0.00     0.040 C 
ENDROOT
BRANCH   2   8
HETATM    8  C   UNL     1       8.103  23.856  53.565  1.00  0.00     0.295 C 
BRANCH   8   9
HETATM    9  C   UNL     1       6.901  24.573  53.089  1.00  0.00     0.077 A 
HETATM   10  N   UNL     1       6.714  25.945  53.109  1.00  0.00    -0.155 N 
HETATM   11  C   UNL     1       5.485  26.200  52.494  1.00  0.00     0.732 A 
HETATM   12  C   UNL     1       7.507  26.978  53.602  1.00  0.00     0.117 A 
HETATM   13  N   UNL     1       5.049  27.474  52.290  1.00  0.00    -0.074 NA
HETATM   14  N   UNL     1       4.881  25.072  52.197  1.00  0.00    -0.072 NA
HETATM   15  C   UNL     1       5.801  28.423  52.752  1.00  0.00     0.138 A 
HETATM   16  C   UNL     1       7.099  28.247  53.461  1.00  0.00     0.038 A 
HETATM   17  C   UNL     1       5.705  24.074  52.611  1.00  0.00     0.164 A 
ENDBRANCH   8   9
ENDBRANCH   2   8
BRANCH   1  18
HETATM   18  C   UNL     1       7.974  24.667  56.481  1.00  0.00     0.041 A 
HETATM   19  N   UNL     1       6.640  25.010  56.389  1.00  0.00    -0.357 N 
HETATM   20  C   UNL     1       6.447  26.305  56.814  1.00  0.00     0.042 A 
HETATM   21  H   UNL     1       5.892  24.423  56.042  1.00  0.00     0.166 HD
HETATM   22  C   UNL     1       7.694  26.821  57.155  1.00  0.00    -0.008 A 
HETATM   23  C   UNL     1       5.272  27.060  56.897  1.00  0.00     0.030 A 
HETATM   24  C   UNL     1       7.784  28.153  57.601  1.00  0.00     0.014 A 
HETATM   25  C   UNL     1       8.647  25.792  56.931  1.00  0.00     0.040 A 
HETATM   26  C   UNL     1       6.618  28.923  57.690  1.00  0.00     0.001 A 
HETATM   27  C   UNL     1       5.382  28.381  57.343  1.00  0.00     0.002 A 
ENDBRANCH   1  18
TORSDOF 3
ENDMDL
MODEL 7
REMARK VINA RESULT:      -8.7      2.670      5.824
REMARK  3 active torsions:
REMARK  status: ('A' for Active; 'I' for Inactive)
REMARK    1  A    between atoms: C_7  and  C_8 
REMARK    2  A    between atoms: N_9  and  C_11 
REMARK    3  A    between atoms: C_11  and  C_12 
ROOT
HETATM    1  C   UNL     1       7.012  26.255  56.259  1.00  0.00     0.238 C 
HETATM    2  N   UNL     1       6.471  27.157  55.165  1.00  0.00    -0.056 N 
HETATM    3  H   UNL     1       7.188  27.146  54.432  1.00  0.00     0.281 HD
HETATM    4  C   UNL     1       6.336  28.600  55.602  1.00  0.00     0.236 C 
HETATM    5  C   UNL     1       7.675  29.136  56.076  1.00  0.00     0.028 C 
HETATM    6  C   UNL     1       8.198  28.302  57.233  1.00  0.00     0.004 C 
HETATM    7  C   UNL     1       8.323  26.845  56.817  1.00  0.00     0.040 C 
ENDROOT
BRANCH   2   8
HETATM    8  C   UNL     1       5.206  26.650  54.479  1.00  0.00     0.295 C 
BRANCH   8   9
HETATM    9  C   UNL     1       4.570  27.603  53.545  1.00  0.00     0.077 A 
HETATM   10  N   UNL     1       4.580  27.512  52.163  1.00  0.00    -0.155 N 
HETATM   11  C   UNL     1       3.797  28.563  51.678  1.00  0.00     0.732 A 
HETATM   12  C   UNL     1       5.196  26.609  51.302  1.00  0.00     0.117 A 
HETATM   13  N   UNL     1       3.549  28.701  50.346  1.00  0.00    -0.074 NA
HETATM   14  N   UNL     1       3.401  29.332  52.668  1.00  0.00    -0.072 NA
HETATM   15  C   UNL     1       4.127  27.850  49.559  1.00  0.00     0.138 A 
HETATM   16  C   UNL     1       5.014  26.729  49.979  1.00  0.00     0.038 A 
HETATM   17  C   UNL     1       3.917  28.792  53.803  1.00  0.00     0.164 A 
ENDBRANCH   8   9
ENDBRANCH   2   8
BRANCH   1  18
HETATM   18  C   UNL     1       7.299  24.873  55.758  1.00  0.00     0.041 A 
HETATM   19  N   UNL     1       7.507  24.617  54.418  1.00  0.00    -0.357 N 
HETATM   20  C   UNL     1       7.714  23.273  54.212  1.00  0.00     0.042 A 
HETATM   21  H   UNL     1       7.492  25.297  53.668  1.00  0.00     0.166 HD
HETATM   22  C   UNL     1       7.602  22.641  55.447  1.00  0.00    -0.008 A 
HETATM   23  C   UNL     1       7.966  22.570  53.028  1.00  0.00     0.030 A 
HETATM   24  C   UNL     1       7.745  21.242  55.515  1.00  0.00     0.014 A 
HETATM   25  C   UNL     1       7.329  23.650  56.409  1.00  0.00     0.040 A 
HETATM   26  C   UNL     1       7.997  20.525  54.341  1.00  0.00     0.001 A 
HETATM   27  C   UNL     1       8.105  21.182  53.117  1.00  0.00     0.002 A 
ENDBRANCH   1  18
TORSDOF 3
ENDMDL
MODEL 8
REMARK VINA RESULT:      -8.6      3.625      5.571
REMARK  3 active torsions:
REMARK  status: ('A' for Active; 'I' for Inactive)
REMARK    1  A    between atoms: C_7  and  C_8 
REMARK    2  A    between atoms: N_9  and  C_11 
REMARK    3  A    between atoms: C_11  and  C_12 
ROOT
HETATM    1  C   UNL     1       4.922  26.716  49.910  1.00  0.00     0.238 C 
HETATM    2  N   UNL     1       4.236  28.017  50.284  1.00  0.00    -0.056 N 
HETATM    3  H   UNL     1       3.510  27.751  50.959  1.00  0.00     0.281 HD
HETATM    4  C   UNL     1       3.515  28.662  49.120  1.00  0.00     0.236 C 
HETATM    5  C   UNL     1       2.490  27.704  48.538  1.00  0.00     0.028 C 
HETATM    6  C   UNL     1       3.166  26.425  48.073  1.00  0.00     0.004 C 
HETATM    7  C   UNL     1       3.911  25.773  49.226  1.00  0.00     0.040 C 
ENDROOT
BRANCH   2   8
HETATM    8  C   UNL     1       5.113  29.016  51.032  1.00  0.00     0.295 C 
BRANCH   8   9
HETATM    9  C   UNL     1       4.756  29.232  52.450  1.00  0.00     0.077 A 
HETATM   10  N   UNL     1       5.553  28.931  53.542  1.00  0.00    -0.155 N 
HETATM   11  C   UNL     1       4.870  29.369  54.680  1.00  0.00     0.732 A 
HETATM   12  C   UNL     1       6.802  28.324  53.634  1.00  0.00     0.117 A 
HETATM   13  N   UNL     1       5.433  29.282  55.917  1.00  0.00    -0.074 NA
HETATM   14  N   UNL     1       3.680  29.820  54.353  1.00  0.00    -0.072 NA
HETATM   15  C   UNL     1       6.598  28.718  55.984  1.00  0.00     0.138 A 
HETATM   16  C   UNL     1       7.379  28.181  54.835  1.00  0.00     0.038 A 
HETATM   17  C   UNL     1       3.575  29.684  53.005  1.00  0.00     0.164 A 
ENDBRANCH   8   9
ENDBRANCH   2   8
BRANCH   1  18
HETATM   18  C   UNL     1       5.482  26.011  51.106  1.00  0.00     0.041 A 
HETATM   19  N   UNL     1       6.779  25.540  51.128  1.00  0.00    -0.357 N 
HETATM   20  C   UNL     1       7.039  24.904  52.320  1.00  0.00     0.042 A 
HETATM   21  H   UNL     1       7.459  25.618  50.381  1.00  0.00     0.166 HD
HETATM   22  C   UNL     1       5.868  24.934  53.072  1.00  0.00    -0.008 A 
HETATM   23  C   UNL     1       8.209  24.285  52.775  1.00  0.00     0.030 A 
HETATM   24  C   UNL     1       5.853  24.319  54.338  1.00  0.00     0.014 A 
HETATM   25  C   UNL     1       4.894  25.618  52.298  1.00  0.00     0.040 A 
HETATM   26  C   UNL     1       7.014  23.696  54.808  1.00  0.00     0.001 A 
HETATM   27  C   UNL     1       8.174  23.681  54.036  1.00  0.00     0.002 A 
ENDBRANCH   1  18
TORSDOF 3
ENDMDL
MODEL 9
REMARK VINA RESULT:      -8.1      4.595      7.647
REMARK  3 active torsions:
REMARK  status: ('A' for Active; 'I' for Inactive)
REMARK    1  A    between atoms: C_7  and  C_8 
REMARK    2  A    between atoms: N_9  and  C_11 
REMARK    3  A    between atoms: C_11  and  C_12 
ROOT
HETATM    1  C   UNL     1       4.630  27.004  53.315  1.00  0.00     0.238 C 
HETATM    2  N   UNL     1       4.957  27.859  52.104  1.00  0.00    -0.056 N 
HETATM    3  H   UNL     1       5.927  28.162  52.247  1.00  0.00     0.281 HD
HETATM    4  C   UNL     1       4.126  29.122  52.031  1.00  0.00     0.236 C 
HETATM    5  C   UNL     1       4.308  29.948  53.292  1.00  0.00     0.028 C 
HETATM    6  C   UNL     1       3.902  29.142  54.514  1.00  0.00     0.004 C 
HETATM    7  C   UNL     1       4.715  27.860  54.594  1.00  0.00     0.040 C 
ENDROOT
BRANCH   2   8
HETATM    8  C   UNL     1       4.975  27.113  50.774  1.00  0.00     0.295 C 
BRANCH   8   9
HETATM    9  C   UNL     1       4.776  27.954  49.576  1.00  0.00     0.077 A 
HETATM   10  N   UNL     1       3.656  27.953  48.761  1.00  0.00    -0.155 N 
HETATM   11  C   UNL     1       3.847  28.950  47.800  1.00  0.00     0.732 A 
HETATM   12  C   UNL     1       2.500  27.177  48.782  1.00  0.00     0.117 A 
HETATM   13  N   UNL     1       2.877  29.249  46.892  1.00  0.00    -0.074 NA
HETATM   14  N   UNL     1       5.043  29.480  47.924  1.00  0.00    -0.072 NA
HETATM   15  C   UNL     1       1.807  28.520  46.928  1.00  0.00     0.138 A 
HETATM   16  C   UNL     1       1.535  27.408  47.881  1.00  0.00     0.038 A 
HETATM   17  C   UNL     1       5.642  28.839  48.962  1.00  0.00     0.164 A 
ENDBRANCH   8   9
ENDBRANCH   2   8
BRANCH   1  18
HETATM   18  C   UNL     1       5.576  25.852  53.462  1.00  0.00     0.041 A 
HETATM   19  N   UNL     1       6.398  25.725  54.563  1.00  0.00    -0.357 N 
HETATM   20  C   UNL     1       7.192  24.608  54.444  1.00  0.00     0.042 A 
HETATM   21  H   UNL     1       6.447  26.360  55.351  1.00  0.00     0.166 HD
HETATM   22  C   UNL     1       6.900  24.019  53.218  1.00  0.00    -0.008 A 
HETATM   23  C   UNL     1       8.159  24.093  55.315  1.00  0.00     0.030 A 
HETATM   24  C   UNL     1       7.601  22.861  52.831  1.00  0.00     0.014 A 
HETATM   25  C   UNL     1       5.895  24.812  52.603  1.00  0.00     0.040 A 
HETATM   26  C   UNL     1       8.571  22.333  53.689  1.00  0.00     0.001 A 
HETATM   27  C   UNL     1       8.844  22.942  54.912  1.00  0.00     0.002 A 
ENDBRANCH   1  18
TORSDOF 3
ENDMDL
MODEL 10
REMARK VINA RESULT:      -8.1      3.278      6.403
REMARK  3 active torsions:
REMARK  status: ('A' for Active; 'I' for Inactive)
REMARK    1  A    between atoms: C_7  and  C_8 
REMARK    2  A    between atoms: N_9  and  C_11 
REMARK    3  A    between atoms: C_11  and  C_12 
ROOT
HETATM    1  C   UNL     1       5.046  29.569  53.891  1.00  0.00     0.238 C 
HETATM    2  N   UNL     1       5.411  28.602  55.003  1.00  0.00    -0.056 N 
HETATM    3  H   UNL     1       4.722  27.846  54.935  1.00  0.00     0.281 HD
HETATM    4  C   UNL     1       5.248  29.201  56.383  1.00  0.00     0.236 C 
HETATM    5  C   UNL     1       3.822  29.681  56.586  1.00  0.00     0.028 C 
HETATM    6  C   UNL     1       3.460  30.718  55.536  1.00  0.00     0.004 C 
HETATM    7  C   UNL     1       3.635  30.139  54.141  1.00  0.00     0.040 C 
ENDROOT
BRANCH   2   8
HETATM    8  C   UNL     1       6.762  27.912  54.839  1.00  0.00     0.295 C 
BRANCH   8   9
HETATM    9  C   UNL     1       6.750  26.448  55.035  1.00  0.00     0.077 A 
HETATM   10  N   UNL     1       7.137  25.501  54.101  1.00  0.00    -0.155 N 
HETATM   11  C   UNL     1       7.048  24.252  54.722  1.00  0.00     0.732 A 
HETATM   12  C   UNL     1       7.558  25.626  52.780  1.00  0.00     0.117 A 
HETATM   13  N   UNL     1       7.438  23.116  54.080  1.00  0.00    -0.074 NA
HETATM   14  N   UNL     1       6.542  24.377  55.928  1.00  0.00    -0.072 NA
HETATM   15  C   UNL     1       7.831  23.251  52.853  1.00  0.00     0.138 A 
HETATM   16  C   UNL     1       7.914  24.531  52.094  1.00  0.00     0.038 A 
HETATM   17  C   UNL     1       6.299  25.702  56.107  1.00  0.00     0.164 A 
ENDBRANCH   8   9
ENDBRANCH   2   8
BRANCH   1  18
HETATM   18  C   UNL     1       5.050  28.907  52.547  1.00  0.00     0.041 A 
HETATM   19  N   UNL     1       5.476  29.571  51.415  1.00  0.00    -0.357 N 
HETATM   20  C   UNL     1       5.350  28.763  50.308  1.00  0.00     0.042 A 
HETATM   21  H   UNL     1       5.816  30.524  51.370  1.00  0.00     0.166 HD
HETATM   22  C   UNL     1       4.796  27.559  50.733  1.00  0.00    -0.008 A 
HETATM   23  C   UNL     1       5.660  29.016  48.967  1.00  0.00     0.030 A 
HETATM   24  C   UNL     1       4.533  26.554  49.783  1.00  0.00     0.014 A 
HETATM   25  C   UNL     1       4.599  27.664  52.136  1.00  0.00     0.040 A 
HETATM   26  C   UNL     1       4.837  26.791  48.438  1.00  0.00     0.001 A 
HETATM   27  C   UNL     1       5.393  28.005  48.039  1.00  0.00     0.002 A 
ENDBRANCH   1  18
TORSDOF 3
ENDMDL
