MODEL 1
REMARK VINA RESULT:      -9.7      0.000      0.000
REMARK  3 active torsions:
REMARK  status: ('A' for Active; 'I' for Inactive)
REMARK    1  A    between atoms: C_12  and  C_13 
REMARK       I    between atoms: C_13  and  N_14 
REMARK    2  A    between atoms: N_14  and  C_15 
REMARK    3  A    between atoms: C_15  and  C_16 
ROOT
HETATM    1  C   UNL     1       8.799  21.303  54.889  1.00  0.00     0.001 A 
HETATM    2  C   UNL     1       8.666  22.309  55.850  1.00  0.00     0.016 A 
HETATM    3  C   UNL     1       8.047  23.514  55.510  1.00  0.00     0.026 A 
HETATM    4  C   UNL     1       7.559  23.712  54.203  1.00  0.00     0.081 A 
HETATM    5  O   UNL     1       6.934  24.858  53.762  1.00  0.00    -0.346 OA
HETATM    6  C   UNL     1       6.732  25.974  54.678  1.00  0.00     0.219 A 
HETATM    7  C   UNL     1       7.241  25.770  56.051  1.00  0.00     0.031 A 
HETATM    8  C   UNL     1       7.858  24.609  56.427  1.00  0.00     0.074 A 
HETATM    9  N   UNL     1       8.194  24.758  57.733  1.00  0.00    -0.276 N 
HETATM   10  H   UNL     1       8.668  24.100  58.342  1.00  0.00     0.189 HD
HETATM   11  N   UNL     1       7.828  25.956  58.243  1.00  0.00    -0.168 NA
HETATM   12  C   UNL     1       7.235  26.590  57.203  1.00  0.00     0.155 A 
HETATM   13  C   UNL     1       7.699  22.701  53.251  1.00  0.00     0.038 A 
HETATM   14  C   UNL     1       8.318  21.499  53.594  1.00  0.00     0.003 A 
ENDROOT
BRANCH  12  15
HETATM   15  C   UNL     1       6.677  27.945  57.325  1.00  0.00     0.272 C 
HETATM   16  N   UNL     1       7.638  28.924  57.393  1.00  0.00    -0.351 N 
HETATM   17  H   UNL     1       8.601  28.607  57.329  1.00  0.00     0.163 HD
HETATM   18  O   UNL     1       5.470  28.162  57.360  1.00  0.00    -0.266 OA
BRANCH  16  19
HETATM   19  C   UNL     1       7.335  30.325  57.518  1.00  0.00     0.161 C 
BRANCH  19  20
HETATM   20  C   UNL     1       7.569  30.816  58.924  1.00  0.00    -0.040 A 
HETATM   21  C   UNL     1       8.620  30.292  59.692  1.00  0.00     0.010 A 
HETATM   22  C   UNL     1       8.853  30.755  60.990  1.00  0.00     0.024 A 
HETATM   23  C   UNL     1       8.039  31.750  61.524  1.00  0.00     0.034 A 
HETATM   24 CL   UNL     1       8.327  32.326  63.119  1.00  0.00    -0.084 Cl
HETATM   25  C   UNL     1       6.994  32.284  60.774  1.00  0.00     0.024 A 
HETATM   26  C   UNL     1       6.759  31.818  59.477  1.00  0.00     0.010 A 
ENDBRANCH  19  20
ENDBRANCH  16  19
ENDBRANCH  12  15
TORSDOF 3
ENDMDL
MODEL 2
REMARK VINA RESULT:      -9.2      3.459      8.541
REMARK  3 active torsions:
REMARK  status: ('A' for Active; 'I' for Inactive)
REMARK    1  A    between atoms: C_12  and  C_13 
REMARK       I    between atoms: C_13  and  N_14 
REMARK    2  A    between atoms: N_14  and  C_15 
REMARK    3  A    between atoms: C_15  and  C_16 
ROOT
HETATM    1  C   UNL     1       7.823  32.091  60.842  1.00  0.00     0.001 A 
HETATM    2  C   UNL     1       7.186  31.287  59.894  1.00  0.00     0.016 A 
HETATM    3  C   UNL     1       7.920  30.753  58.833  1.00  0.00     0.026 A 
HETATM    4  C   UNL     1       9.298  31.026  58.721  1.00  0.00     0.081 A 
HETATM    5  O   UNL     1      10.115  30.551  57.718  1.00  0.00    -0.346 OA
HETATM    6  C   UNL     1       9.563  29.696  56.675  1.00  0.00     0.219 A 
HETATM    7  C   UNL     1       8.118  29.406  56.788  1.00  0.00     0.031 A 
HETATM    8  C   UNL     1       7.358  29.912  57.808  1.00  0.00     0.074 A 
HETATM    9  N   UNL     1       6.096  29.455  57.609  1.00  0.00    -0.276 N 
HETATM   10  H   UNL     1       5.267  29.629  58.166  1.00  0.00     0.189 HD
HETATM   11  N   UNL     1       5.981  28.670  56.513  1.00  0.00    -0.168 NA
HETATM   12  C   UNL     1       7.233  28.635  55.999  1.00  0.00     0.155 A 
HETATM   13  C   UNL     1       9.924  31.831  59.673  1.00  0.00     0.038 A 
HETATM   14  C   UNL     1       9.187  32.362  60.732  1.00  0.00     0.003 A 
ENDROOT
BRANCH  12  15
HETATM   15  C   UNL     1       7.562  27.876  54.783  1.00  0.00     0.272 C 
HETATM   16  N   UNL     1       7.036  26.608  54.775  1.00  0.00    -0.351 N 
HETATM   17  H   UNL     1       6.473  26.355  55.581  1.00  0.00     0.163 HD
HETATM   18  O   UNL     1       8.241  28.345  53.875  1.00  0.00    -0.266 OA
BRANCH  16  19
HETATM   19  C   UNL     1       7.225  25.678  53.693  1.00  0.00     0.161 C 
BRANCH  19  20
HETATM   20  C   UNL     1       7.790  24.369  54.185  1.00  0.00    -0.040 A 
HETATM   21  C   UNL     1       8.031  24.170  55.553  1.00  0.00     0.010 A 
HETATM   22  C   UNL     1       8.539  22.954  56.017  1.00  0.00     0.024 A 
HETATM   23  C   UNL     1       8.802  21.927  55.114  1.00  0.00     0.034 A 
HETATM   24 CL   UNL     1       9.421  20.426  55.683  1.00  0.00    -0.084 Cl
HETATM   25  C   UNL     1       8.564  22.106  53.753  1.00  0.00     0.024 A 
HETATM   26  C   UNL     1       8.060  23.324  53.290  1.00  0.00     0.010 A 
ENDBRANCH  19  20
ENDBRANCH  16  19
ENDBRANCH  12  15
TORSDOF 3
ENDMDL
MODEL 3
REMARK VINA RESULT:      -9.2      2.340      3.203
REMARK  3 active torsions:
REMARK  status: ('A' for Active; 'I' for Inactive)
REMARK    1  A    between atoms: C_12  and  C_13 
REMARK       I    between atoms: C_13  and  N_14 
REMARK    2  A    between atoms: N_14  and  C_15 
REMARK    3  A    between atoms: C_15  and  C_16 
ROOT
HETATM    1  C   UNL     1       8.484  20.366  53.429  1.00  0.00     0.001 A 
HETATM    2  C   UNL     1       7.796  21.557  53.185  1.00  0.00     0.016 A 
HETATM    3  C   UNL     1       7.586  22.461  54.228  1.00  0.00     0.026 A 
HETATM    4  C   UNL     1       8.066  22.171  55.521  1.00  0.00     0.081 A 
HETATM    5  O   UNL     1       7.914  22.990  56.619  1.00  0.00    -0.346 OA
HETATM    6  C   UNL     1       7.219  24.264  56.484  1.00  0.00     0.219 A 
HETATM    7  C   UNL     1       6.714  24.573  55.130  1.00  0.00     0.031 A 
HETATM    8  C   UNL     1       6.893  23.715  54.080  1.00  0.00     0.074 A 
HETATM    9  N   UNL     1       6.314  24.302  53.002  1.00  0.00    -0.276 N 
HETATM   10  H   UNL     1       6.250  23.953  52.051  1.00  0.00     0.189 HD
HETATM   11  N   UNL     1       5.764  25.506  53.282  1.00  0.00    -0.168 NA
HETATM   12  C   UNL     1       6.010  25.681  54.603  1.00  0.00     0.155 A 
HETATM   13  C   UNL     1       8.751  20.978  55.753  1.00  0.00     0.038 A 
HETATM   14  C   UNL     1       8.959  20.077  54.708  1.00  0.00     0.003 A 
ENDROOT
BRANCH  12  15
HETATM   15  C   UNL     1       5.578  26.885  55.329  1.00  0.00     0.272 C 
HETATM   16  N   UNL     1       6.055  28.050  54.782  1.00  0.00    -0.351 N 
HETATM   17  H   UNL     1       6.619  27.949  53.944  1.00  0.00     0.163 HD
HETATM   18  O   UNL     1       4.861  26.834  56.324  1.00  0.00    -0.266 OA
BRANCH  16  19
HETATM   19  C   UNL     1       5.769  29.354  55.320  1.00  0.00     0.161 C 
BRANCH  19  20
HETATM   20  C   UNL     1       6.715  29.707  56.440  1.00  0.00    -0.040 A 
HETATM   21  C   UNL     1       6.268  30.465  57.533  1.00  0.00     0.010 A 
HETATM   22  C   UNL     1       7.135  30.782  58.582  1.00  0.00     0.024 A 
HETATM   23  C   UNL     1       8.454  30.336  58.545  1.00  0.00     0.034 A 
HETATM   24 CL   UNL     1       9.522  30.719  59.838  1.00  0.00    -0.084 Cl
HETATM   25  C   UNL     1       8.913  29.579  57.470  1.00  0.00     0.024 A 
HETATM   26  C   UNL     1       8.046  29.266  56.419  1.00  0.00     0.010 A 
ENDBRANCH  19  20
ENDBRANCH  16  19
ENDBRANCH  12  15
TORSDOF 3
ENDMDL
MODEL 4
REMARK VINA RESULT:      -9.1      5.690      7.329
REMARK  3 active torsions:
REMARK  status: ('A' for Active; 'I' for Inactive)
REMARK    1  A    between atoms: C_12  and  C_13 
REMARK       I    between atoms: C_13  and  N_14 
REMARK    2  A    between atoms: N_14  and  C_15 
REMARK    3  A    between atoms: C_15  and  C_16 
ROOT
HETATM    1  C   UNL     1       8.417  20.318  55.673  1.00  0.00     0.001 A 
HETATM    2  C   UNL     1       8.030  21.634  55.941  1.00  0.00     0.016 A 
HETATM    3  C   UNL     1       7.894  22.543  54.890  1.00  0.00     0.026 A 
HETATM    4  C   UNL     1       8.146  22.133  53.565  1.00  0.00     0.081 A 
HETATM    5  O   UNL     1       8.042  22.946  52.457  1.00  0.00    -0.346 OA
HETATM    6  C   UNL     1       7.639  24.337  52.612  1.00  0.00     0.219 A 
HETATM    7  C   UNL     1       7.372  24.772  54.000  1.00  0.00     0.031 A 
HETATM    8  C   UNL     1       7.498  23.917  55.060  1.00  0.00     0.074 A 
HETATM    9  N   UNL     1       7.183  24.633  56.169  1.00  0.00    -0.276 N 
HETATM   10  H   UNL     1       7.169  24.326  57.136  1.00  0.00     0.189 HD
HETATM   11  N   UNL     1       6.851  25.916  55.898  1.00  0.00    -0.168 NA
HETATM   12  C   UNL     1       6.966  26.009  54.552  1.00  0.00     0.155 A 
HETATM   13  C   UNL     1       8.533  20.817  53.310  1.00  0.00     0.038 A 
HETATM   14  C   UNL     1       8.668  19.911  54.363  1.00  0.00     0.003 A 
ENDROOT
BRANCH  12  15
HETATM   15  C   UNL     1       6.688  27.257  53.824  1.00  0.00     0.272 C 
HETATM   16  N   UNL     1       5.417  27.315  53.310  1.00  0.00    -0.351 N 
HETATM   17  H   UNL     1       4.820  26.517  53.508  1.00  0.00     0.163 HD
HETATM   18  O   UNL     1       7.522  28.148  53.699  1.00  0.00    -0.266 OA
BRANCH  16  19
HETATM   19  C   UNL     1       4.916  28.434  52.557  1.00  0.00     0.161 C 
BRANCH  19  20
HETATM   20  C   UNL     1       4.442  28.011  51.190  1.00  0.00    -0.040 A 
HETATM   21  C   UNL     1       4.984  26.874  50.573  1.00  0.00     0.010 A 
HETATM   22  C   UNL     1       4.537  26.467  49.313  1.00  0.00     0.024 A 
HETATM   23  C   UNL     1       3.540  27.194  48.667  1.00  0.00     0.034 A 
HETATM   24 CL   UNL     1       2.984  26.691  47.118  1.00  0.00    -0.084 Cl
HETATM   25  C   UNL     1       2.989  28.323  49.267  1.00  0.00     0.024 A 
HETATM   26  C   UNL     1       3.439  28.732  50.526  1.00  0.00     0.010 A 
ENDBRANCH  19  20
ENDBRANCH  16  19
ENDBRANCH  12  15
TORSDOF 3
ENDMDL
MODEL 5
REMARK VINA RESULT:      -9.1      3.595      8.653
REMARK  3 active torsions:
REMARK  status: ('A' for Active; 'I' for Inactive)
REMARK    1  A    between atoms: C_12  and  C_13 
REMARK       I    between atoms: C_13  and  N_14 
REMARK    2  A    between atoms: N_14  and  C_15 
REMARK    3  A    between atoms: C_15  and  C_16 
ROOT
HETATM    1  C   UNL     1       8.963  32.267  61.015  1.00  0.00     0.001 A 
HETATM    2  C   UNL     1       9.326  31.376  60.001  1.00  0.00     0.016 A 
HETATM    3  C   UNL     1       8.378  30.976  59.058  1.00  0.00     0.026 A 
HETATM    4  C   UNL     1       7.060  31.470  59.129  1.00  0.00     0.081 A 
HETATM    5  O   UNL     1       6.049  31.143  58.251  1.00  0.00    -0.346 OA
HETATM    6  C   UNL     1       6.312  30.227  57.149  1.00  0.00     0.219 A 
HETATM    7  C   UNL     1       7.693  29.707  57.070  1.00  0.00     0.031 A 
HETATM    8  C   UNL     1       8.653  30.067  57.975  1.00  0.00     0.074 A 
HETATM    9  N   UNL     1       9.787  29.416  57.612  1.00  0.00    -0.276 N 
HETATM   10  H   UNL     1      10.699  29.441  58.056  1.00  0.00     0.189 HD
HETATM   11  N   UNL     1       9.629  28.646  56.511  1.00  0.00    -0.168 NA
HETATM   12  C   UNL     1       8.331  28.823  56.169  1.00  0.00     0.155 A 
HETATM   13  C   UNL     1       6.708  32.359  60.145  1.00  0.00     0.038 A 
HETATM   14  C   UNL     1       7.658  32.756  61.087  1.00  0.00     0.003 A 
ENDROOT
BRANCH  12  15
HETATM   15  C   UNL     1       7.729  28.157  55.003  1.00  0.00     0.272 C 
HETATM   16  N   UNL     1       6.799  27.206  55.341  1.00  0.00    -0.351 N 
HETATM   17  H   UNL     1       6.620  27.091  56.334  1.00  0.00     0.163 HD
HETATM   18  O   UNL     1       8.039  28.437  53.850  1.00  0.00    -0.266 OA
BRANCH  16  19
HETATM   19  C   UNL     1       6.079  26.421  54.372  1.00  0.00     0.161 C 
BRANCH  19  20
HETATM   20  C   UNL     1       6.756  25.097  54.123  1.00  0.00    -0.040 A 
HETATM   21  C   UNL     1       6.834  24.138  55.145  1.00  0.00     0.010 A 
HETATM   22  C   UNL     1       7.445  22.902  54.915  1.00  0.00     0.024 A 
HETATM   23  C   UNL     1       7.976  22.618  53.660  1.00  0.00     0.034 A 
HETATM   24 CL   UNL     1       8.724  21.095  53.373  1.00  0.00    -0.084 Cl
HETATM   25  C   UNL     1       7.904  23.557  52.634  1.00  0.00     0.024 A 
HETATM   26  C   UNL     1       7.295  24.794  52.865  1.00  0.00     0.010 A 
ENDBRANCH  19  20
ENDBRANCH  16  19
ENDBRANCH  12  15
TORSDOF 3
ENDMDL
MODEL 6
REMARK VINA RESULT:      -9.0      3.617      9.411
REMARK  3 active torsions:
REMARK  status: ('A' for Active; 'I' for Inactive)
REMARK    1  A    between atoms: C_12  and  C_13 
REMARK       I    between atoms: C_13  and  N_14 
REMARK    2  A    between atoms: N_14  and  C_15 
REMARK    3  A    between atoms: C_15  and  C_16 
ROOT
HETATM    1  C   UNL     1       7.363  33.801  64.798  1.00  0.00     0.001 A 
HETATM    2  C   UNL     1       7.926  32.852  63.940  1.00  0.00     0.016 A 
HETATM    3  C   UNL     1       7.419  32.700  62.648  1.00  0.00     0.026 A 
HETATM    4  C   UNL     1       6.343  33.501  62.213  1.00  0.00     0.081 A 
HETATM    5  O   UNL     1       5.768  33.434  60.962  1.00  0.00    -0.346 OA
HETATM    6  C   UNL     1       6.276  32.486  59.979  1.00  0.00     0.219 A 
HETATM    7  C   UNL     1       7.405  31.644  60.430  1.00  0.00     0.031 A 
HETATM    8  C   UNL     1       7.930  31.755  61.688  1.00  0.00     0.074 A 
HETATM    9  N   UNL     1       8.936  30.848  61.765  1.00  0.00    -0.276 N 
HETATM   10  H   UNL     1       9.547  30.649  62.550  1.00  0.00     0.189 HD
HETATM   11  N   UNL     1       9.107  30.145  60.623  1.00  0.00    -0.168 NA
HETATM   12  C   UNL     1       8.159  30.635  59.789  1.00  0.00     0.155 A 
HETATM   13  C   UNL     1       5.789  34.444  63.079  1.00  0.00     0.038 A 
HETATM   14  C   UNL     1       6.299  34.594  64.369  1.00  0.00     0.003 A 
ENDROOT
BRANCH  12  15
HETATM   15  C   UNL     1       7.993  30.142  58.413  1.00  0.00     0.272 C 
HETATM   16  N   UNL     1       6.879  29.356  58.248  1.00  0.00    -0.351 N 
HETATM   17  H   UNL     1       6.298  29.229  59.072  1.00  0.00     0.163 HD
HETATM   18  O   UNL     1       8.781  30.414  57.514  1.00  0.00    -0.266 OA
BRANCH  16  19
HETATM   19  C   UNL     1       6.509  28.758  56.993  1.00  0.00     0.161 C 
BRANCH  19  20
HETATM   20  C   UNL     1       6.890  27.299  56.945  1.00  0.00    -0.040 A 
HETATM   21  C   UNL     1       6.007  26.354  56.400  1.00  0.00     0.010 A 
HETATM   22  C   UNL     1       6.361  25.004  56.337  1.00  0.00     0.024 A 
HETATM   23  C   UNL     1       7.603  24.593  56.814  1.00  0.00     0.034 A 
HETATM   24 CL   UNL     1       8.043  22.932  56.732  1.00  0.00    -0.084 Cl
HETATM   25  C   UNL     1       8.492  25.519  57.354  1.00  0.00     0.024 A 
HETATM   26  C   UNL     1       8.137  26.869  57.419  1.00  0.00     0.010 A 
ENDBRANCH  19  20
ENDBRANCH  16  19
ENDBRANCH  12  15
TORSDOF 3
ENDMDL
MODEL 7
REMARK VINA RESULT:      -8.8      5.809      8.780
REMARK  3 active torsions:
REMARK  status: ('A' for Active; 'I' for Inactive)
REMARK    1  A    between atoms: C_12  and  C_13 
REMARK       I    between atoms: C_13  and  N_14 
REMARK    2  A    between atoms: N_14  and  C_15 
REMARK    3  A    between atoms: C_15  and  C_16 
ROOT
HETATM    1  C   UNL     1       1.808  28.723  47.977  1.00  0.00     0.001 A 
HETATM    2  C   UNL     1       2.400  29.029  49.205  1.00  0.00     0.016 A 
HETATM    3  C   UNL     1       3.390  28.191  49.725  1.00  0.00     0.026 A 
HETATM    4  C   UNL     1       3.788  27.043  49.012  1.00  0.00     0.081 A 
HETATM    5  O   UNL     1       4.752  26.152  49.431  1.00  0.00    -0.346 OA
HETATM    6  C   UNL     1       5.444  26.371  50.695  1.00  0.00     0.219 A 
HETATM    7  C   UNL     1       5.030  27.575  51.446  1.00  0.00     0.031 A 
HETATM    8  C   UNL     1       4.062  28.420  50.978  1.00  0.00     0.074 A 
HETATM    9  N   UNL     1       3.933  29.406  51.902  1.00  0.00    -0.276 N 
HETATM   10  H   UNL     1       3.307  30.204  51.891  1.00  0.00     0.189 HD
HETATM   11  N   UNL     1       4.768  29.259  52.956  1.00  0.00    -0.168 NA
HETATM   12  C   UNL     1       5.453  28.124  52.679  1.00  0.00     0.155 A 
HETATM   13  C   UNL     1       3.190  26.747  47.787  1.00  0.00     0.038 A 
HETATM   14  C   UNL     1       2.201  27.586  47.271  1.00  0.00     0.003 A 
ENDROOT
BRANCH  12  15
HETATM   15  C   UNL     1       6.487  27.591  53.579  1.00  0.00     0.272 C 
HETATM   16  N   UNL     1       6.116  26.425  54.203  1.00  0.00    -0.351 N 
HETATM   17  H   UNL     1       5.200  26.061  53.957  1.00  0.00     0.163 HD
HETATM   18  O   UNL     1       7.568  28.146  53.746  1.00  0.00    -0.266 OA
BRANCH  16  19
HETATM   19  C   UNL     1       6.959  25.719  55.131  1.00  0.00     0.161 C 
BRANCH  19  20
HETATM   20  C   UNL     1       7.349  24.363  54.599  1.00  0.00    -0.040 A 
HETATM   21  C   UNL     1       7.385  23.251  55.454  1.00  0.00     0.010 A 
HETATM   22  C   UNL     1       7.729  21.988  54.964  1.00  0.00     0.024 A 
HETATM   23  C   UNL     1       8.032  21.831  53.614  1.00  0.00     0.034 A 
HETATM   24 CL   UNL     1       8.450  20.276  53.007  1.00  0.00    -0.084 Cl
HETATM   25  C   UNL     1       7.997  22.924  52.751  1.00  0.00     0.024 A 
HETATM   26  C   UNL     1       7.657  24.187  53.243  1.00  0.00     0.010 A 
ENDBRANCH  19  20
ENDBRANCH  16  19
ENDBRANCH  12  15
TORSDOF 3
ENDMDL
MODEL 8
REMARK VINA RESULT:      -8.6      3.927      9.506
REMARK  3 active torsions:
REMARK  status: ('A' for Active; 'I' for Inactive)
REMARK    1  A    between atoms: C_12  and  C_13 
REMARK       I    between atoms: C_13  and  N_14 
REMARK    2  A    between atoms: N_14  and  C_15 
REMARK    3  A    between atoms: C_15  and  C_16 
ROOT
HETATM    1  C   UNL     1       5.944  34.433  63.317  1.00  0.00     0.001 A 
HETATM    2  C   UNL     1       6.051  33.882  62.037  1.00  0.00     0.016 A 
HETATM    3  C   UNL     1       6.979  32.867  61.796  1.00  0.00     0.026 A 
HETATM    4  C   UNL     1       7.803  32.401  62.841  1.00  0.00     0.081 A 
HETATM    5  O   UNL     1       8.748  31.406  62.714  1.00  0.00    -0.346 OA
HETATM    6  C   UNL     1       8.945  30.752  61.427  1.00  0.00     0.219 A 
HETATM    7  C   UNL     1       8.083  31.237  60.328  1.00  0.00     0.031 A 
HETATM    8  C   UNL     1       7.165  32.233  60.517  1.00  0.00     0.074 A 
HETATM    9  N   UNL     1       6.556  32.426  59.319  1.00  0.00    -0.276 N 
HETATM   10  H   UNL     1       5.824  33.087  59.083  1.00  0.00     0.189 HD
HETATM   11  N   UNL     1       7.021  31.607  58.348  1.00  0.00    -0.168 NA
HETATM   12  C   UNL     1       7.970  30.865  58.968  1.00  0.00     0.155 A 
HETATM   13  C   UNL     1       7.687  32.959  64.115  1.00  0.00     0.038 A 
HETATM   14  C   UNL     1       6.759  33.974  64.352  1.00  0.00     0.003 A 
ENDROOT
BRANCH  12  15
HETATM   15  C   UNL     1       8.739  29.828  58.265  1.00  0.00     0.272 C 
HETATM   16  N   UNL     1       7.983  28.740  57.905  1.00  0.00    -0.351 N 
HETATM   17  H   UNL     1       6.996  28.787  58.140  1.00  0.00     0.163 HD
HETATM   18  O   UNL     1       9.938  29.939  58.030  1.00  0.00    -0.266 OA
BRANCH  16  19
HETATM   19  C   UNL     1       8.516  27.598  57.211  1.00  0.00     0.161 C 
BRANCH  19  20
HETATM   20  C   UNL     1       7.561  27.100  56.155  1.00  0.00    -0.040 A 
HETATM   21  C   UNL     1       6.908  25.868  56.314  1.00  0.00     0.010 A 
HETATM   22  C   UNL     1       6.009  25.409  55.347  1.00  0.00     0.024 A 
HETATM   23  C   UNL     1       5.756  26.184  54.219  1.00  0.00     0.034 A 
HETATM   24 CL   UNL     1       4.645  25.624  53.030  1.00  0.00    -0.084 Cl
HETATM   25  C   UNL     1       6.392  27.411  54.047  1.00  0.00     0.024 A 
HETATM   26  C   UNL     1       7.294  27.868  55.013  1.00  0.00     0.010 A 
ENDBRANCH  19  20
ENDBRANCH  16  19
ENDBRANCH  12  15
TORSDOF 3
ENDMDL
MODEL 9
REMARK VINA RESULT:      -8.5      2.184      2.797
REMARK  3 active torsions:
REMARK  status: ('A' for Active; 'I' for Inactive)
REMARK    1  A    between atoms: C_12  and  C_13 
REMARK       I    between atoms: C_13  and  N_14 
REMARK    2  A    between atoms: N_14  and  C_15 
REMARK    3  A    between atoms: C_15  and  C_16 
ROOT
HETATM    1  C   UNL     1       8.833  20.405  55.799  1.00  0.00     0.001 A 
HETATM    2  C   UNL     1       8.276  21.587  56.293  1.00  0.00     0.016 A 
HETATM    3  C   UNL     1       7.696  22.501  55.411  1.00  0.00     0.026 A 
HETATM    4  C   UNL     1       7.675  22.230  54.028  1.00  0.00     0.081 A 
HETATM    5  O   UNL     1       7.129  23.060  53.072  1.00  0.00    -0.346 OA
HETATM    6  C   UNL     1       6.512  24.319  53.470  1.00  0.00     0.219 A 
HETATM    7  C   UNL     1       6.531  24.607  54.920  1.00  0.00     0.031 A 
HETATM    8  C   UNL     1       7.093  23.744  55.820  1.00  0.00     0.074 A 
HETATM    9  N   UNL     1       6.939  24.310  57.043  1.00  0.00    -0.276 N 
HETATM   10  H   UNL     1       7.236  23.955  57.946  1.00  0.00     0.189 HD
HETATM   11  N   UNL     1       6.301  25.502  57.001  1.00  0.00    -0.168 NA
HETATM   12  C   UNL     1       6.045  25.693  55.685  1.00  0.00     0.155 A 
HETATM   13  C   UNL     1       8.235  21.047  53.546  1.00  0.00     0.038 A 
HETATM   14  C   UNL     1       8.814  20.136  54.431  1.00  0.00     0.003 A 
ENDROOT
BRANCH  12  15
HETATM   15  C   UNL     1       5.347  26.887  55.185  1.00  0.00     0.272 C 
HETATM   16  N   UNL     1       5.219  27.876  56.129  1.00  0.00    -0.351 N 
HETATM   17  H   UNL     1       5.633  27.682  57.036  1.00  0.00     0.163 HD
HETATM   18  O   UNL     1       4.928  26.975  54.036  1.00  0.00    -0.266 OA
BRANCH  16  19
HETATM   19  C   UNL     1       4.570  29.135  55.876  1.00  0.00     0.161 C 
BRANCH  19  20
HETATM   20  C   UNL     1       4.828  30.122  56.987  1.00  0.00    -0.040 A 
HETATM   21  C   UNL     1       3.757  30.685  57.697  1.00  0.00     0.010 A 
HETATM   22  C   UNL     1       3.991  31.587  58.739  1.00  0.00     0.024 A 
HETATM   23  C   UNL     1       5.298  31.925  59.078  1.00  0.00     0.034 A 
HETATM   24 CL   UNL     1       5.588  33.031  60.365  1.00  0.00    -0.084 Cl
HETATM   25  C   UNL     1       6.372  31.372  58.386  1.00  0.00     0.024 A 
HETATM   26  C   UNL     1       6.138  30.473  57.342  1.00  0.00     0.010 A 
ENDBRANCH  19  20
ENDBRANCH  16  19
ENDBRANCH  12  15
TORSDOF 3
ENDMDL
MODEL 10
REMARK VINA RESULT:      -8.5      4.634      5.384
REMARK  3 active torsions:
REMARK  status: ('A' for Active; 'I' for Inactive)
REMARK    1  A    between atoms: C_12  and  C_13 
REMARK       I    between atoms: C_13  and  N_14 
REMARK    2  A    between atoms: N_14  and  C_15 
REMARK    3  A    between atoms: C_15  and  C_16 
ROOT
HETATM    1  C   UNL     1       8.408  20.419  53.181  1.00  0.00     0.001 A 
HETATM    2  C   UNL     1       7.802  21.667  53.018  1.00  0.00     0.016 A 
HETATM    3  C   UNL     1       7.643  22.509  54.120  1.00  0.00     0.026 A 
HETATM    4  C   UNL     1       8.093  22.100  55.392  1.00  0.00     0.081 A 
HETATM    5  O   UNL     1       7.987  22.851  56.543  1.00  0.00    -0.346 OA
HETATM    6  C   UNL     1       7.378  24.174  56.494  1.00  0.00     0.219 A 
HETATM    7  C   UNL     1       6.904  24.608  55.162  1.00  0.00     0.031 A 
HETATM    8  C   UNL     1       7.034  23.813  54.056  1.00  0.00     0.074 A 
HETATM    9  N   UNL     1       6.503  24.509  53.019  1.00  0.00    -0.276 N 
HETATM   10  H   UNL     1       6.425  24.231  52.047  1.00  0.00     0.189 HD
HETATM   11  N   UNL     1       6.032  25.725  53.380  1.00  0.00    -0.168 NA
HETATM   12  C   UNL     1       6.278  25.792  54.710  1.00  0.00     0.155 A 
HETATM   13  C   UNL     1       8.697  20.852  55.543  1.00  0.00     0.038 A 
HETATM   14  C   UNL     1       8.854  20.013  54.439  1.00  0.00     0.003 A 
ENDROOT
BRANCH  12  15
HETATM   15  C   UNL     1       5.920  26.970  55.516  1.00  0.00     0.272 C 
HETATM   16  N   UNL     1       4.672  27.465  55.230  1.00  0.00    -0.351 N 
HETATM   17  H   UNL     1       4.142  26.958  54.528  1.00  0.00     0.163 HD
HETATM   18  O   UNL     1       6.675  27.449  56.356  1.00  0.00    -0.266 OA
BRANCH  16  19
HETATM   19  C   UNL     1       4.105  28.613  55.887  1.00  0.00     0.161 C 
BRANCH  19  20
HETATM   20  C   UNL     1       3.751  29.695  54.898  1.00  0.00    -0.040 A 
HETATM   21  C   UNL     1       3.844  29.452  53.519  1.00  0.00     0.010 A 
HETATM   22  C   UNL     1       3.501  30.445  52.598  1.00  0.00     0.024 A 
HETATM   23  C   UNL     1       3.059  31.685  53.052  1.00  0.00     0.034 A 
HETATM   24 CL   UNL     1       2.631  32.907  51.919  1.00  0.00    -0.084 Cl
HETATM   25  C   UNL     1       2.957  31.941  54.417  1.00  0.00     0.024 A 
HETATM   26  C   UNL     1       3.303  30.948  55.339  1.00  0.00     0.010 A 
ENDBRANCH  19  20
ENDBRANCH  16  19
ENDBRANCH  12  15
TORSDOF 3
ENDMDL
