MODEL 1
REMARK VINA RESULT:      -9.7      0.000      0.000
REMARK  5 active torsions:
REMARK  status: ('A' for Active; 'I' for Inactive)
REMARK    1  A    between atoms: C_2  and  O_3 
REMARK    2  A    between atoms: O_3  and  C_4 
REMARK    3  A    between atoms: C_8  and  C_9 
REMARK    4  A    between atoms: C_9  and  N_10 
REMARK       I    between atoms: N_10  and  C_11 
REMARK       I    between atoms: C_11  and  N_12 
REMARK    5  A    between atoms: N_12  and  C_13 
ROOT
HETATM    1  N   UNL     1       6.460  28.283  55.015  1.00  0.00    -0.339 N 
HETATM    2  C   UNL     1       6.582  26.946  55.299  1.00  0.00     0.316 C 
HETATM    3  N   UNL     1       6.696  26.189  54.154  1.00  0.00    -0.337 N 
HETATM    4  O   UNL     1       6.578  26.485  56.432  1.00  0.00    -0.247 OA
HETATM    5  H   UNL     1       6.094  28.530  54.109  1.00  0.00     0.164 HD
HETATM    6  H   UNL     1       7.098  26.664  53.359  1.00  0.00     0.164 HD
ENDROOT
BRANCH   1   7
HETATM    7  C   UNL     1       6.312  29.257  56.077  1.00  0.00     0.163 C 
BRANCH   7   8
HETATM    8  C   UNL     1       7.580  29.508  56.852  1.00  0.00    -0.035 A 
HETATM    9  C   UNL     1       8.818  29.700  56.232  1.00  0.00     0.028 A 
HETATM   10  C   UNL     1       9.925  29.972  57.022  1.00  0.00     0.120 A 
HETATM   11  N   UNL     1       9.885  30.082  58.365  1.00  0.00    -0.237 NA
HETATM   12  C   UNL     1       8.684  29.933  58.948  1.00  0.00     0.165 A 
HETATM   13  C   UNL     1       7.521  29.650  58.243  1.00  0.00     0.066 A 
BRANCH  12  14
HETATM   14  O   UNL     1       8.531  30.094  60.305  1.00  0.00    -0.324 OA
BRANCH  14  15
HETATM   15  C   UNL     1       8.464  31.413  60.877  1.00  0.00     0.058 C 
HETATM   16  C   UNL     1       7.675  32.411  60.016  1.00  0.00     0.045 C 
HETATM   17  C   UNL     1       9.850  31.945  61.266  1.00  0.00     0.045 C 
HETATM   18  C   UNL     1       7.664  31.202  62.179  1.00  0.00     0.045 C 
ENDBRANCH  14  15
ENDBRANCH  12  14
ENDBRANCH   7   8
ENDBRANCH   1   7
BRANCH   3  19
HETATM   19  C   UNL     1       6.901  24.770  54.238  1.00  0.00     0.100 A 
HETATM   20  C   UNL     1       8.180  24.192  54.797  1.00  0.00     0.049 A 
HETATM   21  C   UNL     1       7.882  24.103  53.308  1.00  0.00     0.024 A 
HETATM   22  C   UNL     1       8.224  22.768  55.254  1.00  0.00    -0.045 A 
HETATM   23  C   UNL     1       7.724  22.647  52.897  1.00  0.00     0.046 A 
HETATM   24  C   UNL     1       7.968  21.889  54.182  1.00  0.00    -0.051 A 
HETATM   25  C   UNL     1       7.940  20.514  54.357  1.00  0.00     0.007 A 
HETATM   26  C   UNL     1       8.174  20.006  55.636  1.00  0.00     0.001 A 
HETATM   27  C   UNL     1       8.429  20.870  56.711  1.00  0.00     0.001 A 
HETATM   28  C   UNL     1       8.454  22.256  56.523  1.00  0.00     0.008 A 
ENDBRANCH   3  19
TORSDOF 5
ENDMDL
MODEL 2
REMARK VINA RESULT:      -9.7      2.360      3.699
REMARK  5 active torsions:
REMARK  status: ('A' for Active; 'I' for Inactive)
REMARK    1  A    between atoms: C_2  and  O_3 
REMARK    2  A    between atoms: O_3  and  C_4 
REMARK    3  A    between atoms: C_8  and  C_9 
REMARK    4  A    between atoms: C_9  and  N_10 
REMARK       I    between atoms: N_10  and  C_11 
REMARK       I    between atoms: C_11  and  N_12 
REMARK    5  A    between atoms: N_12  and  C_13 
ROOT
HETATM    1  N   UNL     1       6.838  29.560  58.085  1.00  0.00    -0.339 N 
HETATM    2  C   UNL     1       7.592  28.602  57.456  1.00  0.00     0.316 C 
HETATM    3  N   UNL     1       6.928  27.398  57.377  1.00  0.00    -0.337 N 
HETATM    4  O   UNL     1       8.722  28.795  57.027  1.00  0.00    -0.247 OA
HETATM    5  H   UNL     1       6.125  29.239  58.722  1.00  0.00     0.164 HD
HETATM    6  H   UNL     1       5.920  27.459  57.365  1.00  0.00     0.164 HD
ENDROOT
BRANCH   1   7
HETATM    7  C   UNL     1       7.355  30.897  58.288  1.00  0.00     0.163 C 
BRANCH   7   8
HETATM    8  C   UNL     1       7.805  31.166  59.702  1.00  0.00    -0.035 A 
HETATM    9  C   UNL     1       8.816  30.430  60.324  1.00  0.00     0.028 A 
HETATM   10  C   UNL     1       9.198  30.777  61.612  1.00  0.00     0.120 A 
HETATM   11  N   UNL     1       8.662  31.801  62.307  1.00  0.00    -0.237 NA
HETATM   12  C   UNL     1       7.717  32.525  61.686  1.00  0.00     0.165 A 
HETATM   13  C   UNL     1       7.263  32.250  60.403  1.00  0.00     0.066 A 
BRANCH  12  14
HETATM   14  O   UNL     1       7.160  33.629  62.289  1.00  0.00    -0.324 OA
BRANCH  14  15
HETATM   15  C   UNL     1       6.378  33.484  63.488  1.00  0.00     0.058 C 
HETATM   16  C   UNL     1       7.227  33.434  64.767  1.00  0.00     0.045 C 
HETATM   17  C   UNL     1       5.392  32.312  63.395  1.00  0.00     0.045 C 
HETATM   18  C   UNL     1       5.551  34.785  63.540  1.00  0.00     0.045 C 
ENDBRANCH  14  15
ENDBRANCH  12  14
ENDBRANCH   7   8
ENDBRANCH   1   7
BRANCH   3  19
HETATM   19  C   UNL     1       7.521  26.284  56.693  1.00  0.00     0.100 A 
HETATM   20  C   UNL     1       6.683  25.127  56.200  1.00  0.00     0.049 A 
HETATM   21  C   UNL     1       7.616  24.949  57.388  1.00  0.00     0.024 A 
HETATM   22  C   UNL     1       7.224  24.198  55.159  1.00  0.00    -0.045 A 
HETATM   23  C   UNL     1       8.709  23.949  57.043  1.00  0.00     0.046 A 
HETATM   24  C   UNL     1       8.370  23.528  55.631  1.00  0.00    -0.051 A 
HETATM   25  C   UNL     1       9.063  22.622  54.842  1.00  0.00     0.007 A 
HETATM   26  C   UNL     1       8.597  22.381  53.549  1.00  0.00     0.001 A 
HETATM   27  C   UNL     1       7.457  23.043  53.066  1.00  0.00     0.001 A 
HETATM   28  C   UNL     1       6.768  23.956  53.871  1.00  0.00     0.008 A 
ENDBRANCH   3  19
TORSDOF 5
ENDMDL
MODEL 3
REMARK VINA RESULT:      -9.4      1.812      2.688
REMARK  5 active torsions:
REMARK  status: ('A' for Active; 'I' for Inactive)
REMARK    1  A    between atoms: C_2  and  O_3 
REMARK    2  A    between atoms: O_3  and  C_4 
REMARK    3  A    between atoms: C_8  and  C_9 
REMARK    4  A    between atoms: C_9  and  N_10 
REMARK       I    between atoms: N_10  and  C_11 
REMARK       I    between atoms: C_11  and  N_12 
REMARK    5  A    between atoms: N_12  and  C_13 
ROOT
HETATM    1  N   UNL     1       7.960  27.579  57.837  1.00  0.00    -0.339 N 
HETATM    2  C   UNL     1       8.046  26.550  56.933  1.00  0.00     0.316 C 
HETATM    3  N   UNL     1       8.597  25.420  57.495  1.00  0.00    -0.337 N 
HETATM    4  O   UNL     1       7.685  26.633  55.767  1.00  0.00    -0.247 OA
HETATM    5  H   UNL     1       8.602  27.562  58.614  1.00  0.00     0.164 HD
HETATM    6  H   UNL     1       8.464  25.322  58.491  1.00  0.00     0.164 HD
ENDROOT
BRANCH   1   7
HETATM    7  C   UNL     1       7.424  28.865  57.448  1.00  0.00     0.163 C 
BRANCH   7   8
HETATM    8  C   UNL     1       8.063  30.030  58.161  1.00  0.00    -0.035 A 
HETATM    9  C   UNL     1       9.389  30.412  57.944  1.00  0.00     0.028 A 
HETATM   10  C   UNL     1       9.880  31.526  58.609  1.00  0.00     0.120 A 
HETATM   11  N   UNL     1       9.150  32.285  59.452  1.00  0.00    -0.237 NA
HETATM   12  C   UNL     1       7.866  31.930  59.625  1.00  0.00     0.165 A 
HETATM   13  C   UNL     1       7.286  30.828  59.010  1.00  0.00     0.066 A 
BRANCH  12  14
HETATM   14  O   UNL     1       7.024  32.682  60.412  1.00  0.00    -0.324 OA
BRANCH  14  15
HETATM   15  C   UNL     1       7.044  32.534  61.843  1.00  0.00     0.058 C 
HETATM   16  C   UNL     1       8.423  32.141  62.396  1.00  0.00     0.045 C 
HETATM   17  C   UNL     1       5.928  31.607  62.344  1.00  0.00     0.045 C 
HETATM   18  C   UNL     1       6.736  33.955  62.358  1.00  0.00     0.045 C 
ENDBRANCH  14  15
ENDBRANCH  12  14
ENDBRANCH   7   8
ENDBRANCH   1   7
BRANCH   3  19
HETATM   19  C   UNL     1       8.712  24.209  56.731  1.00  0.00     0.100 A 
HETATM   20  C   UNL     1       7.547  23.670  55.933  1.00  0.00     0.049 A 
HETATM   21  C   UNL     1       8.005  22.963  57.200  1.00  0.00     0.024 A 
HETATM   22  C   UNL     1       7.782  22.671  54.844  1.00  0.00    -0.045 A 
HETATM   23  C   UNL     1       8.528  21.576  56.859  1.00  0.00     0.046 A 
HETATM   24  C   UNL     1       8.336  21.483  55.363  1.00  0.00    -0.051 A 
HETATM   25  C   UNL     1       8.657  20.410  54.546  1.00  0.00     0.007 A 
HETATM   26  C   UNL     1       8.418  20.529  53.176  1.00  0.00     0.001 A 
HETATM   27  C   UNL     1       7.867  21.706  52.647  1.00  0.00     0.001 A 
HETATM   28  C   UNL     1       7.548  22.782  53.481  1.00  0.00     0.008 A 
ENDBRANCH   3  19
TORSDOF 5
ENDMDL
MODEL 4
REMARK VINA RESULT:      -9.3      1.724      2.302
REMARK  5 active torsions:
REMARK  status: ('A' for Active; 'I' for Inactive)
REMARK    1  A    between atoms: C_2  and  O_3 
REMARK    2  A    between atoms: O_3  and  C_4 
REMARK    3  A    between atoms: C_8  and  C_9 
REMARK    4  A    between atoms: C_9  and  N_10 
REMARK       I    between atoms: N_10  and  C_11 
REMARK       I    between atoms: C_11  and  N_12 
REMARK    5  A    between atoms: N_12  and  C_13 
ROOT
HETATM    1  N   UNL     1       7.288  28.133  56.950  1.00  0.00    -0.339 N 
HETATM    2  C   UNL     1       7.537  26.828  56.610  1.00  0.00     0.316 C 
HETATM    3  N   UNL     1       6.805  26.436  55.511  1.00  0.00    -0.337 N 
HETATM    4  O   UNL     1       8.309  26.098  57.219  1.00  0.00    -0.247 OA
HETATM    5  H   UNL     1       6.402  28.522  56.665  1.00  0.00     0.164 HD
HETATM    6  H   UNL     1       6.555  27.176  54.871  1.00  0.00     0.164 HD
ENDROOT
BRANCH   1   7
HETATM    7  C   UNL     1       7.943  28.742  58.088  1.00  0.00     0.163 C 
BRANCH   7   8
HETATM    8  C   UNL     1       7.410  30.109  58.436  1.00  0.00    -0.035 A 
HETATM    9  C   UNL     1       6.367  30.713  57.732  1.00  0.00     0.028 A 
HETATM   10  C   UNL     1       5.909  31.954  58.151  1.00  0.00     0.120 A 
HETATM   11  N   UNL     1       6.400  32.618  59.217  1.00  0.00    -0.237 NA
HETATM   12  C   UNL     1       7.378  32.011  59.909  1.00  0.00     0.165 A 
HETATM   13  C   UNL     1       7.907  30.775  59.563  1.00  0.00     0.066 A 
BRANCH  12  14
HETATM   14  O   UNL     1       7.894  32.580  61.050  1.00  0.00    -0.324 OA
BRANCH  14  15
HETATM   15  C   UNL     1       7.068  32.751  62.216  1.00  0.00     0.058 C 
HETATM   16  C   UNL     1       6.055  31.613  62.416  1.00  0.00     0.045 C 
HETATM   17  C   UNL     1       6.407  34.135  62.257  1.00  0.00     0.045 C 
HETATM   18  C   UNL     1       8.071  32.679  63.385  1.00  0.00     0.045 C 
ENDBRANCH  14  15
ENDBRANCH  12  14
ENDBRANCH   7   8
ENDBRANCH   1   7
BRANCH   3  19
HETATM   19  C   UNL     1       6.973  25.123  54.955  1.00  0.00     0.100 A 
HETATM   20  C   UNL     1       8.298  24.400  55.032  1.00  0.00     0.049 A 
HETATM   21  C   UNL     1       7.795  24.944  53.704  1.00  0.00     0.024 A 
HETATM   22  C   UNL     1       8.358  22.918  54.829  1.00  0.00    -0.045 A 
HETATM   23  C   UNL     1       7.535  23.797  52.739  1.00  0.00     0.046 A 
HETATM   24  C   UNL     1       7.928  22.572  53.533  1.00  0.00    -0.051 A 
HETATM   25  C   UNL     1       7.880  21.253  53.108  1.00  0.00     0.007 A 
HETATM   26  C   UNL     1       8.270  20.256  54.004  1.00  0.00     0.001 A 
HETATM   27  C   UNL     1       8.699  20.588  55.298  1.00  0.00     0.001 A 
HETATM   28  C   UNL     1       8.743  21.923  55.715  1.00  0.00     0.008 A 
ENDBRANCH   3  19
TORSDOF 5
ENDMDL
MODEL 5
REMARK VINA RESULT:      -9.3      2.547      3.865
REMARK  5 active torsions:
REMARK  status: ('A' for Active; 'I' for Inactive)
REMARK    1  A    between atoms: C_2  and  O_3 
REMARK    2  A    between atoms: O_3  and  C_4 
REMARK    3  A    between atoms: C_8  and  C_9 
REMARK    4  A    between atoms: C_9  and  N_10 
REMARK       I    between atoms: N_10  and  C_11 
REMARK       I    between atoms: C_11  and  N_12 
REMARK    5  A    between atoms: N_12  and  C_13 
ROOT
HETATM    1  N   UNL     1       7.053  29.421  58.121  1.00  0.00    -0.339 N 
HETATM    2  C   UNL     1       7.791  28.382  57.612  1.00  0.00     0.316 C 
HETATM    3  N   UNL     1       6.991  27.349  57.180  1.00  0.00    -0.337 N 
HETATM    4  O   UNL     1       9.014  28.374  57.559  1.00  0.00    -0.247 OA
HETATM    5  H   UNL     1       6.135  29.202  58.474  1.00  0.00     0.164 HD
HETATM    6  H   UNL     1       6.062  27.614  56.885  1.00  0.00     0.164 HD
ENDROOT
BRANCH   1   7
HETATM    7  C   UNL     1       7.701  30.604  58.646  1.00  0.00     0.163 C 
BRANCH   7   8
HETATM    8  C   UNL     1       6.741  31.626  59.200  1.00  0.00    -0.035 A 
HETATM    9  C   UNL     1       5.456  31.812  58.684  1.00  0.00     0.028 A 
HETATM   10  C   UNL     1       4.623  32.743  59.286  1.00  0.00     0.120 A 
HETATM   11  N   UNL     1       4.968  33.481  60.361  1.00  0.00    -0.237 NA
HETATM   12  C   UNL     1       6.192  33.268  60.872  1.00  0.00     0.165 A 
HETATM   13  C   UNL     1       7.099  32.365  60.334  1.00  0.00     0.066 A 
BRANCH  12  14
HETATM   14  O   UNL     1       6.609  33.925  62.007  1.00  0.00    -0.324 OA
BRANCH  14  15
HETATM   15  C   UNL     1       6.542  33.273  63.288  1.00  0.00     0.058 C 
HETATM   16  C   UNL     1       7.900  32.745  63.774  1.00  0.00     0.045 C 
HETATM   17  C   UNL     1       5.447  32.199  63.333  1.00  0.00     0.045 C 
HETATM   18  C   UNL     1       6.124  34.406  64.248  1.00  0.00     0.045 C 
ENDBRANCH  14  15
ENDBRANCH  12  14
ENDBRANCH   7   8
ENDBRANCH   1   7
BRANCH   3  19
HETATM   19  C   UNL     1       7.569  26.195  56.551  1.00  0.00     0.100 A 
HETATM   20  C   UNL     1       6.704  25.085  55.998  1.00  0.00     0.049 A 
HETATM   21  C   UNL     1       7.528  24.863  57.257  1.00  0.00     0.024 A 
HETATM   22  C   UNL     1       7.270  24.116  55.007  1.00  0.00    -0.045 A 
HETATM   23  C   UNL     1       8.583  23.797  57.005  1.00  0.00     0.046 A 
HETATM   24  C   UNL     1       8.332  23.383  55.573  1.00  0.00    -0.051 A 
HETATM   25  C   UNL     1       9.030  22.430  54.846  1.00  0.00     0.007 A 
HETATM   26  C   UNL     1       8.654  22.206  53.521  1.00  0.00     0.001 A 
HETATM   27  C   UNL     1       7.599  22.929  52.946  1.00  0.00     0.001 A 
HETATM   28  C   UNL     1       6.903  23.888  53.689  1.00  0.00     0.008 A 
ENDBRANCH   3  19
TORSDOF 5
ENDMDL
MODEL 6
REMARK VINA RESULT:      -9.2      2.159      2.866
REMARK  5 active torsions:
REMARK  status: ('A' for Active; 'I' for Inactive)
REMARK    1  A    between atoms: C_2  and  O_3 
REMARK    2  A    between atoms: O_3  and  C_4 
REMARK    3  A    between atoms: C_8  and  C_9 
REMARK    4  A    between atoms: C_9  and  N_10 
REMARK       I    between atoms: N_10  and  C_11 
REMARK       I    between atoms: C_11  and  N_12 
REMARK    5  A    between atoms: N_12  and  C_13 
ROOT
HETATM    1  N   UNL     1       5.033  28.044  56.629  1.00  0.00    -0.339 N 
HETATM    2  C   UNL     1       5.378  27.133  55.663  1.00  0.00     0.316 C 
HETATM    3  N   UNL     1       5.980  26.018  56.203  1.00  0.00    -0.337 N 
HETATM    4  O   UNL     1       5.182  27.299  54.466  1.00  0.00    -0.247 OA
HETATM    5  H   UNL     1       5.552  28.017  57.493  1.00  0.00     0.164 HD
HETATM    6  H   UNL     1       5.717  25.801  57.153  1.00  0.00     0.164 HD
ENDROOT
BRANCH   1   7
HETATM    7  C   UNL     1       4.401  29.297  56.276  1.00  0.00     0.163 C 
BRANCH   7   8
HETATM    8  C   UNL     1       4.538  30.365  57.331  1.00  0.00    -0.035 A 
HETATM    9  C   UNL     1       3.458  30.813  58.096  1.00  0.00     0.028 A 
HETATM   10  C   UNL     1       3.685  31.766  59.078  1.00  0.00     0.120 A 
HETATM   11  N   UNL     1       4.897  32.287  59.358  1.00  0.00    -0.237 NA
HETATM   12  C   UNL     1       5.935  31.822  58.642  1.00  0.00     0.165 A 
HETATM   13  C   UNL     1       5.806  30.876  57.634  1.00  0.00     0.066 A 
BRANCH  12  14
HETATM   14  O   UNL     1       7.218  32.244  58.901  1.00  0.00    -0.324 OA
BRANCH  14  15
HETATM   15  C   UNL     1       8.091  31.449  59.724  1.00  0.00     0.058 C 
HETATM   16  C   UNL     1       8.261  30.009  59.219  1.00  0.00     0.045 C 
HETATM   17  C   UNL     1       7.695  31.506  61.206  1.00  0.00     0.045 C 
HETATM   18  C   UNL     1       9.459  32.148  59.581  1.00  0.00     0.045 C 
ENDBRANCH  14  15
ENDBRANCH  12  14
ENDBRANCH   7   8
ENDBRANCH   1   7
BRANCH   3  19
HETATM   19  C   UNL     1       6.356  24.916  55.362  1.00  0.00     0.100 A 
HETATM   20  C   UNL     1       7.594  24.097  55.647  1.00  0.00     0.049 A 
HETATM   21  C   UNL     1       7.556  25.044  54.458  1.00  0.00     0.024 A 
HETATM   22  C   UNL     1       7.752  22.740  55.036  1.00  0.00    -0.045 A 
HETATM   23  C   UNL     1       7.662  24.255  53.162  1.00  0.00     0.046 A 
HETATM   24  C   UNL     1       7.793  22.824  53.630  1.00  0.00    -0.051 A 
HETATM   25  C   UNL     1       7.920  21.694  52.835  1.00  0.00     0.007 A 
HETATM   26  C   UNL     1       8.009  20.451  53.464  1.00  0.00     0.001 A 
HETATM   27  C   UNL     1       7.969  20.354  54.863  1.00  0.00     0.001 A 
HETATM   28  C   UNL     1       7.839  21.500  55.654  1.00  0.00     0.008 A 
ENDBRANCH   3  19
TORSDOF 5
ENDMDL
MODEL 7
REMARK VINA RESULT:      -9.0      1.736      9.494
REMARK  5 active torsions:
REMARK  status: ('A' for Active; 'I' for Inactive)
REMARK    1  A    between atoms: C_2  and  O_3 
REMARK    2  A    between atoms: O_3  and  C_4 
REMARK    3  A    between atoms: C_8  and  C_9 
REMARK    4  A    between atoms: C_9  and  N_10 
REMARK       I    between atoms: N_10  and  C_11 
REMARK       I    between atoms: C_11  and  N_12 
REMARK    5  A    between atoms: N_12  and  C_13 
ROOT
HETATM    1  N   UNL     1       7.388  29.299  55.779  1.00  0.00    -0.339 N 
HETATM    2  C   UNL     1       7.849  29.529  57.051  1.00  0.00     0.316 C 
HETATM    3  N   UNL     1       7.152  30.539  57.674  1.00  0.00    -0.337 N 
HETATM    4  O   UNL     1       8.777  28.915  57.562  1.00  0.00    -0.247 OA
HETATM    5  H   UNL     1       6.918  30.062  55.316  1.00  0.00     0.164 HD
HETATM    6  H   UNL     1       6.201  30.669  57.358  1.00  0.00     0.164 HD
ENDROOT
BRANCH   1   7
HETATM    7  C   UNL     1       7.994  28.287  54.941  1.00  0.00     0.163 C 
BRANCH   7   8
HETATM    8  C   UNL     1       7.077  27.133  54.623  1.00  0.00    -0.035 A 
HETATM    9  C   UNL     1       5.991  27.250  53.752  1.00  0.00     0.028 A 
HETATM   10  C   UNL     1       5.228  26.124  53.481  1.00  0.00     0.120 A 
HETATM   11  N   UNL     1       5.476  24.902  53.996  1.00  0.00    -0.237 NA
HETATM   12  C   UNL     1       6.544  24.793  54.803  1.00  0.00     0.165 A 
HETATM   13  C   UNL     1       7.362  25.864  55.140  1.00  0.00     0.066 A 
BRANCH  12  14
HETATM   14  O   UNL     1       6.917  23.575  55.322  1.00  0.00    -0.324 OA
BRANCH  14  15
HETATM   15  C   UNL     1       7.883  22.758  54.637  1.00  0.00     0.058 C 
HETATM   16  C   UNL     1       8.100  23.169  53.173  1.00  0.00     0.045 C 
HETATM   17  C   UNL     1       7.581  21.260  54.785  1.00  0.00     0.045 C 
HETATM   18  C   UNL     1       9.198  23.044  55.391  1.00  0.00     0.045 C 
ENDBRANCH  14  15
ENDBRANCH  12  14
ENDBRANCH   7   8
ENDBRANCH   1   7
BRANCH   3  19
HETATM   19  C   UNL     1       7.439  30.887  59.037  1.00  0.00     0.100 A 
HETATM   20  C   UNL     1       7.066  32.240  59.599  1.00  0.00     0.049 A 
HETATM   21  C   UNL     1       8.523  31.891  59.338  1.00  0.00     0.024 A 
HETATM   22  C   UNL     1       6.991  32.444  61.080  1.00  0.00    -0.045 A 
HETATM   23  C   UNL     1       9.292  31.862  60.650  1.00  0.00     0.046 A 
HETATM   24  C   UNL     1       8.249  32.232  61.679  1.00  0.00    -0.051 A 
HETATM   25  C   UNL     1       8.433  32.348  63.049  1.00  0.00     0.007 A 
HETATM   26  C   UNL     1       7.331  32.684  63.837  1.00  0.00     0.001 A 
HETATM   27  C   UNL     1       6.074  32.896  63.252  1.00  0.00     0.001 A 
HETATM   28  C   UNL     1       5.900  32.776  61.869  1.00  0.00     0.008 A 
ENDBRANCH   3  19
TORSDOF 5
ENDMDL
MODEL 8
REMARK VINA RESULT:      -8.8      5.407      7.878
REMARK  5 active torsions:
REMARK  status: ('A' for Active; 'I' for Inactive)
REMARK    1  A    between atoms: C_2  and  O_3 
REMARK    2  A    between atoms: O_3  and  C_4 
REMARK    3  A    between atoms: C_8  and  C_9 
REMARK    4  A    between atoms: C_9  and  N_10 
REMARK       I    between atoms: N_10  and  C_11 
REMARK       I    between atoms: C_11  and  N_12 
REMARK    5  A    between atoms: N_12  and  C_13 
ROOT
HETATM    1  N   UNL     1       4.782  27.596  53.820  1.00  0.00    -0.339 N 
HETATM    2  C   UNL     1       5.058  26.264  53.637  1.00  0.00     0.316 C 
HETATM    3  N   UNL     1       6.185  25.875  54.325  1.00  0.00    -0.337 N 
HETATM    4  O   UNL     1       4.387  25.518  52.936  1.00  0.00    -0.247 OA
HETATM    5  H   UNL     1       5.553  28.195  54.071  1.00  0.00     0.164 HD
HETATM    6  H   UNL     1       6.393  26.413  55.154  1.00  0.00     0.164 HD
ENDROOT
BRANCH   1   7
HETATM    7  C   UNL     1       3.646  28.215  53.171  1.00  0.00     0.163 C 
BRANCH   7   8
HETATM    8  C   UNL     1       3.988  28.892  51.867  1.00  0.00    -0.035 A 
HETATM    9  C   UNL     1       5.276  29.341  51.565  1.00  0.00     0.028 A 
HETATM   10  C   UNL     1       5.509  29.912  50.322  1.00  0.00     0.120 A 
HETATM   11  N   UNL     1       4.568  30.050  49.367  1.00  0.00    -0.237 NA
HETATM   12  C   UNL     1       3.342  29.581  49.654  1.00  0.00     0.165 A 
HETATM   13  C   UNL     1       3.010  29.003  50.872  1.00  0.00     0.066 A 
BRANCH  12  14
HETATM   14  O   UNL     1       2.334  29.616  48.718  1.00  0.00    -0.324 OA
BRANCH  14  15
HETATM   15  C   UNL     1       2.146  28.515  47.811  1.00  0.00     0.058 C 
HETATM   16  C   UNL     1       1.187  27.441  48.348  1.00  0.00     0.045 C 
HETATM   17  C   UNL     1       3.480  27.923  47.337  1.00  0.00     0.045 C 
HETATM   18  C   UNL     1       1.464  29.165  46.590  1.00  0.00     0.045 C 
ENDBRANCH  14  15
ENDBRANCH  12  14
ENDBRANCH   7   8
ENDBRANCH   1   7
BRANCH   3  19
HETATM   19  C   UNL     1       6.605  24.502  54.317  1.00  0.00     0.100 A 
HETATM   20  C   UNL     1       7.946  24.087  54.877  1.00  0.00     0.049 A 
HETATM   21  C   UNL     1       7.698  24.063  53.376  1.00  0.00     0.024 A 
HETATM   22  C   UNL     1       8.199  22.656  55.234  1.00  0.00    -0.045 A 
HETATM   23  C   UNL     1       7.776  22.634  52.860  1.00  0.00     0.046 A 
HETATM   24  C   UNL     1       8.106  21.830  54.096  1.00  0.00    -0.051 A 
HETATM   25  C   UNL     1       8.287  20.457  54.174  1.00  0.00     0.007 A 
HETATM   26  C   UNL     1       8.568  19.898  55.422  1.00  0.00     0.001 A 
HETATM   27  C   UNL     1       8.663  20.710  56.562  1.00  0.00     0.001 A 
HETATM   28  C   UNL     1       8.478  22.093  56.472  1.00  0.00     0.008 A 
ENDBRANCH   3  19
TORSDOF 5
ENDMDL
MODEL 9
REMARK VINA RESULT:      -8.8      2.821      4.505
REMARK  5 active torsions:
REMARK  status: ('A' for Active; 'I' for Inactive)
REMARK    1  A    between atoms: C_2  and  O_3 
REMARK    2  A    between atoms: O_3  and  C_4 
REMARK    3  A    between atoms: C_8  and  C_9 
REMARK    4  A    between atoms: C_9  and  N_10 
REMARK       I    between atoms: N_10  and  C_11 
REMARK       I    between atoms: C_11  and  N_12 
REMARK    5  A    between atoms: N_12  and  C_13 
ROOT
HETATM    1  N   UNL     1       6.919  30.576  57.973  1.00  0.00    -0.339 N 
HETATM    2  C   UNL     1       7.305  29.281  57.738  1.00  0.00     0.316 C 
HETATM    3  N   UNL     1       6.683  28.755  56.628  1.00  0.00    -0.337 N 
HETATM    4  O   UNL     1       8.098  28.666  58.439  1.00  0.00    -0.247 OA
HETATM    5  H   UNL     1       6.022  30.861  57.612  1.00  0.00     0.164 HD
HETATM    6  H   UNL     1       6.409  29.427  55.925  1.00  0.00     0.164 HD
ENDROOT
BRANCH   1   7
HETATM    7  C   UNL     1       7.442  31.314  59.103  1.00  0.00     0.163 C 
BRANCH   7   8
HETATM    8  C   UNL     1       6.376  31.929  59.973  1.00  0.00    -0.035 A 
HETATM    9  C   UNL     1       5.164  32.399  59.462  1.00  0.00     0.028 A 
HETATM   10  C   UNL     1       4.220  32.907  60.343  1.00  0.00     0.120 A 
HETATM   11  N   UNL     1       4.390  32.965  61.680  1.00  0.00    -0.237 NA
HETATM   12  C   UNL     1       5.543  32.477  62.164  1.00  0.00     0.165 A 
HETATM   13  C   UNL     1       6.550  31.956  61.362  1.00  0.00     0.066 A 
BRANCH  12  14
HETATM   14  O   UNL     1       5.779  32.431  63.519  1.00  0.00    -0.324 OA
BRANCH  14  15
HETATM   15  C   UNL     1       6.002  33.645  64.258  1.00  0.00     0.058 C 
HETATM   16  C   UNL     1       5.987  34.905  63.380  1.00  0.00     0.045 C 
HETATM   17  C   UNL     1       7.257  33.561  65.138  1.00  0.00     0.045 C 
HETATM   18  C   UNL     1       4.780  33.727  65.196  1.00  0.00     0.045 C 
ENDBRANCH  14  15
ENDBRANCH  12  14
ENDBRANCH   7   8
ENDBRANCH   1   7
BRANCH   3  19
HETATM   19  C   UNL     1       7.003  27.431  56.174  1.00  0.00     0.100 A 
HETATM   20  C   UNL     1       6.312  26.821  54.976  1.00  0.00     0.049 A 
HETATM   21  C   UNL     1       6.012  26.313  56.378  1.00  0.00     0.024 A 
HETATM   22  C   UNL     1       6.919  25.646  54.276  1.00  0.00    -0.045 A 
HETATM   23  C   UNL     1       6.462  24.866  56.512  1.00  0.00     0.046 A 
HETATM   24  C   UNL     1       7.005  24.537  55.140  1.00  0.00    -0.051 A 
HETATM   25  C   UNL     1       7.547  23.329  54.726  1.00  0.00     0.007 A 
HETATM   26  C   UNL     1       8.014  23.231  53.414  1.00  0.00     0.001 A 
HETATM   27  C   UNL     1       7.935  24.329  52.544  1.00  0.00     0.001 A 
HETATM   28  C   UNL     1       7.387  25.542  52.974  1.00  0.00     0.008 A 
ENDBRANCH   3  19
TORSDOF 5
ENDMDL
MODEL 10
REMARK VINA RESULT:      -8.8      1.728      2.826
REMARK  5 active torsions:
REMARK  status: ('A' for Active; 'I' for Inactive)
REMARK    1  A    between atoms: C_2  and  O_3 
REMARK    2  A    between atoms: O_3  and  C_4 
REMARK    3  A    between atoms: C_8  and  C_9 
REMARK    4  A    between atoms: C_9  and  N_10 
REMARK       I    between atoms: N_10  and  C_11 
REMARK       I    between atoms: C_11  and  N_12 
REMARK    5  A    between atoms: N_12  and  C_13 
ROOT
HETATM    1  N   UNL     1       5.613  28.199  53.730  1.00  0.00    -0.339 N 
HETATM    2  C   UNL     1       5.593  26.863  54.044  1.00  0.00     0.316 C 
HETATM    3  N   UNL     1       6.705  26.208  53.567  1.00  0.00    -0.337 N 
HETATM    4  O   UNL     1       4.688  26.321  54.665  1.00  0.00    -0.247 OA
HETATM    5  H   UNL     1       6.158  28.473  52.927  1.00  0.00     0.164 HD
HETATM    6  H   UNL     1       7.533  26.778  53.462  1.00  0.00     0.164 HD
ENDROOT
BRANCH   1   7
HETATM    7  C   UNL     1       4.527  29.071  54.124  1.00  0.00     0.163 C 
BRANCH   7   8
HETATM    8  C   UNL     1       4.718  29.704  55.479  1.00  0.00    -0.035 A 
HETATM    9  C   UNL     1       3.666  29.890  56.379  1.00  0.00     0.028 A 
HETATM   10  C   UNL     1       3.941  30.438  57.623  1.00  0.00     0.120 A 
HETATM   11  N   UNL     1       5.176  30.794  58.035  1.00  0.00    -0.237 NA
HETATM   12  C   UNL     1       6.185  30.576  57.176  1.00  0.00     0.165 A 
HETATM   13  C   UNL     1       6.008  30.041  55.907  1.00  0.00     0.066 A 
BRANCH  12  14
HETATM   14  O   UNL     1       7.486  30.845  57.531  1.00  0.00    -0.324 OA
BRANCH  14  15
HETATM   15  C   UNL     1       8.324  29.802  58.062  1.00  0.00     0.058 C 
HETATM   16  C   UNL     1       9.742  29.800  57.471  1.00  0.00     0.045 C 
HETATM   17  C   UNL     1       7.654  28.424  57.977  1.00  0.00     0.045 C 
HETATM   18  C   UNL     1       8.453  30.167  59.555  1.00  0.00     0.045 C 
ENDBRANCH  14  15
ENDBRANCH  12  14
ENDBRANCH   7   8
ENDBRANCH   1   7
BRANCH   3  19
HETATM   19  C   UNL     1       6.906  24.814  53.850  1.00  0.00     0.100 A 
HETATM   20  C   UNL     1       8.172  24.321  54.512  1.00  0.00     0.049 A 
HETATM   21  C   UNL     1       7.908  24.027  53.043  1.00  0.00     0.024 A 
HETATM   22  C   UNL     1       8.203  22.972  55.160  1.00  0.00    -0.045 A 
HETATM   23  C   UNL     1       7.757  22.529  52.832  1.00  0.00     0.046 A 
HETATM   24  C   UNL     1       7.970  21.955  54.214  1.00  0.00    -0.051 A 
HETATM   25  C   UNL     1       7.936  20.616  54.575  1.00  0.00     0.007 A 
HETATM   26  C   UNL     1       8.139  20.289  55.917  1.00  0.00     0.001 A 
HETATM   27  C   UNL     1       8.371  21.293  56.869  1.00  0.00     0.001 A 
HETATM   28  C   UNL     1       8.402  22.640  56.493  1.00  0.00     0.008 A 
ENDBRANCH   3  19
TORSDOF 5
ENDMDL
