MODEL 1
REMARK VINA RESULT:     -10.2      0.000      0.000
REMARK  6 active torsions:
REMARK  status: ('A' for Active; 'I' for Inactive)
REMARK    1  A    between atoms: O_2  and  C_3 
REMARK    2  A    between atoms: C_6  and  C_7 
REMARK    3  A    between atoms: C_7  and  N_8 
REMARK       I    between atoms: N_8  and  C_9 
REMARK    4  A    between atoms: C_9  and  C_10 
REMARK    5  A    between atoms: C_13  and  C_14 
REMARK    6  A    between atoms: C_19  and  C_20 
ROOT
HETATM    1  C   UNL     1       5.654  26.783  53.132  1.00  0.00     0.096 A 
HETATM    2  C   UNL     1       6.335  25.952  54.007  1.00  0.00     0.138 A 
HETATM    3  N   UNL     1       6.021  26.410  55.266  1.00  0.00    -0.240 N 
HETATM    4  C   UNL     1       6.473  25.796  56.500  1.00  0.00     0.221 C 
HETATM    5  C   UNL     1       6.847  24.330  56.240  1.00  0.00     0.066 C 
HETATM    6  C   UNL     1       7.751  24.203  55.004  1.00  0.00     0.118 C 
HETATM    7  N   UNL     1       7.130  24.861  53.849  1.00  0.00    -0.365 N 
HETATM    8  N   UNL     1       5.124  27.405  55.283  1.00  0.00    -0.181 NA
HETATM    9  C   UNL     1       4.916  27.645  53.985  1.00  0.00     0.160 A 
HETATM   10  H   UNL     1       7.104  24.299  52.999  1.00  0.00     0.161 HD
ENDROOT
BRANCH   1  11
HETATM   11  C   UNL     1       5.624  26.824  51.682  1.00  0.00     0.257 C 
HETATM   12  N   UNL     1       5.402  28.063  51.130  1.00  0.00    -0.352 N 
HETATM   13  H   UNL     1       5.190  28.831  51.748  1.00  0.00     0.163 HD
HETATM   14  O   UNL     1       5.758  25.807  51.010  1.00  0.00    -0.267 OA
BRANCH  12  15
HETATM   15  C   UNL     1       5.352  28.271  49.703  1.00  0.00     0.161 C 
BRANCH  15  16
HETATM   16  C   UNL     1       3.992  27.952  49.137  1.00  0.00    -0.040 A 
HETATM   17  C   UNL     1       2.854  28.632  49.598  1.00  0.00     0.011 A 
HETATM   18  C   UNL     1       1.589  28.362  49.067  1.00  0.00     0.037 A 
HETATM   19  C   UNL     1       1.441  27.410  48.060  1.00  0.00     0.068 A 
HETATM   20  C   UNL     1       2.567  26.718  47.608  1.00  0.00     0.037 A 
HETATM   21  C   UNL     1       3.833  26.982  48.141  1.00  0.00     0.011 A 
BRANCH  19  22
HETATM   22  O   UNL     1       0.267  27.064  47.448  1.00  0.00    -0.356 OA
HETATM   23  C   UNL     1       0.086  27.523  46.113  1.00  0.00     0.210 C 
ENDBRANCH  19  22
ENDBRANCH  15  16
ENDBRANCH  12  15
ENDBRANCH   1  11
BRANCH   4  24
HETATM   24  C   UNL     1       7.615  26.599  57.084  1.00  0.00     0.409 C 
HETATM   25  F   UNL     1       7.216  27.463  58.040  1.00  0.00    -0.169 F 
HETATM   26  F   UNL     1       8.510  25.761  57.671  1.00  0.00    -0.169 F 
HETATM   27  F   UNL     1       8.301  27.299  56.155  1.00  0.00    -0.169 F 
ENDBRANCH   4  24
BRANCH   6  28
HETATM   28  C   UNL     1       8.061  22.750  54.701  1.00  0.00    -0.035 A 
HETATM   29  C   UNL     1       8.078  22.253  53.387  1.00  0.00     0.009 A 
HETATM   30  C   UNL     1       8.345  20.904  53.140  1.00  0.00     0.001 A 
HETATM   31  C   UNL     1       8.586  20.033  54.200  1.00  0.00     0.000 A 
HETATM   32  C   UNL     1       8.560  20.508  55.508  1.00  0.00     0.001 A 
HETATM   33  C   UNL     1       8.300  21.856  55.759  1.00  0.00     0.009 A 
ENDBRANCH   6  28
TORSDOF 6
ENDMDL
MODEL 2
REMARK VINA RESULT:     -10.1      4.540      7.871
REMARK  6 active torsions:
REMARK  status: ('A' for Active; 'I' for Inactive)
REMARK    1  A    between atoms: O_2  and  C_3 
REMARK    2  A    between atoms: C_6  and  C_7 
REMARK    3  A    between atoms: C_7  and  N_8 
REMARK       I    between atoms: N_8  and  C_9 
REMARK    4  A    between atoms: C_9  and  C_10 
REMARK    5  A    between atoms: C_13  and  C_14 
REMARK    6  A    between atoms: C_19  and  C_20 
ROOT
HETATM    1  C   UNL     1       7.558  27.453  55.380  1.00  0.00     0.096 A 
HETATM    2  C   UNL     1       7.259  26.262  54.740  1.00  0.00     0.138 A 
HETATM    3  N   UNL     1       6.907  26.614  53.458  1.00  0.00    -0.240 N 
HETATM    4  C   UNL     1       6.567  25.669  52.409  1.00  0.00     0.221 C 
HETATM    5  C   UNL     1       7.172  24.296  52.737  1.00  0.00     0.066 C 
HETATM    6  C   UNL     1       6.870  23.894  54.189  1.00  0.00     0.118 C 
HETATM    7  N   UNL     1       7.296  24.953  55.110  1.00  0.00    -0.365 N 
HETATM    8  N   UNL     1       7.042  27.919  53.187  1.00  0.00    -0.181 NA
HETATM    9  C   UNL     1       7.419  28.431  54.362  1.00  0.00     0.160 A 
HETATM   10  H   UNL     1       7.861  24.636  55.896  1.00  0.00     0.161 HD
ENDROOT
BRANCH   1  11
HETATM   11  C   UNL     1       7.950  27.728  56.750  1.00  0.00     0.257 C 
HETATM   12  N   UNL     1       8.238  29.043  57.029  1.00  0.00    -0.352 N 
HETATM   13  H   UNL     1       8.247  29.703  56.266  1.00  0.00     0.163 HD
HETATM   14  O   UNL     1       8.042  26.833  57.582  1.00  0.00    -0.267 OA
BRANCH  12  15
HETATM   15  C   UNL     1       8.634  29.481  58.346  1.00  0.00     0.161 C 
BRANCH  15  16
HETATM   16  C   UNL     1       7.729  30.567  58.871  1.00  0.00    -0.040 A 
HETATM   17  C   UNL     1       6.640  31.014  58.108  1.00  0.00     0.011 A 
HETATM   18  C   UNL     1       5.780  32.005  58.591  1.00  0.00     0.037 A 
HETATM   19  C   UNL     1       5.993  32.563  59.850  1.00  0.00     0.068 A 
HETATM   20  C   UNL     1       7.085  32.134  60.608  1.00  0.00     0.037 A 
HETATM   21  C   UNL     1       7.949  31.147  60.125  1.00  0.00     0.011 A 
BRANCH  19  22
HETATM   22  O   UNL     1       5.221  33.524  60.443  1.00  0.00    -0.356 OA
HETATM   23  C   UNL     1       5.362  33.677  61.851  1.00  0.00     0.210 C 
ENDBRANCH  19  22
ENDBRANCH  15  16
ENDBRANCH  12  15
ENDBRANCH   1  11
BRANCH   4  24
HETATM   24  C   UNL     1       5.066  25.622  52.229  1.00  0.00     0.409 C 
HETATM   25  F   UNL     1       4.391  26.016  53.329  1.00  0.00    -0.169 F 
HETATM   26  F   UNL     1       4.699  26.467  51.228  1.00  0.00    -0.169 F 
HETATM   27  F   UNL     1       4.611  24.399  51.881  1.00  0.00    -0.169 F 
ENDBRANCH   4  24
BRANCH   6  28
HETATM   28  C   UNL     1       7.529  22.573  54.537  1.00  0.00    -0.035 A 
HETATM   29  C   UNL     1       7.815  22.214  55.864  1.00  0.00     0.009 A 
HETATM   30  C   UNL     1       8.443  21.000  56.154  1.00  0.00     0.001 A 
HETATM   31  C   UNL     1       8.803  20.136  55.122  1.00  0.00     0.000 A 
HETATM   32  C   UNL     1       8.538  20.483  53.801  1.00  0.00     0.001 A 
HETATM   33  C   UNL     1       7.905  21.693  53.508  1.00  0.00     0.009 A 
ENDBRANCH   6  28
TORSDOF 6
ENDMDL
MODEL 3
REMARK VINA RESULT:      -9.4      4.767      9.327
REMARK  6 active torsions:
REMARK  status: ('A' for Active; 'I' for Inactive)
REMARK    1  A    between atoms: O_2  and  C_3 
REMARK    2  A    between atoms: C_6  and  C_7 
REMARK    3  A    between atoms: C_7  and  N_8 
REMARK       I    between atoms: N_8  and  C_9 
REMARK    4  A    between atoms: C_9  and  C_10 
REMARK    5  A    between atoms: C_13  and  C_14 
REMARK    6  A    between atoms: C_19  and  C_20 
ROOT
HETATM    1  C   UNL     1       7.824  27.313  56.672  1.00  0.00     0.096 A 
HETATM    2  C   UNL     1       7.330  26.663  55.554  1.00  0.00     0.138 A 
HETATM    3  N   UNL     1       6.927  25.424  55.998  1.00  0.00    -0.240 N 
HETATM    4  C   UNL     1       6.290  24.420  55.167  1.00  0.00     0.221 C 
HETATM    5  C   UNL     1       5.644  25.094  53.947  1.00  0.00     0.066 C 
HETATM    6  C   UNL     1       6.625  26.066  53.272  1.00  0.00     0.118 C 
HETATM    7  N   UNL     1       7.154  27.019  54.253  1.00  0.00    -0.365 N 
HETATM    8  N   UNL     1       7.033  25.252  57.322  1.00  0.00    -0.181 NA
HETATM    9  C   UNL     1       7.596  26.393  57.729  1.00  0.00     0.160 A 
HETATM   10  H   UNL     1       7.109  27.996  53.968  1.00  0.00     0.161 HD
ENDROOT
BRANCH   1  11
HETATM   11  C   UNL     1       8.426  28.624  56.827  1.00  0.00     0.257 C 
HETATM   12  N   UNL     1       8.432  29.125  58.107  1.00  0.00    -0.352 N 
HETATM   13  H   UNL     1       7.952  28.605  58.826  1.00  0.00     0.163 HD
HETATM   14  O   UNL     1       8.866  29.244  55.865  1.00  0.00    -0.267 OA
BRANCH  12  15
HETATM   15  C   UNL     1       9.002  30.411  58.427  1.00  0.00     0.161 C 
BRANCH  15  16
HETATM   16  C   UNL     1       8.420  30.983  59.695  1.00  0.00    -0.040 A 
HETATM   17  C   UNL     1       7.288  31.811  59.645  1.00  0.00     0.011 A 
HETATM   18  C   UNL     1       6.724  32.331  60.814  1.00  0.00     0.037 A 
HETATM   19  C   UNL     1       7.281  32.027  62.055  1.00  0.00     0.068 A 
HETATM   20  C   UNL     1       8.418  31.217  62.110  1.00  0.00     0.037 A 
HETATM   21  C   UNL     1       8.986  30.699  60.942  1.00  0.00     0.011 A 
BRANCH  19  22
HETATM   22  O   UNL     1       6.819  32.457  63.269  1.00  0.00    -0.356 OA
HETATM   23  C   UNL     1       7.774  33.050  64.141  1.00  0.00     0.210 C 
ENDBRANCH  19  22
ENDBRANCH  15  16
ENDBRANCH  12  15
ENDBRANCH   1  11
BRANCH   4  24
HETATM   24  C   UNL     1       7.296  23.356  54.786  1.00  0.00     0.409 C 
HETATM   25  F   UNL     1       7.150  22.924  53.516  1.00  0.00    -0.169 F 
HETATM   26  F   UNL     1       8.554  23.862  54.879  1.00  0.00    -0.169 F 
HETATM   27  F   UNL     1       7.259  22.275  55.596  1.00  0.00    -0.169 F 
ENDBRANCH   4  24
BRANCH   6  28
HETATM   28  C   UNL     1       5.965  26.787  52.113  1.00  0.00    -0.035 A 
HETATM   29  C   UNL     1       5.797  28.182  52.106  1.00  0.00     0.009 A 
HETATM   30  C   UNL     1       5.166  28.818  51.034  1.00  0.00     0.001 A 
HETATM   31  C   UNL     1       4.685  28.069  49.963  1.00  0.00     0.000 A 
HETATM   32  C   UNL     1       4.832  26.685  49.960  1.00  0.00     0.001 A 
HETATM   33  C   UNL     1       5.468  26.047  51.027  1.00  0.00     0.009 A 
ENDBRANCH   6  28
TORSDOF 6
ENDMDL
MODEL 4
REMARK VINA RESULT:      -9.2      5.872     10.072
REMARK  6 active torsions:
REMARK  status: ('A' for Active; 'I' for Inactive)
REMARK    1  A    between atoms: O_2  and  C_3 
REMARK    2  A    between atoms: C_6  and  C_7 
REMARK    3  A    between atoms: C_7  and  N_8 
REMARK       I    between atoms: N_8  and  C_9 
REMARK    4  A    between atoms: C_9  and  C_10 
REMARK    5  A    between atoms: C_13  and  C_14 
REMARK    6  A    between atoms: C_19  and  C_20 
ROOT
HETATM    1  C   UNL     1       7.952  29.773  57.920  1.00  0.00     0.096 A 
HETATM    2  C   UNL     1       7.632  30.677  58.919  1.00  0.00     0.138 A 
HETATM    3  N   UNL     1       8.825  31.259  59.281  1.00  0.00    -0.240 N 
HETATM    4  C   UNL     1       8.959  32.317  60.267  1.00  0.00     0.221 C 
HETATM    5  C   UNL     1       7.618  33.049  60.421  1.00  0.00     0.066 C 
HETATM    6  C   UNL     1       6.462  32.052  60.592  1.00  0.00     0.118 C 
HETATM    7  N   UNL     1       6.468  31.072  59.501  1.00  0.00    -0.365 N 
HETATM    8  N   UNL     1       9.873  30.878  58.539  1.00  0.00    -0.181 NA
HETATM    9  C   UNL     1       9.345  29.960  57.725  1.00  0.00     0.160 A 
HETATM   10  H   UNL     1       5.569  30.935  59.043  1.00  0.00     0.161 HD
ENDROOT
BRANCH   1  11
HETATM   11  C   UNL     1       7.126  28.838  57.179  1.00  0.00     0.257 C 
HETATM   12  N   UNL     1       7.799  28.026  56.298  1.00  0.00    -0.352 N 
HETATM   13  H   UNL     1       8.785  28.185  56.157  1.00  0.00     0.163 HD
HETATM   14  O   UNL     1       5.908  28.809  57.317  1.00  0.00    -0.267 OA
BRANCH  12  15
HETATM   15  C   UNL     1       7.123  27.037  55.493  1.00  0.00     0.161 C 
BRANCH  15  16
HETATM   16  C   UNL     1       7.509  25.634  55.886  1.00  0.00    -0.040 A 
HETATM   17  C   UNL     1       8.366  25.413  56.975  1.00  0.00     0.011 A 
HETATM   18  C   UNL     1       8.715  24.116  57.365  1.00  0.00     0.037 A 
HETATM   19  C   UNL     1       8.210  23.017  56.673  1.00  0.00     0.068 A 
HETATM   20  C   UNL     1       7.370  23.230  55.578  1.00  0.00     0.037 A 
HETATM   21  C   UNL     1       7.023  24.526  55.183  1.00  0.00     0.011 A 
BRANCH  19  22
HETATM   22  O   UNL     1       8.461  21.703  56.960  1.00  0.00    -0.356 OA
HETATM   23  C   UNL     1       8.079  20.751  55.974  1.00  0.00     0.210 C 
ENDBRANCH  19  22
ENDBRANCH  15  16
ENDBRANCH  12  15
ENDBRANCH   1  11
BRANCH   4  24
HETATM   24  C   UNL     1       9.467  31.741  61.570  1.00  0.00     0.409 C 
HETATM   25  F   UNL     1       9.291  30.406  61.660  1.00  0.00    -0.169 F 
HETATM   26  F   UNL     1      10.804  31.962  61.677  1.00  0.00    -0.169 F 
HETATM   27  F   UNL     1       8.899  32.306  62.658  1.00  0.00    -0.169 F 
ENDBRANCH   4  24
BRANCH   6  28
HETATM   28  C   UNL     1       5.129  32.771  60.670  1.00  0.00    -0.035 A 
HETATM   29  C   UNL     1       4.595  33.465  59.571  1.00  0.00     0.009 A 
HETATM   30  C   UNL     1       3.375  34.137  59.678  1.00  0.00     0.001 A 
HETATM   31  C   UNL     1       2.679  34.135  60.885  1.00  0.00     0.000 A 
HETATM   32  C   UNL     1       3.201  33.463  61.987  1.00  0.00     0.001 A 
HETATM   33  C   UNL     1       4.417  32.786  61.881  1.00  0.00     0.009 A 
ENDBRANCH   6  28
TORSDOF 6
ENDMDL
MODEL 5
REMARK VINA RESULT:      -9.2      2.485      3.266
REMARK  6 active torsions:
REMARK  status: ('A' for Active; 'I' for Inactive)
REMARK    1  A    between atoms: O_2  and  C_3 
REMARK    2  A    between atoms: C_6  and  C_7 
REMARK    3  A    between atoms: C_7  and  N_8 
REMARK       I    between atoms: N_8  and  C_9 
REMARK    4  A    between atoms: C_9  and  C_10 
REMARK    5  A    between atoms: C_13  and  C_14 
REMARK    6  A    between atoms: C_19  and  C_20 
ROOT
HETATM    1  C   UNL     1       5.245  27.007  52.797  1.00  0.00     0.096 A 
HETATM    2  C   UNL     1       5.923  26.216  53.709  1.00  0.00     0.138 A 
HETATM    3  N   UNL     1       5.628  26.747  54.944  1.00  0.00    -0.240 N 
HETATM    4  C   UNL     1       6.084  26.196  56.207  1.00  0.00     0.221 C 
HETATM    5  C   UNL     1       6.436  24.712  56.024  1.00  0.00     0.066 C 
HETATM    6  C   UNL     1       7.325  24.505  54.789  1.00  0.00     0.118 C 
HETATM    7  N   UNL     1       6.702  25.106  53.605  1.00  0.00    -0.365 N 
HETATM    8  N   UNL     1       4.745  27.754  54.915  1.00  0.00    -0.181 NA
HETATM    9  C   UNL     1       4.528  27.925  53.608  1.00  0.00     0.160 A 
HETATM   10  H   UNL     1       6.659  24.499  52.788  1.00  0.00     0.161 HD
ENDROOT
BRANCH   1  11
HETATM   11  C   UNL     1       5.201  26.968  51.347  1.00  0.00     0.257 C 
HETATM   12  N   UNL     1       4.940  28.169  50.731  1.00  0.00    -0.352 N 
HETATM   13  H   UNL     1       4.712  28.964  51.309  1.00  0.00     0.163 HD
HETATM   14  O   UNL     1       5.357  25.920  50.729  1.00  0.00    -0.267 OA
BRANCH  12  15
HETATM   15  C   UNL     1       4.872  28.298  49.296  1.00  0.00     0.161 C 
BRANCH  15  16
HETATM   16  C   UNL     1       5.106  29.719  48.849  1.00  0.00    -0.040 A 
HETATM   17  C   UNL     1       4.609  30.165  47.615  1.00  0.00     0.011 A 
HETATM   18  C   UNL     1       4.800  31.486  47.196  1.00  0.00     0.037 A 
HETATM   19  C   UNL     1       5.489  32.385  48.008  1.00  0.00     0.068 A 
HETATM   20  C   UNL     1       6.001  31.942  49.230  1.00  0.00     0.037 A 
HETATM   21  C   UNL     1       5.815  30.621  49.649  1.00  0.00     0.011 A 
BRANCH  19  22
HETATM   22  O   UNL     1       5.730  33.701  47.725  1.00  0.00    -0.356 OA
HETATM   23  C   UNL     1       6.732  33.971  46.751  1.00  0.00     0.210 C 
ENDBRANCH  19  22
ENDBRANCH  15  16
ENDBRANCH  12  15
ENDBRANCH   1  11
BRANCH   4  24
HETATM   24  C   UNL     1       7.243  27.013  56.734  1.00  0.00     0.409 C 
HETATM   25  F   UNL     1       6.864  27.945  57.634  1.00  0.00    -0.169 F 
HETATM   26  F   UNL     1       8.125  26.198  57.372  1.00  0.00    -0.169 F 
HETATM   27  F   UNL     1       7.938  27.640  55.760  1.00  0.00    -0.169 F 
ENDBRANCH   4  24
BRANCH   6  28
HETATM   28  C   UNL     1       7.611  23.032  54.564  1.00  0.00    -0.035 A 
HETATM   29  C   UNL     1       7.649  22.114  55.626  1.00  0.00     0.009 A 
HETATM   30  C   UNL     1       7.937  20.767  55.393  1.00  0.00     0.001 A 
HETATM   31  C   UNL     1       8.202  20.323  54.099  1.00  0.00     0.000 A 
HETATM   32  C   UNL     1       8.181  21.223  53.038  1.00  0.00     0.001 A 
HETATM   33  C   UNL     1       7.888  22.568  53.267  1.00  0.00     0.009 A 
ENDBRANCH   6  28
TORSDOF 6
ENDMDL
MODEL 6
REMARK VINA RESULT:      -9.1      5.681      9.550
REMARK  6 active torsions:
REMARK  status: ('A' for Active; 'I' for Inactive)
REMARK    1  A    between atoms: O_2  and  C_3 
REMARK    2  A    between atoms: C_6  and  C_7 
REMARK    3  A    between atoms: C_7  and  N_8 
REMARK       I    between atoms: N_8  and  C_9 
REMARK    4  A    between atoms: C_9  and  C_10 
REMARK    5  A    between atoms: C_13  and  C_14 
REMARK    6  A    between atoms: C_19  and  C_20 
ROOT
HETATM    1  C   UNL     1       6.889  29.455  56.953  1.00  0.00     0.096 A 
HETATM    2  C   UNL     1       6.511  28.562  55.965  1.00  0.00     0.138 A 
HETATM    3  N   UNL     1       5.800  29.306  55.051  1.00  0.00    -0.240 N 
HETATM    4  C   UNL     1       5.255  28.785  53.811  1.00  0.00     0.221 C 
HETATM    5  C   UNL     1       6.019  27.516  53.406  1.00  0.00     0.066 C 
HETATM    6  C   UNL     1       6.152  26.550  54.593  1.00  0.00     0.118 C 
HETATM    7  N   UNL     1       6.737  27.239  55.748  1.00  0.00    -0.365 N 
HETATM    8  N   UNL     1       5.765  30.619  55.317  1.00  0.00    -0.181 NA
HETATM    9  C   UNL     1       6.410  30.706  56.483  1.00  0.00     0.160 A 
HETATM   10  H   UNL     1       7.516  26.751  56.189  1.00  0.00     0.161 HD
ENDROOT
BRANCH   1  11
HETATM   11  C   UNL     1       7.617  29.256  58.192  1.00  0.00     0.257 C 
HETATM   12  N   UNL     1       7.893  30.398  58.906  1.00  0.00    -0.352 N 
HETATM   13  H   UNL     1       7.658  31.289  58.494  1.00  0.00     0.163 HD
HETATM   14  O   UNL     1       7.983  28.141  58.548  1.00  0.00    -0.267 OA
BRANCH  12  15
HETATM   15  C   UNL     1       8.602  30.367  60.162  1.00  0.00     0.161 C 
BRANCH  15  16
HETATM   16  C   UNL     1       8.067  31.390  61.133  1.00  0.00    -0.040 A 
HETATM   17  C   UNL     1       7.013  32.238  60.761  1.00  0.00     0.011 A 
HETATM   18  C   UNL     1       6.492  33.176  61.658  1.00  0.00     0.037 A 
HETATM   19  C   UNL     1       7.016  33.280  62.945  1.00  0.00     0.068 A 
HETATM   20  C   UNL     1       8.077  32.450  63.316  1.00  0.00     0.037 A 
HETATM   21  C   UNL     1       8.602  31.514  62.419  1.00  0.00     0.011 A 
BRANCH  19  22
HETATM   22  O   UNL     1       6.589  34.141  63.919  1.00  0.00    -0.356 OA
HETATM   23  C   UNL     1       6.895  33.786  65.262  1.00  0.00     0.210 C 
ENDBRANCH  19  22
ENDBRANCH  15  16
ENDBRANCH  12  15
ENDBRANCH   1  11
BRANCH   4  24
HETATM   24  C   UNL     1       3.768  28.550  53.964  1.00  0.00     0.409 C 
HETATM   25  F   UNL     1       3.338  27.453  53.307  1.00  0.00    -0.169 F 
HETATM   26  F   UNL     1       3.467  28.357  55.276  1.00  0.00    -0.169 F 
HETATM   27  F   UNL     1       3.020  29.597  53.552  1.00  0.00    -0.169 F 
ENDBRANCH   4  24
BRANCH   6  28
HETATM   28  C   UNL     1       6.971  25.331  54.214  1.00  0.00    -0.035 A 
HETATM   29  C   UNL     1       7.129  24.930  52.877  1.00  0.00     0.009 A 
HETATM   30  C   UNL     1       7.871  23.789  52.558  1.00  0.00     0.001 A 
HETATM   31  C   UNL     1       8.454  23.030  53.571  1.00  0.00     0.000 A 
HETATM   32  C   UNL     1       8.296  23.407  54.901  1.00  0.00     0.001 A 
HETATM   33  C   UNL     1       7.561  24.549  55.222  1.00  0.00     0.009 A 
ENDBRANCH   6  28
TORSDOF 6
ENDMDL
MODEL 7
REMARK VINA RESULT:      -9.0      2.340      3.296
REMARK  6 active torsions:
REMARK  status: ('A' for Active; 'I' for Inactive)
REMARK    1  A    between atoms: O_2  and  C_3 
REMARK    2  A    between atoms: C_6  and  C_7 
REMARK    3  A    between atoms: C_7  and  N_8 
REMARK       I    between atoms: N_8  and  C_9 
REMARK    4  A    between atoms: C_9  and  C_10 
REMARK    5  A    between atoms: C_13  and  C_14 
REMARK    6  A    between atoms: C_19  and  C_20 
ROOT
HETATM    1  C   UNL     1       4.655  29.909  54.971  1.00  0.00     0.096 A 
HETATM    2  C   UNL     1       5.614  28.940  55.213  1.00  0.00     0.138 A 
HETATM    3  N   UNL     1       5.814  28.955  56.574  1.00  0.00    -0.240 N 
HETATM    4  C   UNL     1       6.703  28.054  57.285  1.00  0.00     0.221 C 
HETATM    5  C   UNL     1       6.937  26.791  56.444  1.00  0.00     0.066 C 
HETATM    6  C   UNL     1       7.292  27.152  54.993  1.00  0.00     0.118 C 
HETATM    7  N   UNL     1       6.279  28.049  54.429  1.00  0.00    -0.365 N 
HETATM    8  N   UNL     1       5.001  29.784  57.242  1.00  0.00    -0.181 NA
HETATM    9  C   UNL     1       4.310  30.378  56.265  1.00  0.00     0.160 A 
HETATM   10  H   UNL     1       5.922  27.772  53.515  1.00  0.00     0.161 HD
ENDROOT
BRANCH   1  11
HETATM   11  C   UNL     1       4.067  30.382  53.731  1.00  0.00     0.257 C 
HETATM   12  N   UNL     1       3.558  29.406  52.908  1.00  0.00    -0.352 N 
HETATM   13  H   UNL     1       3.700  28.441  53.165  1.00  0.00     0.163 HD
HETATM   14  O   UNL     1       4.061  31.573  53.439  1.00  0.00    -0.267 OA
BRANCH  12  15
HETATM   15  C   UNL     1       2.933  29.715  51.645  1.00  0.00     0.161 C 
BRANCH  15  16
HETATM   16  C   UNL     1       3.283  28.702  50.584  1.00  0.00    -0.040 A 
HETATM   17  C   UNL     1       4.436  27.912  50.710  1.00  0.00     0.011 A 
HETATM   18  C   UNL     1       4.761  26.953  49.745  1.00  0.00     0.037 A 
HETATM   19  C   UNL     1       3.936  26.767  48.637  1.00  0.00     0.068 A 
HETATM   20  C   UNL     1       2.796  27.562  48.497  1.00  0.00     0.037 A 
HETATM   21  C   UNL     1       2.471  28.524  49.459  1.00  0.00     0.011 A 
BRANCH  19  22
HETATM   22  O   UNL     1       4.132  25.857  47.634  1.00  0.00    -0.356 OA
HETATM   23  C   UNL     1       3.002  25.088  47.241  1.00  0.00     0.210 C 
ENDBRANCH  19  22
ENDBRANCH  15  16
ENDBRANCH  12  15
ENDBRANCH   1  11
BRANCH   4  24
HETATM   24  C   UNL     1       7.988  28.773  57.634  1.00  0.00     0.409 C 
HETATM   25  F   UNL     1       8.007  29.230  58.903  1.00  0.00    -0.169 F 
HETATM   26  F   UNL     1       9.038  27.917  57.517  1.00  0.00    -0.169 F 
HETATM   27  F   UNL     1       8.253  29.815  56.816  1.00  0.00    -0.169 F 
ENDBRANCH   4  24
BRANCH   6  28
HETATM   28  C   UNL     1       7.450  25.906  54.144  1.00  0.00    -0.035 A 
HETATM   29  C   UNL     1       7.580  25.972  52.746  1.00  0.00     0.009 A 
HETATM   30  C   UNL     1       7.702  24.806  51.987  1.00  0.00     0.001 A 
HETATM   31  C   UNL     1       7.684  23.560  52.611  1.00  0.00     0.000 A 
HETATM   32  C   UNL     1       7.544  23.478  53.993  1.00  0.00     0.001 A 
HETATM   33  C   UNL     1       7.428  24.641  54.756  1.00  0.00     0.009 A 
ENDBRANCH   6  28
TORSDOF 6
ENDMDL
MODEL 8
REMARK VINA RESULT:      -8.7      4.227      7.962
REMARK  6 active torsions:
REMARK  status: ('A' for Active; 'I' for Inactive)
REMARK    1  A    between atoms: O_2  and  C_3 
REMARK    2  A    between atoms: C_6  and  C_7 
REMARK    3  A    between atoms: C_7  and  N_8 
REMARK       I    between atoms: N_8  and  C_9 
REMARK    4  A    between atoms: C_9  and  C_10 
REMARK    5  A    between atoms: C_13  and  C_14 
REMARK    6  A    between atoms: C_19  and  C_20 
ROOT
HETATM    1  C   UNL     1       4.888  28.779  53.782  1.00  0.00     0.096 A 
HETATM    2  C   UNL     1       5.266  27.566  53.231  1.00  0.00     0.138 A 
HETATM    3  N   UNL     1       5.426  27.808  51.887  1.00  0.00    -0.240 N 
HETATM    4  C   UNL     1       5.875  26.822  50.921  1.00  0.00     0.221 C 
HETATM    5  C   UNL     1       6.649  25.709  51.643  1.00  0.00     0.066 C 
HETATM    6  C   UNL     1       5.875  25.208  52.871  1.00  0.00     0.118 C 
HETATM    7  N   UNL     1       5.520  26.332  53.744  1.00  0.00    -0.365 N 
HETATM    8  N   UNL     1       5.275  29.092  51.535  1.00  0.00    -0.181 NA
HETATM    9  C   UNL     1       4.929  29.678  52.685  1.00  0.00     0.160 A 
HETATM   10  H   UNL     1       5.749  26.199  54.728  1.00  0.00     0.161 HD
ENDROOT
BRANCH   1  11
HETATM   11  C   UNL     1       4.539  29.142  55.143  1.00  0.00     0.257 C 
HETATM   12  N   UNL     1       5.035  30.348  55.578  1.00  0.00    -0.352 N 
HETATM   13  H   UNL     1       5.668  30.851  54.975  1.00  0.00     0.163 HD
HETATM   14  O   UNL     1       3.872  28.399  55.853  1.00  0.00    -0.267 OA
BRANCH  12  15
HETATM   15  C   UNL     1       4.770  30.855  56.902  1.00  0.00     0.161 C 
BRANCH  15  16
HETATM   16  C   UNL     1       5.971  30.725  57.804  1.00  0.00    -0.040 A 
HETATM   17  C   UNL     1       6.228  31.693  58.788  1.00  0.00     0.011 A 
HETATM   18  C   UNL     1       7.326  31.574  59.646  1.00  0.00     0.037 A 
HETATM   19  C   UNL     1       8.185  30.482  59.537  1.00  0.00     0.068 A 
HETATM   20  C   UNL     1       7.944  29.524  58.549  1.00  0.00     0.037 A 
HETATM   21  C   UNL     1       6.850  29.643  57.686  1.00  0.00     0.011 A 
BRANCH  19  22
HETATM   22  O   UNL     1       9.280  30.241  60.320  1.00  0.00    -0.356 OA
HETATM   23  C   UNL     1       9.252  30.776  61.638  1.00  0.00     0.210 C 
ENDBRANCH  19  22
ENDBRANCH  15  16
ENDBRANCH  12  15
ENDBRANCH   1  11
BRANCH   4  24
HETATM   24  C   UNL     1       4.693  26.300  50.133  1.00  0.00     0.409 C 
HETATM   25  F   UNL     1       3.615  27.108  50.205  1.00  0.00    -0.169 F 
HETATM   26  F   UNL     1       5.023  26.212  48.817  1.00  0.00    -0.169 F 
HETATM   27  F   UNL     1       4.307  25.063  50.513  1.00  0.00    -0.169 F 
ENDBRANCH   4  24
BRANCH   6  28
HETATM   28  C   UNL     1       6.671  24.161  53.628  1.00  0.00    -0.035 A 
HETATM   29  C   UNL     1       6.738  24.152  55.031  1.00  0.00     0.009 A 
HETATM   30  C   UNL     1       7.497  23.189  55.700  1.00  0.00     0.001 A 
HETATM   31  C   UNL     1       8.207  22.232  54.977  1.00  0.00     0.000 A 
HETATM   32  C   UNL     1       8.160  22.236  53.587  1.00  0.00     0.001 A 
HETATM   33  C   UNL     1       7.397  23.193  52.915  1.00  0.00     0.009 A 
ENDBRANCH   6  28
TORSDOF 6
ENDMDL
MODEL 9
REMARK VINA RESULT:      -8.7      4.067      8.813
REMARK  6 active torsions:
REMARK  status: ('A' for Active; 'I' for Inactive)
REMARK    1  A    between atoms: O_2  and  C_3 
REMARK    2  A    between atoms: C_6  and  C_7 
REMARK    3  A    between atoms: C_7  and  N_8 
REMARK       I    between atoms: N_8  and  C_9 
REMARK    4  A    between atoms: C_9  and  C_10 
REMARK    5  A    between atoms: C_13  and  C_14 
REMARK    6  A    between atoms: C_19  and  C_20 
ROOT
HETATM    1  C   UNL     1       5.400  27.378  55.111  1.00  0.00     0.096 A 
HETATM    2  C   UNL     1       5.488  26.839  53.838  1.00  0.00     0.138 A 
HETATM    3  N   UNL     1       5.822  25.517  54.023  1.00  0.00    -0.240 N 
HETATM    4  C   UNL     1       5.966  24.548  52.952  1.00  0.00     0.221 C 
HETATM    5  C   UNL     1       5.184  25.023  51.719  1.00  0.00     0.066 C 
HETATM    6  C   UNL     1       5.497  26.493  51.401  1.00  0.00     0.118 C 
HETATM    7  N   UNL     1       5.279  27.328  52.587  1.00  0.00    -0.365 N 
HETATM    8  N   UNL     1       5.867  25.133  55.305  1.00  0.00    -0.181 NA
HETATM    9  C   UNL     1       5.629  26.269  55.967  1.00  0.00     0.160 A 
HETATM   10  H   UNL     1       4.713  28.161  52.426  1.00  0.00     0.161 HD
ENDROOT
BRANCH   1  11
HETATM   11  C   UNL     1       5.123  28.731  55.558  1.00  0.00     0.257 C 
HETATM   12  N   UNL     1       5.237  28.940  56.911  1.00  0.00    -0.352 N 
HETATM   13  H   UNL     1       5.413  28.144  57.506  1.00  0.00     0.163 HD
HETATM   14  O   UNL     1       4.782  29.608  54.773  1.00  0.00    -0.267 OA
BRANCH  12  15
HETATM   15  C   UNL     1       5.004  30.231  57.512  1.00  0.00     0.161 C 
BRANCH  15  16
HETATM   16  C   UNL     1       6.237  30.763  58.197  1.00  0.00    -0.040 A 
HETATM   17  C   UNL     1       7.502  30.242  57.885  1.00  0.00     0.011 A 
HETATM   18  C   UNL     1       8.657  30.740  58.496  1.00  0.00     0.037 A 
HETATM   19  C   UNL     1       8.567  31.772  59.428  1.00  0.00     0.068 A 
HETATM   20  C   UNL     1       7.309  32.283  59.756  1.00  0.00     0.037 A 
HETATM   21  C   UNL     1       6.151  31.784  59.149  1.00  0.00     0.011 A 
BRANCH  19  22
HETATM   22  O   UNL     1       9.616  32.356  60.083  1.00  0.00    -0.356 OA
HETATM   23  C   UNL     1       9.815  31.971  61.438  1.00  0.00     0.210 C 
ENDBRANCH  19  22
ENDBRANCH  15  16
ENDBRANCH  12  15
ENDBRANCH   1  11
BRANCH   4  24
HETATM   24  C   UNL     1       7.433  24.316  52.664  1.00  0.00     0.409 C 
HETATM   25  F   UNL     1       7.809  23.033  52.845  1.00  0.00    -0.169 F 
HETATM   26  F   UNL     1       7.697  24.615  51.364  1.00  0.00    -0.169 F 
HETATM   27  F   UNL     1       8.250  25.094  53.407  1.00  0.00    -0.169 F 
ENDBRANCH   4  24
BRANCH   6  28
HETATM   28  C   UNL     1       4.669  26.986  50.229  1.00  0.00    -0.035 A 
HETATM   29  C   UNL     1       4.136  28.284  50.191  1.00  0.00     0.009 A 
HETATM   30  C   UNL     1       3.359  28.704  49.109  1.00  0.00     0.001 A 
HETATM   31  C   UNL     1       3.096  27.829  48.057  1.00  0.00     0.000 A 
HETATM   32  C   UNL     1       3.607  26.535  48.085  1.00  0.00     0.001 A 
HETATM   33  C   UNL     1       4.389  26.114  49.162  1.00  0.00     0.009 A 
ENDBRANCH   6  28
TORSDOF 6
ENDMDL
MODEL 10
REMARK VINA RESULT:      -8.6      9.728     13.681
REMARK  6 active torsions:
REMARK  status: ('A' for Active; 'I' for Inactive)
REMARK    1  A    between atoms: O_2  and  C_3 
REMARK    2  A    between atoms: C_6  and  C_7 
REMARK    3  A    between atoms: C_7  and  N_8 
REMARK       I    between atoms: N_8  and  C_9 
REMARK    4  A    between atoms: C_9  and  C_10 
REMARK    5  A    between atoms: C_13  and  C_14 
REMARK    6  A    between atoms: C_19  and  C_20 
ROOT
HETATM    1  C   UNL     1       6.607  32.718  62.544  1.00  0.00     0.096 A 
HETATM    2  C   UNL     1       5.907  33.905  62.688  1.00  0.00     0.138 A 
HETATM    3  N   UNL     1       4.753  33.570  63.358  1.00  0.00    -0.240 N 
HETATM    4  C   UNL     1       3.740  34.520  63.777  1.00  0.00     0.221 C 
HETATM    5  C   UNL     1       4.358  35.922  63.876  1.00  0.00     0.066 C 
HETATM    6  C   UNL     1       5.176  36.254  62.619  1.00  0.00     0.118 C 
HETATM    7  N   UNL     1       6.161  35.199  62.359  1.00  0.00    -0.365 N 
HETATM    8  N   UNL     1       4.689  32.287  63.741  1.00  0.00    -0.181 NA
HETATM    9  C   UNL     1       5.808  31.766  63.228  1.00  0.00     0.160 A 
HETATM   10  H   UNL     1       7.110  35.531  62.190  1.00  0.00     0.161 HD
ENDROOT
BRANCH   1  11
HETATM   11  C   UNL     1       7.868  32.427  61.888  1.00  0.00     0.257 C 
HETATM   12  N   UNL     1       7.855  32.513  60.516  1.00  0.00    -0.352 N 
HETATM   13  H   UNL     1       6.973  32.679  60.055  1.00  0.00     0.163 HD
HETATM   14  O   UNL     1       8.862  32.099  62.527  1.00  0.00    -0.267 OA
BRANCH  12  15
HETATM   15  C   UNL     1       9.030  32.262  59.719  1.00  0.00     0.161 C 
BRANCH  15  16
HETATM   16  C   UNL     1       8.891  31.008  58.893  1.00  0.00    -0.040 A 
HETATM   17  C   UNL     1       7.691  30.282  58.903  1.00  0.00     0.011 A 
HETATM   18  C   UNL     1       7.539  29.129  58.125  1.00  0.00     0.037 A 
HETATM   19  C   UNL     1       8.587  28.684  57.322  1.00  0.00     0.068 A 
HETATM   20  C   UNL     1       9.791  29.393  57.321  1.00  0.00     0.037 A 
HETATM   21  C   UNL     1       9.947  30.544  58.100  1.00  0.00     0.011 A 
BRANCH  19  22
HETATM   22  O   UNL     1       8.564  27.586  56.506  1.00  0.00    -0.356 OA
HETATM   23  C   UNL     1       8.142  26.362  57.097  1.00  0.00     0.210 C 
ENDBRANCH  19  22
ENDBRANCH  15  16
ENDBRANCH  12  15
ENDBRANCH   1  11
BRANCH   4  24
HETATM   24  C   UNL     1       2.562  34.464  62.829  1.00  0.00     0.409 C 
HETATM   25  F   UNL     1       2.814  33.741  61.718  1.00  0.00    -0.169 F 
HETATM   26  F   UNL     1       1.507  33.868  63.446  1.00  0.00    -0.169 F 
HETATM   27  F   UNL     1       2.135  35.685  62.439  1.00  0.00    -0.169 F 
ENDBRANCH   4  24
BRANCH   6  28
HETATM   28  C   UNL     1       5.849  37.607  62.747  1.00  0.00    -0.035 A 
HETATM   29  C   UNL     1       6.545  38.194  61.677  1.00  0.00     0.009 A 
HETATM   30  C   UNL     1       7.174  39.432  61.831  1.00  0.00     0.001 A 
HETATM   31  C   UNL     1       7.125  40.094  63.056  1.00  0.00     0.000 A 
HETATM   32  C   UNL     1       6.449  39.520  64.129  1.00  0.00     0.001 A 
HETATM   33  C   UNL     1       5.814  38.286  63.977  1.00  0.00     0.009 A 
ENDBRANCH   6  28
TORSDOF 6
ENDMDL
