MODEL 1
REMARK VINA RESULT:      -7.5      0.000      0.000
REMARK  7 active torsions:
REMARK  status: ('A' for Active; 'I' for Inactive)
REMARK       I    between atoms: C_2  and  N_3 
REMARK    1  A    between atoms: N_3  and  C_4 
REMARK    2  A    between atoms: C_7  and  N_8 
REMARK       I    between atoms: N_8  and  C_9 
REMARK    3  A    between atoms: C_9  and  C_10 
REMARK    4  A    between atoms: C_11  and  C_12 
REMARK    5  A    between atoms: C_13  and  O_14 
REMARK    6  A    between atoms: N_20  and  C_21 
REMARK    7  A    between atoms: C_24  and  O_25 
ROOT
HETATM    1  C   UNL     1       4.547  31.463  50.848  1.00  0.00     0.106 C 
HETATM    2  C   UNL     1       3.846  31.812  49.498  1.00  0.00     0.142 C 
HETATM    3  N   UNL     1       2.652  30.963  49.285  1.00  0.00    -0.308 N 
HETATM    4  C   UNL     1       1.700  31.077  50.310  1.00  0.00     0.225 C 
HETATM    5  O   UNL     1       0.541  31.443  50.158  1.00  0.00    -0.273 OA
HETATM    6  C   UNL     1       2.251  30.595  51.634  1.00  0.00     0.104 C 
HETATM    7  C   UNL     1       3.531  31.326  52.000  1.00  0.00     0.026 C 
ENDROOT
BRANCH   1   8
HETATM    8  C   UNL     1       5.485  30.260  50.749  1.00  0.00     0.228 C 
HETATM    9  N   UNL     1       5.215  29.322  51.729  1.00  0.00    -0.327 N 
HETATM   10  H   UNL     1       4.379  29.489  52.282  1.00  0.00     0.169 HD
HETATM   11  O   UNL     1       6.362  30.182  49.897  1.00  0.00    -0.273 OA
BRANCH   9  12
HETATM   12  C   UNL     1       5.966  28.204  52.124  1.00  0.00     0.034 A 
HETATM   13  C   UNL     1       6.816  28.172  53.224  1.00  0.00     0.032 A 
HETATM   14  C   UNL     1       7.452  26.974  53.591  1.00  0.00     0.032 A 
HETATM   15  C   UNL     1       7.249  25.802  52.859  1.00  0.00     0.034 A 
HETATM   16  C   UNL     1       6.422  25.848  51.734  1.00  0.00     0.032 A 
HETATM   17  C   UNL     1       5.782  27.036  51.375  1.00  0.00     0.032 A 
BRANCH  15  18
HETATM   18  N   UNL     1       7.812  24.552  53.181  1.00  0.00    -0.328 N 
HETATM   19  C   UNL     1       7.489  23.729  54.243  1.00  0.00     0.218 C 
HETATM   20  C   UNL     1       8.273  22.440  54.216  1.00  0.00     0.117 C 
HETATM   21  O   UNL     1       6.649  23.937  55.111  1.00  0.00    -0.274 OA
HETATM   22  H   UNL     1       8.498  24.196  52.528  1.00  0.00     0.169 HD
ENDBRANCH  15  18
ENDBRANCH   9  12
ENDBRANCH   1   8
BRANCH   2  23
HETATM   23  C   UNL     1       4.672  32.205  48.253  1.00  0.00    -0.001 C 
HETATM   24  C   UNL     1       5.683  33.188  48.271  1.00  0.00     0.076 C 
HETATM   25  C   UNL     1       6.473  33.452  47.140  1.00  0.00     0.037 C 
HETATM   26  C   UNL     1       6.203  32.824  45.932  1.00  0.00     0.003 C 
HETATM   27  C   UNL     1       5.123  31.960  45.845  1.00  0.00     0.001 C 
HETATM   28  C   UNL     1       4.356  31.680  46.981  1.00  0.00     0.012 C 
BRANCH  24  29
HETATM   29  O   UNL     1       5.935  33.871  49.435  1.00  0.00    -0.355 OA
HETATM   30  C   UNL     1       6.801  34.993  49.236  1.00  0.00     0.210 C 
ENDBRANCH  24  29
ENDBRANCH   2  23
BRANCH   3  31
HETATM   31  C   UNL     1       2.619  29.723  48.551  1.00  0.00     0.038 A 
HETATM   32  C   UNL     1       3.510  28.699  48.915  1.00  0.00     0.032 A 
HETATM   33  C   UNL     1       3.508  27.463  48.262  1.00  0.00     0.039 A 
HETATM   34  C   UNL     1       2.623  27.216  47.219  1.00  0.00     0.068 A 
HETATM   35  C   UNL     1       1.736  28.219  46.840  1.00  0.00     0.039 A 
HETATM   36  C   UNL     1       1.728  29.457  47.507  1.00  0.00     0.032 A 
BRANCH  34  37
HETATM   37  O   UNL     1       2.723  25.968  46.671  1.00  0.00    -0.356 OA
HETATM   38  C   UNL     1       3.040  24.901  47.556  1.00  0.00     0.210 C 
ENDBRANCH  34  37
ENDBRANCH   3  31
TORSDOF 7
ENDMDL
MODEL 2
REMARK VINA RESULT:      -7.2     10.267     12.855
REMARK  7 active torsions:
REMARK  status: ('A' for Active; 'I' for Inactive)
REMARK       I    between atoms: C_2  and  N_3 
REMARK    1  A    between atoms: N_3  and  C_4 
REMARK    2  A    between atoms: C_7  and  N_8 
REMARK       I    between atoms: N_8  and  C_9 
REMARK    3  A    between atoms: C_9  and  C_10 
REMARK    4  A    between atoms: C_11  and  C_12 
REMARK    5  A    between atoms: C_13  and  O_14 
REMARK    6  A    between atoms: N_20  and  C_21 
REMARK    7  A    between atoms: C_24  and  O_25 
ROOT
HETATM    1  C   UNL     1       4.008  34.416  62.609  1.00  0.00     0.106 C 
HETATM    2  C   UNL     1       3.390  35.829  62.370  1.00  0.00     0.142 C 
HETATM    3  N   UNL     1       2.585  35.855  61.127  1.00  0.00    -0.308 N 
HETATM    4  C   UNL     1       1.540  34.917  61.124  1.00  0.00     0.225 C 
HETATM    5  O   UNL     1       0.351  35.188  61.009  1.00  0.00    -0.273 OA
HETATM    6  C   UNL     1       2.066  33.500  61.183  1.00  0.00     0.104 C 
HETATM    7  C   UNL     1       2.973  33.295  62.384  1.00  0.00     0.026 C 
ENDROOT
BRANCH   1   8
HETATM    8  C   UNL     1       5.302  34.183  61.829  1.00  0.00     0.228 C 
HETATM    9  N   UNL     1       5.246  33.018  61.087  1.00  0.00    -0.327 N 
HETATM   10  H   UNL     1       4.342  32.556  61.057  1.00  0.00     0.169 HD
HETATM   11  O   UNL     1       6.252  34.955  61.891  1.00  0.00    -0.273 OA
BRANCH   9  12
HETATM   12  C   UNL     1       6.276  32.334  60.422  1.00  0.00     0.034 A 
HETATM   13  C   UNL     1       7.399  31.799  61.044  1.00  0.00     0.032 A 
HETATM   14  C   UNL     1       8.327  31.049  60.304  1.00  0.00     0.032 A 
HETATM   15  C   UNL     1       8.145  30.834  58.935  1.00  0.00     0.034 A 
HETATM   16  C   UNL     1       7.035  31.404  58.309  1.00  0.00     0.032 A 
HETATM   17  C   UNL     1       6.106  32.140  59.047  1.00  0.00     0.032 A 
BRANCH  15  18
HETATM   18  N   UNL     1       9.003  30.062  58.127  1.00  0.00    -0.328 N 
HETATM   19  C   UNL     1      10.229  30.429  57.607  1.00  0.00     0.218 C 
HETATM   20  C   UNL     1      10.874  29.302  56.838  1.00  0.00     0.117 C 
HETATM   21  O   UNL     1      10.801  31.503  57.749  1.00  0.00    -0.274 OA
HETATM   22  H   UNL     1       8.704  29.112  57.950  1.00  0.00     0.169 HD
ENDBRANCH  15  18
ENDBRANCH   9  12
ENDBRANCH   1   8
BRANCH   2  23
HETATM   23  C   UNL     1       4.170  37.111  62.739  1.00  0.00    -0.001 C 
HETATM   24  C   UNL     1       4.934  37.242  63.917  1.00  0.00     0.076 C 
HETATM   25  C   UNL     1       5.703  38.389  64.172  1.00  0.00     0.037 C 
HETATM   26  C   UNL     1       5.644  39.480  63.314  1.00  0.00     0.003 C 
HETATM   27  C   UNL     1       4.791  39.437  62.222  1.00  0.00     0.001 C 
HETATM   28  C   UNL     1       4.048  38.281  61.959  1.00  0.00     0.012 C 
BRANCH  24  29
HETATM   29  O   UNL     1       4.966  36.205  64.816  1.00  0.00    -0.355 OA
HETATM   30  C   UNL     1       4.530  36.597  66.122  1.00  0.00     0.210 C 
ENDBRANCH  24  29
ENDBRANCH   2  23
BRANCH   3  31
HETATM   31  C   UNL     1       3.057  36.252  59.825  1.00  0.00     0.038 A 
HETATM   32  C   UNL     1       2.493  37.388  59.219  1.00  0.00     0.032 A 
HETATM   33  C   UNL     1       2.927  37.842  57.970  1.00  0.00     0.039 A 
HETATM   34  C   UNL     1       3.932  37.169  57.284  1.00  0.00     0.068 A 
HETATM   35  C   UNL     1       4.501  36.040  57.864  1.00  0.00     0.039 A 
HETATM   36  C   UNL     1       4.073  35.591  59.127  1.00  0.00     0.032 A 
BRANCH  34  37
HETATM   37  O   UNL     1       4.263  37.720  56.078  1.00  0.00    -0.356 OA
HETATM   38  C   UNL     1       5.538  37.384  55.547  1.00  0.00     0.210 C 
ENDBRANCH  34  37
ENDBRANCH   3  31
TORSDOF 7
ENDMDL
MODEL 3
REMARK VINA RESULT:      -7.0      3.117      9.254
REMARK  7 active torsions:
REMARK  status: ('A' for Active; 'I' for Inactive)
REMARK       I    between atoms: C_2  and  N_3 
REMARK    1  A    between atoms: N_3  and  C_4 
REMARK    2  A    between atoms: C_7  and  N_8 
REMARK       I    between atoms: N_8  and  C_9 
REMARK    3  A    between atoms: C_9  and  C_10 
REMARK    4  A    between atoms: C_11  and  C_12 
REMARK    5  A    between atoms: C_13  and  O_14 
REMARK    6  A    between atoms: N_20  and  C_21 
REMARK    7  A    between atoms: C_24  and  O_25 
ROOT
HETATM    1  C   UNL     1       4.596  27.715  53.464  1.00  0.00     0.106 C 
HETATM    2  C   UNL     1       5.437  26.785  54.393  1.00  0.00     0.142 C 
HETATM    3  N   UNL     1       5.919  27.520  55.585  1.00  0.00    -0.308 N 
HETATM    4  C   UNL     1       4.882  28.077  56.350  1.00  0.00     0.225 C 
HETATM    5  O   UNL     1       4.660  27.820  57.527  1.00  0.00    -0.273 OA
HETATM    6  C   UNL     1       4.116  29.122  55.570  1.00  0.00     0.104 C 
HETATM    7  C   UNL     1       3.582  28.557  54.265  1.00  0.00     0.026 C 
ENDROOT
BRANCH   1   8
HETATM    8  C   UNL     1       5.452  28.566  52.526  1.00  0.00     0.228 C 
HETATM    9  N   UNL     1       4.728  29.612  51.984  1.00  0.00    -0.327 N 
HETATM   10  H   UNL     1       3.796  29.748  52.365  1.00  0.00     0.169 HD
HETATM   11  O   UNL     1       6.630  28.311  52.303  1.00  0.00    -0.273 OA
BRANCH   9  12
HETATM   12  C   UNL     1       5.062  30.476  50.929  1.00  0.00     0.034 A 
HETATM   13  C   UNL     1       5.489  30.061  49.673  1.00  0.00     0.032 A 
HETATM   14  C   UNL     1       5.708  31.002  48.654  1.00  0.00     0.032 A 
HETATM   15  C   UNL     1       5.511  32.366  48.885  1.00  0.00     0.034 A 
HETATM   16  C   UNL     1       5.118  32.781  50.159  1.00  0.00     0.032 A 
HETATM   17  C   UNL     1       4.889  31.844  51.169  1.00  0.00     0.032 A 
BRANCH  15  18
HETATM   18  N   UNL     1       5.668  33.372  47.911  1.00  0.00    -0.328 N 
HETATM   19  C   UNL     1       6.838  33.994  47.522  1.00  0.00     0.218 C 
HETATM   20  C   UNL     1       6.607  34.980  46.403  1.00  0.00     0.117 C 
HETATM   21  O   UNL     1       7.966  33.788  47.956  1.00  0.00    -0.274 OA
HETATM   22  H   UNL     1       4.830  33.632  47.407  1.00  0.00     0.169 HD
ENDBRANCH  15  18
ENDBRANCH   9  12
ENDBRANCH   1   8
BRANCH   2  23
HETATM   23  C   UNL     1       6.364  25.699  53.802  1.00  0.00    -0.001 C 
HETATM   24  C   UNL     1       6.926  24.658  54.570  1.00  0.00     0.076 C 
HETATM   25  C   UNL     1       7.690  23.638  53.978  1.00  0.00     0.037 C 
HETATM   26  C   UNL     1       8.006  23.690  52.627  1.00  0.00     0.003 C 
HETATM   27  C   UNL     1       7.589  24.778  51.876  1.00  0.00     0.001 C 
HETATM   28  C   UNL     1       6.806  25.777  52.464  1.00  0.00     0.012 C 
BRANCH  24  29
HETATM   29  O   UNL     1       6.682  24.611  55.920  1.00  0.00    -0.355 OA
HETATM   30  C   UNL     1       7.882  24.492  56.690  1.00  0.00     0.210 C 
ENDBRANCH  24  29
ENDBRANCH   2  23
BRANCH   3  31
HETATM   31  C   UNL     1       7.196  28.176  55.711  1.00  0.00     0.038 A 
HETATM   32  C   UNL     1       7.627  28.575  56.988  1.00  0.00     0.032 A 
HETATM   33  C   UNL     1       8.868  29.190  57.181  1.00  0.00     0.039 A 
HETATM   34  C   UNL     1       9.711  29.434  56.103  1.00  0.00     0.068 A 
HETATM   35  C   UNL     1       9.301  29.050  54.829  1.00  0.00     0.039 A 
HETATM   36  C   UNL     1       8.059  28.419  54.637  1.00  0.00     0.032 A 
BRANCH  34  37
HETATM   37  O   UNL     1      10.894  30.036  56.430  1.00  0.00    -0.356 OA
HETATM   38  C   UNL     1      10.905  30.829  57.609  1.00  0.00     0.210 C 
ENDBRANCH  34  37
ENDBRANCH   3  31
TORSDOF 7
ENDMDL
MODEL 4
REMARK VINA RESULT:      -6.9      9.693     12.177
REMARK  7 active torsions:
REMARK  status: ('A' for Active; 'I' for Inactive)
REMARK       I    between atoms: C_2  and  N_3 
REMARK    1  A    between atoms: N_3  and  C_4 
REMARK    2  A    between atoms: C_7  and  N_8 
REMARK       I    between atoms: N_8  and  C_9 
REMARK    3  A    between atoms: C_9  and  C_10 
REMARK    4  A    between atoms: C_11  and  C_12 
REMARK    5  A    between atoms: C_13  and  O_14 
REMARK    6  A    between atoms: N_20  and  C_21 
REMARK    7  A    between atoms: C_24  and  O_25 
ROOT
HETATM    1  C   UNL     1       3.857  34.954  62.229  1.00  0.00     0.106 C 
HETATM    2  C   UNL     1       3.489  36.337  61.607  1.00  0.00     0.142 C 
HETATM    3  N   UNL     1       2.836  36.171  60.289  1.00  0.00    -0.308 N 
HETATM    4  C   UNL     1       1.668  35.394  60.343  1.00  0.00     0.225 C 
HETATM    5  O   UNL     1       0.553  35.775  60.007  1.00  0.00    -0.273 OA
HETATM    6  C   UNL     1       1.964  33.976  60.777  1.00  0.00     0.104 C 
HETATM    7  C   UNL     1       2.695  33.947  62.109  1.00  0.00     0.026 C 
ENDROOT
BRANCH   1   8
HETATM    8  C   UNL     1       5.178  34.388  61.706  1.00  0.00     0.228 C 
HETATM    9  N   UNL     1       4.983  33.581  60.601  1.00  0.00    -0.327 N 
HETATM   10  H   UNL     1       4.042  33.574  60.218  1.00  0.00     0.169 HD
HETATM   11  O   UNL     1       6.253  34.639  62.238  1.00  0.00    -0.273 OA
BRANCH   9  12
HETATM   12  C   UNL     1       5.881  32.708  59.965  1.00  0.00     0.034 A 
HETATM   13  C   UNL     1       5.693  32.168  58.698  1.00  0.00     0.032 A 
HETATM   14  C   UNL     1       6.696  31.379  58.110  1.00  0.00     0.032 A 
HETATM   15  C   UNL     1       7.889  31.116  58.788  1.00  0.00     0.034 A 
HETATM   16  C   UNL     1       8.057  31.631  60.075  1.00  0.00     0.032 A 
HETATM   17  C   UNL     1       7.065  32.425  60.655  1.00  0.00     0.032 A 
BRANCH  15  18
HETATM   18  N   UNL     1       8.961  30.372  58.259  1.00  0.00    -0.328 N 
HETATM   19  C   UNL     1      10.205  30.837  57.878  1.00  0.00     0.218 C 
HETATM   20  C   UNL     1      11.107  29.719  57.413  1.00  0.00     0.117 C 
HETATM   21  O   UNL     1      10.609  31.992  57.927  1.00  0.00    -0.274 OA
HETATM   22  H   UNL     1       8.816  29.372  58.197  1.00  0.00     0.169 HD
ENDBRANCH  15  18
ENDBRANCH   9  12
ENDBRANCH   1   8
BRANCH   2  23
HETATM   23  C   UNL     1       4.410  37.564  61.796  1.00  0.00    -0.001 C 
HETATM   24  C   UNL     1       3.949  38.895  61.743  1.00  0.00     0.076 C 
HETATM   25  C   UNL     1       4.800  39.980  62.011  1.00  0.00     0.037 C 
HETATM   26  C   UNL     1       6.156  39.773  62.229  1.00  0.00     0.003 C 
HETATM   27  C   UNL     1       6.666  38.486  62.145  1.00  0.00     0.001 C 
HETATM   28  C   UNL     1       5.809  37.407  61.905  1.00  0.00     0.012 C 
BRANCH  24  29
HETATM   29  O   UNL     1       2.626  39.138  61.469  1.00  0.00    -0.355 OA
HETATM   30  C   UNL     1       2.448  40.144  60.466  1.00  0.00     0.210 C 
ENDBRANCH  24  29
ENDBRANCH   2  23
BRANCH   3  31
HETATM   31  C   UNL     1       3.501  36.194  59.011  1.00  0.00     0.038 A 
HETATM   32  C   UNL     1       3.404  35.065  58.179  1.00  0.00     0.032 A 
HETATM   33  C   UNL     1       4.001  35.035  56.915  1.00  0.00     0.039 A 
HETATM   34  C   UNL     1       4.722  36.128  56.448  1.00  0.00     0.068 A 
HETATM   35  C   UNL     1       4.834  37.254  57.258  1.00  0.00     0.039 A 
HETATM   36  C   UNL     1       4.221  37.289  58.524  1.00  0.00     0.032 A 
BRANCH  34  37
HETATM   37  O   UNL     1       5.250  35.969  55.197  1.00  0.00    -0.356 OA
HETATM   38  C   UNL     1       6.372  36.776  54.866  1.00  0.00     0.210 C 
ENDBRANCH  34  37
ENDBRANCH   3  31
TORSDOF 7
ENDMDL
MODEL 5
REMARK VINA RESULT:      -6.8      2.601      6.099
REMARK  7 active torsions:
REMARK  status: ('A' for Active; 'I' for Inactive)
REMARK       I    between atoms: C_2  and  N_3 
REMARK    1  A    between atoms: N_3  and  C_4 
REMARK    2  A    between atoms: C_7  and  N_8 
REMARK       I    between atoms: N_8  and  C_9 
REMARK    3  A    between atoms: C_9  and  C_10 
REMARK    4  A    between atoms: C_11  and  C_12 
REMARK    5  A    between atoms: C_13  and  O_14 
REMARK    6  A    between atoms: N_20  and  C_21 
REMARK    7  A    between atoms: C_24  and  O_25 
ROOT
HETATM    1  C   UNL     1       1.880  29.959  48.104  1.00  0.00     0.106 C 
HETATM    2  C   UNL     1       3.389  29.606  47.926  1.00  0.00     0.142 C 
HETATM    3  N   UNL     1       3.666  28.219  48.362  1.00  0.00    -0.308 N 
HETATM    4  C   UNL     1       2.912  27.259  47.670  1.00  0.00     0.225 C 
HETATM    5  O   UNL     1       3.378  26.344  47.001  1.00  0.00    -0.273 OA
HETATM    6  C   UNL     1       1.430  27.427  47.927  1.00  0.00     0.104 C 
HETATM    7  C   UNL     1       0.965  28.831  47.584  1.00  0.00     0.026 C 
ENDROOT
BRANCH   1   8
HETATM    8  C   UNL     1       1.523  30.391  49.527  1.00  0.00     0.228 C 
HETATM    9  N   UNL     1       2.061  31.628  49.833  1.00  0.00    -0.327 N 
HETATM   10  H   UNL     1       2.495  32.125  49.060  1.00  0.00     0.169 HD
HETATM   11  O   UNL     1       0.850  29.692  50.274  1.00  0.00    -0.273 OA
BRANCH   9  12
HETATM   12  C   UNL     1       2.160  32.275  51.075  1.00  0.00     0.034 A 
HETATM   13  C   UNL     1       1.110  32.925  51.713  1.00  0.00     0.032 A 
HETATM   14  C   UNL     1       1.288  33.460  53.000  1.00  0.00     0.032 A 
HETATM   15  C   UNL     1       2.518  33.357  53.654  1.00  0.00     0.034 A 
HETATM   16  C   UNL     1       3.579  32.735  52.994  1.00  0.00     0.032 A 
HETATM   17  C   UNL     1       3.400  32.193  51.720  1.00  0.00     0.032 A 
BRANCH  15  18
HETATM   18  N   UNL     1       2.771  33.828  54.957  1.00  0.00    -0.328 N 
HETATM   19  C   UNL     1       2.712  33.114  56.139  1.00  0.00     0.218 C 
HETATM   20  C   UNL     1       3.111  33.956  57.326  1.00  0.00     0.117 C 
HETATM   21  O   UNL     1       2.424  31.931  56.274  1.00  0.00    -0.274 OA
HETATM   22  H   UNL     1       3.079  34.790  55.027  1.00  0.00     0.169 HD
ENDBRANCH  15  18
ENDBRANCH   9  12
ENDBRANCH   1   8
BRANCH   2  23
HETATM   23  C   UNL     1       4.488  30.664  48.178  1.00  0.00    -0.001 C 
HETATM   24  C   UNL     1       4.689  31.786  47.348  1.00  0.00     0.076 C 
HETATM   25  C   UNL     1       5.637  32.773  47.662  1.00  0.00     0.037 C 
HETATM   26  C   UNL     1       6.486  32.612  48.749  1.00  0.00     0.003 C 
HETATM   27  C   UNL     1       6.410  31.449  49.500  1.00  0.00     0.001 C 
HETATM   28  C   UNL     1       5.445  30.482  49.199  1.00  0.00     0.012 C 
BRANCH  24  29
HETATM   29  O   UNL     1       3.905  31.944  46.231  1.00  0.00    -0.355 OA
HETATM   30  C   UNL     1       4.611  31.650  45.021  1.00  0.00     0.210 C 
ENDBRANCH  24  29
ENDBRANCH   2  23
BRANCH   3  31
HETATM   31  C   UNL     1       4.113  27.820  49.673  1.00  0.00     0.038 A 
HETATM   32  C   UNL     1       4.986  26.724  49.785  1.00  0.00     0.032 A 
HETATM   33  C   UNL     1       5.477  26.305  51.025  1.00  0.00     0.039 A 
HETATM   34  C   UNL     1       5.103  26.962  52.192  1.00  0.00     0.068 A 
HETATM   35  C   UNL     1       4.236  28.047  52.103  1.00  0.00     0.039 A 
HETATM   36  C   UNL     1       3.753  28.477  50.854  1.00  0.00     0.032 A 
BRANCH  34  37
HETATM   37  O   UNL     1       5.658  26.455  53.334  1.00  0.00    -0.356 OA
HETATM   38  C   UNL     1       5.383  25.092  53.631  1.00  0.00     0.210 C 
ENDBRANCH  34  37
ENDBRANCH   3  31
TORSDOF 7
ENDMDL
MODEL 6
REMARK VINA RESULT:      -6.7      1.875      2.667
REMARK  7 active torsions:
REMARK  status: ('A' for Active; 'I' for Inactive)
REMARK       I    between atoms: C_2  and  N_3 
REMARK    1  A    between atoms: N_3  and  C_4 
REMARK    2  A    between atoms: C_7  and  N_8 
REMARK       I    between atoms: N_8  and  C_9 
REMARK    3  A    between atoms: C_9  and  C_10 
REMARK    4  A    between atoms: C_11  and  C_12 
REMARK    5  A    between atoms: C_13  and  O_14 
REMARK    6  A    between atoms: N_20  and  C_21 
REMARK    7  A    between atoms: C_24  and  O_25 
ROOT
HETATM    1  C   UNL     1       2.748  32.500  50.254  1.00  0.00     0.106 C 
HETATM    2  C   UNL     1       2.977  32.414  48.713  1.00  0.00     0.142 C 
HETATM    3  N   UNL     1       2.246  31.267  48.129  1.00  0.00    -0.308 N 
HETATM    4  C   UNL     1       0.862  31.315  48.360  1.00  0.00     0.225 C 
HETATM    5  O   UNL     1       0.003  31.342  47.487  1.00  0.00    -0.273 OA
HETATM    6  C   UNL     1       0.543  31.231  49.836  1.00  0.00     0.104 C 
HETATM    7  C   UNL     1       1.261  32.316  50.620  1.00  0.00     0.026 C 
ENDROOT
BRANCH   1   8
HETATM    8  C   UNL     1       3.667  31.576  51.054  1.00  0.00     0.228 C 
HETATM    9  N   UNL     1       3.319  30.248  50.891  1.00  0.00    -0.327 N 
HETATM   10  H   UNL     1       2.611  30.059  50.188  1.00  0.00     0.169 HD
HETATM   11  O   UNL     1       4.581  32.004  51.749  1.00  0.00    -0.273 OA
BRANCH   9  12
HETATM   12  C   UNL     1       3.751  29.119  51.606  1.00  0.00     0.034 A 
HETATM   13  C   UNL     1       4.500  28.080  51.065  1.00  0.00     0.032 A 
HETATM   14  C   UNL     1       4.964  27.041  51.888  1.00  0.00     0.032 A 
HETATM   15  C   UNL     1       4.676  27.026  53.255  1.00  0.00     0.034 A 
HETATM   16  C   UNL     1       3.893  28.053  53.786  1.00  0.00     0.032 A 
HETATM   17  C   UNL     1       3.441  29.093  52.971  1.00  0.00     0.032 A 
BRANCH  15  18
HETATM   18  N   UNL     1       5.135  26.047  54.157  1.00  0.00    -0.328 N 
HETATM   19  C   UNL     1       6.360  25.994  54.794  1.00  0.00     0.218 C 
HETATM   20  C   UNL     1       6.455  24.818  55.735  1.00  0.00     0.117 C 
HETATM   21  O   UNL     1       7.284  26.792  54.688  1.00  0.00    -0.274 OA
HETATM   22  H   UNL     1       4.468  25.327  54.403  1.00  0.00     0.169 HD
ENDBRANCH  15  18
ENDBRANCH   9  12
ENDBRANCH   1   8
BRANCH   2  23
HETATM   23  C   UNL     1       4.345  32.778  48.091  1.00  0.00    -0.001 C 
HETATM   24  C   UNL     1       4.512  33.132  46.736  1.00  0.00     0.076 C 
HETATM   25  C   UNL     1       5.756  33.545  46.232  1.00  0.00     0.037 C 
HETATM   26  C   UNL     1       6.887  33.509  47.036  1.00  0.00     0.003 C 
HETATM   27  C   UNL     1       6.782  33.027  48.331  1.00  0.00     0.001 C 
HETATM   28  C   UNL     1       5.536  32.643  48.837  1.00  0.00     0.012 C 
BRANCH  24  29
HETATM   29  O   UNL     1       3.423  33.120  45.900  1.00  0.00    -0.355 OA
HETATM   30  C   UNL     1       3.588  32.221  44.799  1.00  0.00     0.210 C 
ENDBRANCH  24  29
ENDBRANCH   2  23
BRANCH   3  31
HETATM   31  C   UNL     1       2.786  29.949  47.905  1.00  0.00     0.038 A 
HETATM   32  C   UNL     1       1.937  28.838  48.051  1.00  0.00     0.032 A 
HETATM   33  C   UNL     1       2.392  27.536  47.821  1.00  0.00     0.039 A 
HETATM   34  C   UNL     1       3.711  27.304  47.447  1.00  0.00     0.068 A 
HETATM   35  C   UNL     1       4.568  28.391  47.301  1.00  0.00     0.039 A 
HETATM   36  C   UNL     1       4.107  29.701  47.519  1.00  0.00     0.032 A 
BRANCH  34  37
HETATM   37  O   UNL     1       4.023  25.988  47.249  1.00  0.00    -0.356 OA
HETATM   38  C   UNL     1       3.027  25.034  47.591  1.00  0.00     0.210 C 
ENDBRANCH  34  37
ENDBRANCH   3  31
TORSDOF 7
ENDMDL
MODEL 7
REMARK VINA RESULT:      -6.4      2.377      5.173
REMARK  7 active torsions:
REMARK  status: ('A' for Active; 'I' for Inactive)
REMARK       I    between atoms: C_2  and  N_3 
REMARK    1  A    between atoms: N_3  and  C_4 
REMARK    2  A    between atoms: C_7  and  N_8 
REMARK       I    between atoms: N_8  and  C_9 
REMARK    3  A    between atoms: C_9  and  C_10 
REMARK    4  A    between atoms: C_11  and  C_12 
REMARK    5  A    between atoms: C_13  and  O_14 
REMARK    6  A    between atoms: N_20  and  C_21 
REMARK    7  A    between atoms: C_24  and  O_25 
ROOT
HETATM    1  C   UNL     1       1.658  28.673  49.563  1.00  0.00     0.106 C 
HETATM    2  C   UNL     1       1.154  30.089  49.145  1.00  0.00     0.142 C 
HETATM    3  N   UNL     1       1.612  30.436  47.781  1.00  0.00    -0.308 N 
HETATM    4  C   UNL     1       1.191  29.519  46.805  1.00  0.00     0.225 C 
HETATM    5  O   UNL     1       0.499  29.794  45.831  1.00  0.00    -0.273 OA
HETATM    6  C   UNL     1       1.779  28.146  47.043  1.00  0.00     0.104 C 
HETATM    7  C   UNL     1       1.454  27.639  48.437  1.00  0.00     0.026 C 
ENDROOT
BRANCH   1   8
HETATM    8  C   UNL     1       3.089  28.676  50.102  1.00  0.00     0.228 C 
HETATM    9  N   UNL     1       3.147  28.187  51.394  1.00  0.00    -0.327 N 
HETATM   10  H   UNL     1       2.286  27.786  51.755  1.00  0.00     0.169 HD
HETATM   11  O   UNL     1       4.037  29.079  49.439  1.00  0.00    -0.273 OA
BRANCH   9  12
HETATM   12  C   UNL     1       4.206  28.227  52.316  1.00  0.00     0.034 A 
HETATM   13  C   UNL     1       5.415  27.558  52.159  1.00  0.00     0.032 A 
HETATM   14  C   UNL     1       6.448  27.738  53.093  1.00  0.00     0.032 A 
HETATM   15  C   UNL     1       6.278  28.579  54.195  1.00  0.00     0.034 A 
HETATM   16  C   UNL     1       5.049  29.220  54.368  1.00  0.00     0.032 A 
HETATM   17  C   UNL     1       4.026  29.050  53.433  1.00  0.00     0.032 A 
BRANCH  15  18
HETATM   18  N   UNL     1       7.273  28.848  55.156  1.00  0.00    -0.328 N 
HETATM   19  C   UNL     1       7.828  27.968  56.065  1.00  0.00     0.218 C 
HETATM   20  C   UNL     1       8.912  28.618  56.889  1.00  0.00     0.117 C 
HETATM   21  O   UNL     1       7.554  26.782  56.208  1.00  0.00    -0.274 OA
HETATM   22  H   UNL     1       7.658  29.784  55.142  1.00  0.00     0.169 HD
ENDBRANCH  15  18
ENDBRANCH   9  12
ENDBRANCH   1   8
BRANCH   2  23
HETATM   23  C   UNL     1       1.059  31.235  50.177  1.00  0.00    -0.001 C 
HETATM   24  C   UNL     1      -0.010  32.154  50.220  1.00  0.00     0.076 C 
HETATM   25  C   UNL     1      -0.106  33.125  51.231  1.00  0.00     0.037 C 
HETATM   26  C   UNL     1       0.916  33.278  52.158  1.00  0.00     0.003 C 
HETATM   27  C   UNL     1       2.049  32.485  52.054  1.00  0.00     0.001 C 
HETATM   28  C   UNL     1       2.126  31.501  51.062  1.00  0.00     0.012 C 
BRANCH  24  29
HETATM   29  O   UNL     1      -1.008  32.068  49.281  1.00  0.00    -0.355 OA
HETATM   30  C   UNL     1      -2.313  32.194  49.855  1.00  0.00     0.210 C 
ENDBRANCH  24  29
ENDBRANCH   2  23
BRANCH   3  31
HETATM   31  C   UNL     1       2.805  31.175  47.455  1.00  0.00     0.038 A 
HETATM   32  C   UNL     1       3.721  30.614  46.549  1.00  0.00     0.032 A 
HETATM   33  C   UNL     1       4.883  31.292  46.170  1.00  0.00     0.039 A 
HETATM   34  C   UNL     1       5.170  32.549  46.692  1.00  0.00     0.068 A 
HETATM   35  C   UNL     1       4.278  33.121  47.594  1.00  0.00     0.039 A 
HETATM   36  C   UNL     1       3.102  32.443  47.964  1.00  0.00     0.032 A 
BRANCH  34  37
HETATM   37  O   UNL     1       6.333  33.103  46.235  1.00  0.00    -0.356 OA
HETATM   38  C   UNL     1       7.132  33.794  47.185  1.00  0.00     0.210 C 
ENDBRANCH  34  37
ENDBRANCH   3  31
TORSDOF 7
ENDMDL
MODEL 8
REMARK VINA RESULT:      -6.3      3.175      6.339
REMARK  7 active torsions:
REMARK  status: ('A' for Active; 'I' for Inactive)
REMARK       I    between atoms: C_2  and  N_3 
REMARK    1  A    between atoms: N_3  and  C_4 
REMARK    2  A    between atoms: C_7  and  N_8 
REMARK       I    between atoms: N_8  and  C_9 
REMARK    3  A    between atoms: C_9  and  C_10 
REMARK    4  A    between atoms: C_11  and  C_12 
REMARK    5  A    between atoms: C_13  and  O_14 
REMARK    6  A    between atoms: N_20  and  C_21 
REMARK    7  A    between atoms: C_24  and  O_25 
ROOT
HETATM    1  C   UNL     1       2.658  28.075  49.326  1.00  0.00     0.106 C 
HETATM    2  C   UNL     1       2.778  28.739  47.919  1.00  0.00     0.142 C 
HETATM    3  N   UNL     1       4.167  29.180  47.655  1.00  0.00    -0.308 N 
HETATM    4  C   UNL     1       5.102  28.136  47.723  1.00  0.00     0.225 C 
HETATM    5  O   UNL     1       5.836  27.786  46.807  1.00  0.00    -0.273 OA
HETATM    6  C   UNL     1       5.172  27.543  49.114  1.00  0.00     0.104 C 
HETATM    7  C   UNL     1       3.805  27.077  49.585  1.00  0.00     0.026 C 
ENDROOT
BRANCH   1   8
HETATM    8  C   UNL     1       2.496  29.087  50.461  1.00  0.00     0.228 C 
HETATM    9  N   UNL     1       3.471  28.929  51.428  1.00  0.00    -0.327 N 
HETATM   10  H   UNL     1       4.214  28.272  51.203  1.00  0.00     0.169 HD
HETATM   11  O   UNL     1       1.592  29.915  50.475  1.00  0.00    -0.273 OA
BRANCH   9  12
HETATM   12  C   UNL     1       3.553  29.489  52.712  1.00  0.00     0.034 A 
HETATM   13  C   UNL     1       3.275  30.817  53.014  1.00  0.00     0.032 A 
HETATM   14  C   UNL     1       3.294  31.258  54.347  1.00  0.00     0.032 A 
HETATM   15  C   UNL     1       3.599  30.378  55.388  1.00  0.00     0.034 A 
HETATM   16  C   UNL     1       3.912  29.053  55.077  1.00  0.00     0.032 A 
HETATM   17  C   UNL     1       3.882  28.612  53.752  1.00  0.00     0.032 A 
BRANCH  15  18
HETATM   18  N   UNL     1       3.600  30.725  56.753  1.00  0.00    -0.328 N 
HETATM   19  C   UNL     1       4.483  31.561  57.411  1.00  0.00     0.218 C 
HETATM   20  C   UNL     1       4.119  31.733  58.865  1.00  0.00     0.117 C 
HETATM   21  O   UNL     1       5.437  32.156  56.926  1.00  0.00    -0.274 OA
HETATM   22  H   UNL     1       2.835  30.356  57.303  1.00  0.00     0.169 HD
ENDBRANCH  15  18
ENDBRANCH   9  12
ENDBRANCH   1   8
BRANCH   2  23
HETATM   23  C   UNL     1       1.635  29.611  47.352  1.00  0.00    -0.001 C 
HETATM   24  C   UNL     1       0.590  29.097  46.556  1.00  0.00     0.076 C 
HETATM   25  C   UNL     1      -0.480  29.904  46.136  1.00  0.00     0.037 C 
HETATM   26  C   UNL     1      -0.480  31.267  46.404  1.00  0.00     0.003 C 
HETATM   27  C   UNL     1       0.605  31.828  47.059  1.00  0.00     0.001 C 
HETATM   28  C   UNL     1       1.655  31.015  47.499  1.00  0.00     0.012 C 
BRANCH  24  29
HETATM   29  O   UNL     1       0.591  27.765  46.223  1.00  0.00    -0.355 OA
HETATM   30  C   UNL     1      -0.454  27.429  45.305  1.00  0.00     0.210 C 
ENDBRANCH  24  29
ENDBRANCH   2  23
BRANCH   3  31
HETATM   31  C   UNL     1       4.696  30.496  47.908  1.00  0.00     0.038 A 
HETATM   32  C   UNL     1       4.879  31.371  46.823  1.00  0.00     0.032 A 
HETATM   33  C   UNL     1       5.361  32.670  47.006  1.00  0.00     0.039 A 
HETATM   34  C   UNL     1       5.686  33.132  48.277  1.00  0.00     0.068 A 
HETATM   35  C   UNL     1       5.517  32.279  49.364  1.00  0.00     0.039 A 
HETATM   36  C   UNL     1       5.018  30.977  49.181  1.00  0.00     0.032 A 
BRANCH  34  37
HETATM   37  O   UNL     1       6.142  34.420  48.315  1.00  0.00    -0.356 OA
HETATM   38  C   UNL     1       7.544  34.610  48.180  1.00  0.00     0.210 C 
ENDBRANCH  34  37
ENDBRANCH   3  31
TORSDOF 7
ENDMDL
MODEL 9
REMARK VINA RESULT:      -6.3      5.638      7.920
REMARK  7 active torsions:
REMARK  status: ('A' for Active; 'I' for Inactive)
REMARK       I    between atoms: C_2  and  N_3 
REMARK    1  A    between atoms: N_3  and  C_4 
REMARK    2  A    between atoms: C_7  and  N_8 
REMARK       I    between atoms: N_8  and  C_9 
REMARK    3  A    between atoms: C_9  and  C_10 
REMARK    4  A    between atoms: C_11  and  C_12 
REMARK    5  A    between atoms: C_13  and  O_14 
REMARK    6  A    between atoms: N_20  and  C_21 
REMARK    7  A    between atoms: C_24  and  O_25 
ROOT
HETATM    1  C   UNL     1       4.700  34.131  57.450  1.00  0.00     0.106 C 
HETATM    2  C   UNL     1       4.721  35.366  56.496  1.00  0.00     0.142 C 
HETATM    3  N   UNL     1       3.475  36.155  56.619  1.00  0.00    -0.308 N 
HETATM    4  C   UNL     1       3.239  36.618  57.923  1.00  0.00     0.225 C 
HETATM    5  O   UNL     1       3.128  37.796  58.243  1.00  0.00    -0.273 OA
HETATM    6  C   UNL     1       3.036  35.473  58.891  1.00  0.00     0.104 C 
HETATM    7  C   UNL     1       4.211  34.511  58.863  1.00  0.00     0.026 C 
ENDROOT
BRANCH   1   8
HETATM    8  C   UNL     1       3.947  32.933  56.872  1.00  0.00     0.228 C 
HETATM    9  N   UNL     1       4.807  31.902  56.542  1.00  0.00    -0.327 N 
HETATM   10  H   UNL     1       5.773  32.021  56.835  1.00  0.00     0.169 HD
HETATM   11  O   UNL     1       2.730  32.932  56.728  1.00  0.00    -0.273 OA
BRANCH   9  12
HETATM   12  C   UNL     1       4.560  30.739  55.795  1.00  0.00     0.034 A 
HETATM   13  C   UNL     1       4.255  30.722  54.438  1.00  0.00     0.032 A 
HETATM   14  C   UNL     1       4.119  29.499  53.761  1.00  0.00     0.032 A 
HETATM   15  C   UNL     1       4.277  28.285  54.434  1.00  0.00     0.034 A 
HETATM   16  C   UNL     1       4.547  28.309  55.804  1.00  0.00     0.032 A 
HETATM   17  C   UNL     1       4.694  29.524  56.476  1.00  0.00     0.032 A 
BRANCH  15  18
HETATM   18  N   UNL     1       4.198  27.018  53.825  1.00  0.00    -0.328 N 
HETATM   19  C   UNL     1       5.237  26.249  53.339  1.00  0.00     0.218 C 
HETATM   20  C   UNL     1       4.756  24.919  52.811  1.00  0.00     0.117 C 
HETATM   21  O   UNL     1       6.430  26.530  53.343  1.00  0.00    -0.274 OA
HETATM   22  H   UNL     1       3.275  26.604  53.786  1.00  0.00     0.169 HD
ENDBRANCH  15  18
ENDBRANCH   9  12
ENDBRANCH   1   8
BRANCH   2  23
HETATM   23  C   UNL     1       5.372  35.277  55.097  1.00  0.00    -0.001 C 
HETATM   24  C   UNL     1       6.300  36.222  54.612  1.00  0.00     0.076 C 
HETATM   25  C   UNL     1       6.938  36.057  53.371  1.00  0.00     0.037 C 
HETATM   26  C   UNL     1       6.587  35.006  52.534  1.00  0.00     0.003 C 
HETATM   27  C   UNL     1       5.574  34.142  52.921  1.00  0.00     0.001 C 
HETATM   28  C   UNL     1       4.961  34.296  54.169  1.00  0.00     0.012 C 
BRANCH  24  29
HETATM   29  O   UNL     1       6.624  37.305  55.390  1.00  0.00    -0.355 OA
HETATM   30  C   UNL     1       7.839  37.937  54.971  1.00  0.00     0.210 C 
ENDBRANCH  24  29
ENDBRANCH   2  23
BRANCH   3  31
HETATM   31  C   UNL     1       2.300  36.010  55.797  1.00  0.00     0.038 A 
HETATM   32  C   UNL     1       1.138  35.465  56.370  1.00  0.00     0.032 A 
HETATM   33  C   UNL     1      -0.043  35.325  55.634  1.00  0.00     0.039 A 
HETATM   34  C   UNL     1      -0.095  35.715  54.300  1.00  0.00     0.068 A 
HETATM   35  C   UNL     1       1.047  36.253  53.713  1.00  0.00     0.039 A 
HETATM   36  C   UNL     1       2.230  36.407  54.458  1.00  0.00     0.032 A 
BRANCH  34  37
HETATM   37  O   UNL     1      -1.309  35.528  53.700  1.00  0.00    -0.356 OA
HETATM   38  C   UNL     1      -2.052  34.384  54.097  1.00  0.00     0.210 C 
ENDBRANCH  34  37
ENDBRANCH   3  31
TORSDOF 7
ENDMDL
MODEL 10
REMARK VINA RESULT:      -6.2      2.253      5.449
REMARK  7 active torsions:
REMARK  status: ('A' for Active; 'I' for Inactive)
REMARK       I    between atoms: C_2  and  N_3 
REMARK    1  A    between atoms: N_3  and  C_4 
REMARK    2  A    between atoms: C_7  and  N_8 
REMARK       I    between atoms: N_8  and  C_9 
REMARK    3  A    between atoms: C_9  and  C_10 
REMARK    4  A    between atoms: C_11  and  C_12 
REMARK    5  A    between atoms: C_13  and  O_14 
REMARK    6  A    between atoms: N_20  and  C_21 
REMARK    7  A    between atoms: C_24  and  O_25 
ROOT
HETATM    1  C   UNL     1       2.598  28.563  48.108  1.00  0.00     0.106 C 
HETATM    2  C   UNL     1       2.341  30.054  47.727  1.00  0.00     0.142 C 
HETATM    3  N   UNL     1       3.610  30.813  47.659  1.00  0.00    -0.308 N 
HETATM    4  C   UNL     1       4.525  30.282  46.737  1.00  0.00     0.225 C 
HETATM    5  O   UNL     1       4.986  30.884  45.775  1.00  0.00    -0.273 OA
HETATM    6  C   UNL     1       4.961  28.887  47.129  1.00  0.00     0.104 C 
HETATM    7  C   UNL     1       3.768  27.963  47.302  1.00  0.00     0.026 C 
ENDROOT
BRANCH   1   8
HETATM    8  C   UNL     1       2.750  28.341  49.613  1.00  0.00     0.228 C 
HETATM    9  N   UNL     1       4.001  27.848  49.931  1.00  0.00    -0.327 N 
HETATM   10  H   UNL     1       4.673  27.822  49.169  1.00  0.00     0.169 HD
HETATM   11  O   UNL     1       1.843  28.575  50.403  1.00  0.00    -0.273 OA
BRANCH   9  12
HETATM   12  C   UNL     1       4.466  27.308  51.141  1.00  0.00     0.034 A 
HETATM   13  C   UNL     1       4.388  27.947  52.373  1.00  0.00     0.032 A 
HETATM   14  C   UNL     1       4.795  27.283  53.541  1.00  0.00     0.032 A 
HETATM   15  C   UNL     1       5.292  25.978  53.487  1.00  0.00     0.034 A 
HETATM   16  C   UNL     1       5.401  25.353  52.243  1.00  0.00     0.032 A 
HETATM   17  C   UNL     1       4.986  26.010  51.082  1.00  0.00     0.032 A 
BRANCH  15  18
HETATM   18  N   UNL     1       5.683  25.224  54.611  1.00  0.00    -0.328 N 
HETATM   19  C   UNL     1       6.773  25.438  55.432  1.00  0.00     0.218 C 
HETATM   20  C   UNL     1       6.823  24.450  56.571  1.00  0.00     0.117 C 
HETATM   21  O   UNL     1       7.611  26.327  55.332  1.00  0.00    -0.274 OA
HETATM   22  H   UNL     1       5.063  24.469  54.873  1.00  0.00     0.169 HD
ENDBRANCH  15  18
ENDBRANCH   9  12
ENDBRANCH   1   8
BRANCH   2  23
HETATM   23  C   UNL     1       1.091  30.802  48.244  1.00  0.00    -0.001 C 
HETATM   24  C   UNL     1      -0.084  30.970  47.482  1.00  0.00     0.076 C 
HETATM   25  C   UNL     1      -1.230  31.575  48.022  1.00  0.00     0.037 C 
HETATM   26  C   UNL     1      -1.201  32.128  49.295  1.00  0.00     0.003 C 
HETATM   27  C   UNL     1      -0.016  32.108  50.014  1.00  0.00     0.001 C 
HETATM   28  C   UNL     1       1.116  31.479  49.483  1.00  0.00     0.012 C 
BRANCH  24  29
HETATM   29  O   UNL     1      -0.126  30.487  46.198  1.00  0.00    -0.355 OA
HETATM   30  C   UNL     1      -1.296  30.911  45.491  1.00  0.00     0.210 C 
ENDBRANCH  24  29
ENDBRANCH   2  23
BRANCH   3  31
HETATM   31  C   UNL     1       4.194  31.578  48.733  1.00  0.00     0.038 A 
HETATM   32  C   UNL     1       4.201  32.980  48.637  1.00  0.00     0.032 A 
HETATM   33  C   UNL     1       4.726  33.779  49.657  1.00  0.00     0.039 A 
HETATM   34  C   UNL     1       5.269  33.201  50.799  1.00  0.00     0.068 A 
HETATM   35  C   UNL     1       5.276  31.814  50.911  1.00  0.00     0.039 A 
HETATM   36  C   UNL     1       4.735  31.011  49.891  1.00  0.00     0.032 A 
BRANCH  34  37
HETATM   37  O   UNL     1       5.743  34.095  51.719  1.00  0.00    -0.356 OA
HETATM   38  C   UNL     1       6.485  35.199  51.218  1.00  0.00     0.210 C 
ENDBRANCH  34  37
ENDBRANCH   3  31
TORSDOF 7
ENDMDL
