MODEL 1
REMARK VINA RESULT:      -9.4      0.000      0.000
REMARK  5 active torsions:
REMARK  status: ('A' for Active; 'I' for Inactive)
REMARK    1  A    between atoms: C_8  and  N_9 
REMARK    2  A    between atoms: N_9  and  C_10 
REMARK    3  A    between atoms: C_10  and  C_11 
REMARK       I    between atoms: C_11  and  N_12 
REMARK    4  A    between atoms: N_12  and  N_13 
REMARK    5  A    between atoms: C_14  and  C_15 
ROOT
HETATM    1  C   UNL     1       8.188  28.337  57.208  1.00  0.00     0.250 C 
HETATM    2  N   UNL     1       7.306  27.477  56.553  1.00  0.00    -0.246 N 
HETATM    3  O   UNL     1       9.405  28.368  57.033  1.00  0.00    -0.270 OA
HETATM    4  H   UNL     1       6.317  27.709  56.552  1.00  0.00     0.192 HD
ENDROOT
BRANCH   2   5
HETATM    5  N   UNL     1       7.643  26.609  55.541  1.00  0.00    -0.184 NA
HETATM    6  C   UNL     1       7.009  25.483  55.449  1.00  0.00     0.152 C 
BRANCH   6   7
HETATM    7  C   UNL     1       7.385  24.540  54.412  1.00  0.00     0.011 A 
HETATM    8  C   UNL     1       7.600  23.132  54.564  1.00  0.00     0.004 A 
HETATM    9  C   UNL     1       7.943  22.624  53.309  1.00  0.00     0.043 A 
HETATM   10  C   UNL     1       7.538  22.237  55.654  1.00  0.00     0.014 A 
HETATM   11  C   UNL     1       8.222  21.270  53.088  1.00  0.00     0.030 A 
HETATM   12  N   UNL     1       7.940  23.682  52.430  1.00  0.00    -0.364 N 
HETATM   13  C   UNL     1       8.152  20.406  54.185  1.00  0.00     0.002 A 
HETATM   14  C   UNL     1       7.815  20.880  55.450  1.00  0.00     0.001 A 
HETATM   15  H   UNL     1       8.159  23.609  51.446  1.00  0.00     0.165 HD
HETATM   16  C   UNL     1       7.606  24.838  53.080  1.00  0.00     0.102 A 
ENDBRANCH   6   7
ENDBRANCH   2   5
BRANCH   1  17
HETATM   17  C   UNL     1       7.479  29.277  58.196  1.00  0.00     0.197 C 
BRANCH  17  18
HETATM   18  N   UNL     1       8.441  29.836  59.165  1.00  0.00    -0.284 NA
HETATM   19  H   UNL     1       9.318  30.083  58.709  1.00  0.00     0.128 HD
BRANCH  18  20
HETATM   20  C   UNL     1       7.916  30.917  59.902  1.00  0.00     0.016 A 
HETATM   21  C   UNL     1       8.330  31.181  61.227  1.00  0.00    -0.019 A 
HETATM   22  C   UNL     1       9.449  30.396  61.862  1.00  0.00     0.052 C 
HETATM   23  C   UNL     1       7.678  32.202  61.945  1.00  0.00     0.041 A 
HETATM   24 CL   UNL     1       8.088  32.563  63.588  1.00  0.00    -0.084 Cl
HETATM   25  C   UNL     1       6.664  32.962  61.359  1.00  0.00     0.024 A 
HETATM   26  C   UNL     1       6.273  32.710  60.049  1.00  0.00     0.003 A 
HETATM   27  C   UNL     1       6.890  31.688  59.330  1.00  0.00     0.024 A 
ENDBRANCH  18  20
ENDBRANCH  17  18
ENDBRANCH   1  17
TORSDOF 5
ENDMDL
MODEL 2
REMARK VINA RESULT:      -9.3      1.474      2.097
REMARK  5 active torsions:
REMARK  status: ('A' for Active; 'I' for Inactive)
REMARK    1  A    between atoms: C_8  and  N_9 
REMARK    2  A    between atoms: N_9  and  C_10 
REMARK    3  A    between atoms: C_10  and  C_11 
REMARK       I    between atoms: C_11  and  N_12 
REMARK    4  A    between atoms: N_12  and  N_13 
REMARK    5  A    between atoms: C_14  and  C_15 
ROOT
HETATM    1  C   UNL     1       8.268  29.266  57.813  1.00  0.00     0.250 C 
HETATM    2  N   UNL     1       7.434  28.161  57.991  1.00  0.00    -0.246 N 
HETATM    3  O   UNL     1       9.461  29.211  57.521  1.00  0.00    -0.270 OA
HETATM    4  H   UNL     1       6.429  28.303  57.952  1.00  0.00     0.192 HD
ENDROOT
BRANCH   2   5
HETATM    5  N   UNL     1       7.789  26.852  57.765  1.00  0.00    -0.184 NA
HETATM    6  C   UNL     1       7.691  26.379  56.562  1.00  0.00     0.152 C 
BRANCH   6   7
HETATM    7  C   UNL     1       8.021  24.988  56.319  1.00  0.00     0.011 A 
HETATM    8  C   UNL     1       7.931  24.286  55.073  1.00  0.00     0.004 A 
HETATM    9  C   UNL     1       8.349  22.973  55.303  1.00  0.00     0.043 A 
HETATM   10  C   UNL     1       7.533  24.643  53.767  1.00  0.00     0.014 A 
HETATM   11  C   UNL     1       8.390  22.002  54.294  1.00  0.00     0.030 A 
HETATM   12  N   UNL     1       8.674  22.878  56.635  1.00  0.00    -0.364 N 
HETATM   13  C   UNL     1       7.992  22.383  53.010  1.00  0.00     0.002 A 
HETATM   14  C   UNL     1       7.569  23.683  52.747  1.00  0.00     0.001 A 
HETATM   15  H   UNL     1       9.004  22.037  57.086  1.00  0.00     0.165 HD
HETATM   16  C   UNL     1       8.482  24.082  57.256  1.00  0.00     0.102 A 
ENDBRANCH   6   7
ENDBRANCH   2   5
BRANCH   1  17
HETATM   17  C   UNL     1       7.535  30.602  58.016  1.00  0.00     0.197 C 
BRANCH  17  18
HETATM   18  N   UNL     1       8.357  31.530  58.816  1.00  0.00    -0.284 NA
HETATM   19  H   UNL     1       8.790  32.237  58.226  1.00  0.00     0.128 HD
BRANCH  18  20
HETATM   20  C   UNL     1       7.647  32.111  59.887  1.00  0.00     0.016 A 
HETATM   21  C   UNL     1       8.223  32.246  61.171  1.00  0.00    -0.019 A 
HETATM   22  C   UNL     1       9.668  31.896  61.415  1.00  0.00     0.052 C 
HETATM   23  C   UNL     1       7.418  32.725  62.223  1.00  0.00     0.041 A 
HETATM   24 CL   UNL     1       8.025  32.879  63.836  1.00  0.00    -0.084 Cl
HETATM   25  C   UNL     1       6.086  33.088  62.005  1.00  0.00     0.024 A 
HETATM   26  C   UNL     1       5.531  32.970  60.736  1.00  0.00     0.003 A 
HETATM   27  C   UNL     1       6.305  32.476  59.688  1.00  0.00     0.024 A 
ENDBRANCH  18  20
ENDBRANCH  17  18
ENDBRANCH   1  17
TORSDOF 5
ENDMDL
MODEL 3
REMARK VINA RESULT:      -9.3      3.684     10.243
REMARK  5 active torsions:
REMARK  status: ('A' for Active; 'I' for Inactive)
REMARK    1  A    between atoms: C_8  and  N_9 
REMARK    2  A    between atoms: N_9  and  C_10 
REMARK    3  A    between atoms: C_10  and  C_11 
REMARK       I    between atoms: C_11  and  N_12 
REMARK    4  A    between atoms: N_12  and  N_13 
REMARK    5  A    between atoms: C_14  and  C_15 
ROOT
HETATM    1  C   UNL     1       7.976  26.073  57.429  1.00  0.00     0.250 C 
HETATM    2  N   UNL     1       7.707  27.339  56.907  1.00  0.00    -0.246 N 
HETATM    3  O   UNL     1       7.894  25.767  58.617  1.00  0.00    -0.270 OA
HETATM    4  H   UNL     1       7.531  27.422  55.909  1.00  0.00     0.192 HD
ENDROOT
BRANCH   2   5
HETATM    5  N   UNL     1       7.208  28.404  57.619  1.00  0.00    -0.184 NA
HETATM    6  C   UNL     1       8.005  29.384  57.911  1.00  0.00     0.152 C 
BRANCH   6   7
HETATM    7  C   UNL     1       7.503  30.494  58.699  1.00  0.00     0.011 A 
HETATM    8  C   UNL     1       8.000  30.947  59.965  1.00  0.00     0.004 A 
HETATM    9  C   UNL     1       7.220  32.039  60.353  1.00  0.00     0.043 A 
HETATM   10  C   UNL     1       9.040  30.529  60.822  1.00  0.00     0.014 A 
HETATM   11  C   UNL     1       7.431  32.735  61.550  1.00  0.00     0.030 A 
HETATM   12  N   UNL     1       6.284  32.240  59.365  1.00  0.00    -0.364 N 
HETATM   13  C   UNL     1       8.469  32.301  62.379  1.00  0.00     0.002 A 
HETATM   14  C   UNL     1       9.263  31.214  62.023  1.00  0.00     0.001 A 
HETATM   15  H   UNL     1       5.580  32.964  59.383  1.00  0.00     0.165 HD
HETATM   16  C   UNL     1       6.445  31.319  58.367  1.00  0.00     0.102 A 
ENDBRANCH   6   7
ENDBRANCH   2   5
BRANCH   1  17
HETATM   17  C   UNL     1       8.393  25.061  56.349  1.00  0.00     0.197 C 
BRANCH  17  18
HETATM   18  N   UNL     1       7.328  24.063  56.133  1.00  0.00    -0.284 NA
HETATM   19  H   UNL     1       6.647  24.396  55.453  1.00  0.00     0.128 HD
BRANCH  18  20
HETATM   20  C   UNL     1       7.828  22.791  55.787  1.00  0.00     0.016 A 
HETATM   21  C   UNL     1       7.816  22.329  54.452  1.00  0.00    -0.019 A 
HETATM   22  C   UNL     1       7.392  23.231  53.320  1.00  0.00     0.052 C 
HETATM   23  C   UNL     1       8.219  21.003  54.194  1.00  0.00     0.041 A 
HETATM   24 CL   UNL     1       8.193  20.339  52.596  1.00  0.00    -0.084 Cl
HETATM   25  C   UNL     1       8.649  20.166  55.226  1.00  0.00     0.024 A 
HETATM   26  C   UNL     1       8.674  20.632  56.536  1.00  0.00     0.003 A 
HETATM   27  C   UNL     1       8.258  21.933  56.813  1.00  0.00     0.024 A 
ENDBRANCH  18  20
ENDBRANCH  17  18
ENDBRANCH   1  17
TORSDOF 5
ENDMDL
MODEL 4
REMARK VINA RESULT:      -9.1      7.105      9.892
REMARK  5 active torsions:
REMARK  status: ('A' for Active; 'I' for Inactive)
REMARK    1  A    between atoms: C_8  and  N_9 
REMARK    2  A    between atoms: N_9  and  C_10 
REMARK    3  A    between atoms: C_10  and  C_11 
REMARK       I    between atoms: C_11  and  N_12 
REMARK    4  A    between atoms: N_12  and  N_13 
REMARK    5  A    between atoms: C_14  and  C_15 
ROOT
HETATM    1  C   UNL     1       5.339  27.328  51.600  1.00  0.00     0.250 C 
HETATM    2  N   UNL     1       5.106  25.961  51.756  1.00  0.00    -0.246 N 
HETATM    3  O   UNL     1       5.803  28.069  52.465  1.00  0.00    -0.270 OA
HETATM    4  H   UNL     1       4.992  25.392  50.922  1.00  0.00     0.192 HD
ENDROOT
BRANCH   2   5
HETATM    5  N   UNL     1       5.455  25.215  52.857  1.00  0.00    -0.184 NA
HETATM    6  C   UNL     1       6.643  24.698  52.907  1.00  0.00     0.152 C 
BRANCH   6   7
HETATM    7  C   UNL     1       7.009  23.872  54.043  1.00  0.00     0.011 A 
HETATM    8  C   UNL     1       7.572  22.555  54.005  1.00  0.00     0.004 A 
HETATM    9  C   UNL     1       7.764  22.146  55.327  1.00  0.00     0.043 A 
HETATM   10  C   UNL     1       7.938  21.669  52.970  1.00  0.00     0.014 A 
HETATM   11  C   UNL     1       8.304  20.898  55.664  1.00  0.00     0.030 A 
HETATM   12  N   UNL     1       7.330  23.170  56.136  1.00  0.00    -0.364 N 
HETATM   13  C   UNL     1       8.659  20.041  54.619  1.00  0.00     0.002 A 
HETATM   14  C   UNL     1       8.479  20.418  53.291  1.00  0.00     0.001 A 
HETATM   15  H   UNL     1       7.345  23.147  57.145  1.00  0.00     0.165 HD
HETATM   16  C   UNL     1       6.875  24.213  55.376  1.00  0.00     0.102 A 
ENDBRANCH   6   7
ENDBRANCH   2   5
BRANCH   1  17
HETATM   17  C   UNL     1       4.957  27.840  50.202  1.00  0.00     0.197 C 
BRANCH  17  18
HETATM   18  N   UNL     1       3.491  27.857  50.037  1.00  0.00    -0.284 NA
HETATM   19  H   UNL     1       3.127  28.806  50.091  1.00  0.00     0.128 HD
BRANCH  18  20
HETATM   20  C   UNL     1       3.061  27.202  48.864  1.00  0.00     0.016 A 
HETATM   21  C   UNL     1       1.981  27.693  48.096  1.00  0.00    -0.019 A 
HETATM   22  C   UNL     1       1.329  29.011  48.425  1.00  0.00     0.052 C 
HETATM   23  C   UNL     1       1.528  26.925  47.005  1.00  0.00     0.041 A 
HETATM   24 CL   UNL     1       0.183  27.425  46.037  1.00  0.00    -0.084 Cl
HETATM   25  C   UNL     1       2.145  25.719  46.665  1.00  0.00     0.024 A 
HETATM   26  C   UNL     1       3.218  25.250  47.414  1.00  0.00     0.003 A 
HETATM   27  C   UNL     1       3.666  25.984  48.511  1.00  0.00     0.024 A 
ENDBRANCH  18  20
ENDBRANCH  17  18
ENDBRANCH   1  17
TORSDOF 5
ENDMDL
MODEL 5
REMARK VINA RESULT:      -9.1      6.219      9.143
REMARK  5 active torsions:
REMARK  status: ('A' for Active; 'I' for Inactive)
REMARK    1  A    between atoms: C_8  and  N_9 
REMARK    2  A    between atoms: N_9  and  C_10 
REMARK    3  A    between atoms: C_10  and  C_11 
REMARK       I    between atoms: C_11  and  N_12 
REMARK    4  A    between atoms: N_12  and  N_13 
REMARK    5  A    between atoms: C_14  and  C_15 
ROOT
HETATM    1  C   UNL     1       5.761  25.924  54.906  1.00  0.00     0.250 C 
HETATM    2  N   UNL     1       5.632  25.516  53.578  1.00  0.00    -0.246 N 
HETATM    3  O   UNL     1       5.459  27.036  55.336  1.00  0.00    -0.270 OA
HETATM    4  H   UNL     1       5.639  24.520  53.376  1.00  0.00     0.192 HD
ENDROOT
BRANCH   2   5
HETATM    5  N   UNL     1       5.054  26.252  52.571  1.00  0.00    -0.184 NA
HETATM    6  C   UNL     1       5.541  26.160  51.374  1.00  0.00     0.152 C 
BRANCH   6   7
HETATM    7  C   UNL     1       4.968  26.965  50.312  1.00  0.00     0.011 A 
HETATM    8  C   UNL     1       4.169  26.503  49.216  1.00  0.00     0.004 A 
HETATM    9  C   UNL     1       3.835  27.618  48.444  1.00  0.00     0.043 A 
HETATM   10  C   UNL     1       3.697  25.238  48.804  1.00  0.00     0.014 A 
HETATM   11  C   UNL     1       3.052  27.532  47.285  1.00  0.00     0.030 A 
HETATM   12  N   UNL     1       4.411  28.713  49.043  1.00  0.00    -0.364 N 
HETATM   13  C   UNL     1       2.597  26.267  46.902  1.00  0.00     0.002 A 
HETATM   14  C   UNL     1       2.913  25.136  47.648  1.00  0.00     0.001 A 
HETATM   15  H   UNL     1       4.340  29.659  48.696  1.00  0.00     0.165 HD
HETATM   16  C   UNL     1       5.094  28.334  50.166  1.00  0.00     0.102 A 
ENDBRANCH   6   7
ENDBRANCH   2   5
BRANCH   1  17
HETATM   17  C   UNL     1       6.326  24.820  55.815  1.00  0.00     0.197 C 
BRANCH  17  18
HETATM   18  N   UNL     1       7.745  24.564  55.501  1.00  0.00    -0.284 NA
HETATM   19  H   UNL     1       8.358  25.039  56.160  1.00  0.00     0.128 HD
BRANCH  18  20
HETATM   20  C   UNL     1       8.049  23.190  55.408  1.00  0.00     0.016 A 
HETATM   21  C   UNL     1       8.134  22.533  54.159  1.00  0.00    -0.019 A 
HETATM   22  C   UNL     1       8.035  23.304  52.867  1.00  0.00     0.052 C 
HETATM   23  C   UNL     1       8.322  21.137  54.144  1.00  0.00     0.041 A 
HETATM   24 CL   UNL     1       8.392  20.244  52.663  1.00  0.00    -0.084 Cl
HETATM   25  C   UNL     1       8.452  20.414  55.332  1.00  0.00     0.024 A 
HETATM   26  C   UNL     1       8.385  21.068  56.557  1.00  0.00     0.003 A 
HETATM   27  C   UNL     1       8.176  22.446  56.592  1.00  0.00     0.024 A 
ENDBRANCH  18  20
ENDBRANCH  17  18
ENDBRANCH   1  17
TORSDOF 5
ENDMDL
MODEL 6
REMARK VINA RESULT:      -8.9      3.509     10.114
REMARK  5 active torsions:
REMARK  status: ('A' for Active; 'I' for Inactive)
REMARK    1  A    between atoms: C_8  and  N_9 
REMARK    2  A    between atoms: N_9  and  C_10 
REMARK    3  A    between atoms: C_10  and  C_11 
REMARK       I    between atoms: C_11  and  N_12 
REMARK    4  A    between atoms: N_12  and  N_13 
REMARK    5  A    between atoms: C_14  and  C_15 
ROOT
HETATM    1  C   UNL     1       7.467  27.050  57.114  1.00  0.00     0.250 C 
HETATM    2  N   UNL     1       6.859  28.274  56.835  1.00  0.00    -0.246 N 
HETATM    3  O   UNL     1       7.858  26.691  58.223  1.00  0.00    -0.270 OA
HETATM    4  H   UNL     1       6.329  28.366  55.974  1.00  0.00     0.192 HD
ENDROOT
BRANCH   2   5
HETATM    5  N   UNL     1       6.509  29.220  57.770  1.00  0.00    -0.184 NA
HETATM    6  C   UNL     1       7.211  30.307  57.850  1.00  0.00     0.152 C 
BRANCH   6   7
HETATM    7  C   UNL     1       6.878  31.292  58.861  1.00  0.00     0.011 A 
HETATM    8  C   UNL     1       7.511  31.468  60.135  1.00  0.00     0.004 A 
HETATM    9  C   UNL     1       6.871  32.531  60.775  1.00  0.00     0.043 A 
HETATM   10  C   UNL     1       8.570  30.821  60.807  1.00  0.00     0.014 A 
HETATM   11  C   UNL     1       7.237  32.981  62.050  1.00  0.00     0.030 A 
HETATM   12  N   UNL     1       5.886  32.981  59.928  1.00  0.00    -0.364 N 
HETATM   13  C   UNL     1       8.290  32.323  62.692  1.00  0.00     0.002 A 
HETATM   14  C   UNL     1       8.948  31.259  62.082  1.00  0.00     0.001 A 
HETATM   15  H   UNL     1       5.257  33.744  60.135  1.00  0.00     0.165 HD
HETATM   16  C   UNL     1       5.881  32.246  58.775  1.00  0.00     0.102 A 
ENDBRANCH   6   7
ENDBRANCH   2   5
BRANCH   1  17
HETATM   17  C   UNL     1       7.604  26.158  55.869  1.00  0.00     0.197 C 
BRANCH  17  18
HETATM   18  N   UNL     1       7.989  24.786  56.252  1.00  0.00    -0.284 NA
HETATM   19  H   UNL     1       7.437  24.458  57.042  1.00  0.00     0.128 HD
BRANCH  18  20
HETATM   20  C   UNL     1       7.940  23.879  55.173  1.00  0.00     0.016 A 
HETATM   21  C   UNL     1       8.188  22.499  55.354  1.00  0.00    -0.019 A 
HETATM   22  C   UNL     1       8.383  21.919  56.732  1.00  0.00     0.052 C 
HETATM   23  C   UNL     1       8.242  21.670  54.217  1.00  0.00     0.041 A 
HETATM   24 CL   UNL     1       8.585  19.978  54.340  1.00  0.00    -0.084 Cl
HETATM   25  C   UNL     1       8.028  22.186  52.937  1.00  0.00     0.024 A 
HETATM   26  C   UNL     1       7.767  23.541  52.767  1.00  0.00     0.003 A 
HETATM   27  C   UNL     1       7.733  24.382  53.878  1.00  0.00     0.024 A 
ENDBRANCH  18  20
ENDBRANCH  17  18
ENDBRANCH   1  17
TORSDOF 5
ENDMDL
MODEL 7
REMARK VINA RESULT:      -8.8      2.231      3.791
REMARK  5 active torsions:
REMARK  status: ('A' for Active; 'I' for Inactive)
REMARK    1  A    between atoms: C_8  and  N_9 
REMARK    2  A    between atoms: N_9  and  C_10 
REMARK    3  A    between atoms: C_10  and  C_11 
REMARK       I    between atoms: C_11  and  N_12 
REMARK    4  A    between atoms: N_12  and  N_13 
REMARK    5  A    between atoms: C_14  and  C_15 
ROOT
HETATM    1  C   UNL     1       8.211  30.961  59.523  1.00  0.00     0.250 C 
HETATM    2  N   UNL     1       7.843  29.674  59.129  1.00  0.00    -0.246 N 
HETATM    3  O   UNL     1       8.606  31.846  58.766  1.00  0.00    -0.270 OA
HETATM    4  H   UNL     1       7.277  29.118  59.763  1.00  0.00     0.192 HD
ENDROOT
BRANCH   2   5
HETATM    5  N   UNL     1       7.765  29.232  57.830  1.00  0.00    -0.184 NA
HETATM    6  C   UNL     1       7.616  27.963  57.612  1.00  0.00     0.152 C 
BRANCH   6   7
HETATM    7  C   UNL     1       7.575  27.478  56.245  1.00  0.00     0.011 A 
HETATM    8  C   UNL     1       7.414  26.120  55.817  1.00  0.00     0.004 A 
HETATM    9  C   UNL     1       7.431  26.119  54.420  1.00  0.00     0.043 A 
HETATM   10  C   UNL     1       7.257  24.887  56.485  1.00  0.00     0.014 A 
HETATM   11  C   UNL     1       7.296  24.950  53.660  1.00  0.00     0.030 A 
HETATM   12  N   UNL     1       7.600  27.422  54.015  1.00  0.00    -0.364 N 
HETATM   13  C   UNL     1       7.140  23.743  54.349  1.00  0.00     0.002 A 
HETATM   14  C   UNL     1       7.121  23.710  55.740  1.00  0.00     0.001 A 
HETATM   15  H   UNL     1       7.654  27.720  53.052  1.00  0.00     0.165 HD
HETATM   16  C   UNL     1       7.687  28.248  55.103  1.00  0.00     0.102 A 
ENDBRANCH   6   7
ENDBRANCH   2   5
BRANCH   1  17
HETATM   17  C   UNL     1       8.069  31.182  61.038  1.00  0.00     0.197 C 
BRANCH  17  18
HETATM   18  N   UNL     1       6.671  31.501  61.387  1.00  0.00    -0.284 NA
HETATM   19  H   UNL     1       6.090  30.665  61.375  1.00  0.00     0.128 HD
BRANCH  18  20
HETATM   20  C   UNL     1       6.553  32.196  62.609  1.00  0.00     0.016 A 
HETATM   21  C   UNL     1       5.311  32.700  63.057  1.00  0.00    -0.019 A 
HETATM   22  C   UNL     1       4.035  32.398  62.312  1.00  0.00     0.052 C 
HETATM   23  C   UNL     1       5.286  33.488  64.225  1.00  0.00     0.041 A 
HETATM   24 CL   UNL     1       3.818  34.184  64.822  1.00  0.00    -0.084 Cl
HETATM   25  C   UNL     1       6.454  33.747  64.946  1.00  0.00     0.024 A 
HETATM   26  C   UNL     1       7.670  33.234  64.509  1.00  0.00     0.003 A 
HETATM   27  C   UNL     1       7.719  32.472  63.343  1.00  0.00     0.024 A 
ENDBRANCH  18  20
ENDBRANCH  17  18
ENDBRANCH   1  17
TORSDOF 5
ENDMDL
MODEL 8
REMARK VINA RESULT:      -8.5      1.852      3.067
REMARK  5 active torsions:
REMARK  status: ('A' for Active; 'I' for Inactive)
REMARK    1  A    between atoms: C_8  and  N_9 
REMARK    2  A    between atoms: N_9  and  C_10 
REMARK    3  A    between atoms: C_10  and  C_11 
REMARK       I    between atoms: C_11  and  N_12 
REMARK    4  A    between atoms: N_12  and  N_13 
REMARK    5  A    between atoms: C_14  and  C_15 
ROOT
HETATM    1  C   UNL     1       8.273  30.007  58.428  1.00  0.00     0.250 C 
HETATM    2  N   UNL     1       7.333  28.987  58.275  1.00  0.00    -0.246 N 
HETATM    3  O   UNL     1       9.489  29.870  58.307  1.00  0.00    -0.270 OA
HETATM    4  H   UNL     1       6.363  29.245  58.117  1.00  0.00     0.192 HD
ENDROOT
BRANCH   2   5
HETATM    5  N   UNL     1       7.609  27.705  57.863  1.00  0.00    -0.184 NA
HETATM    6  C   UNL     1       7.201  27.325  56.693  1.00  0.00     0.152 C 
BRANCH   6   7
HETATM    7  C   UNL     1       7.448  25.962  56.264  1.00  0.00     0.011 A 
HETATM    8  C   UNL     1       7.572  25.491  54.916  1.00  0.00     0.004 A 
HETATM    9  C   UNL     1       7.807  24.115  54.975  1.00  0.00     0.043 A 
HETATM   10  C   UNL     1       7.505  26.105  53.647  1.00  0.00     0.014 A 
HETATM   11  C   UNL     1       7.982  23.325  53.832  1.00  0.00     0.030 A 
HETATM   12  N   UNL     1       7.821  23.762  56.304  1.00  0.00    -0.364 N 
HETATM   13  C   UNL     1       7.912  23.960  52.588  1.00  0.00     0.002 A 
HETATM   14  C   UNL     1       7.677  25.329  52.494  1.00  0.00     0.001 A 
HETATM   15  H   UNL     1       7.966  22.823  56.646  1.00  0.00     0.165 HD
HETATM   16  C   UNL     1       7.607  24.863  57.088  1.00  0.00     0.102 A 
ENDBRANCH   6   7
ENDBRANCH   2   5
BRANCH   1  17
HETATM   17  C   UNL     1       7.631  31.362  58.768  1.00  0.00     0.197 C 
BRANCH  17  18
HETATM   18  N   UNL     1       6.561  31.193  59.769  1.00  0.00    -0.284 NA
HETATM   19  H   UNL     1       6.228  30.231  59.792  1.00  0.00     0.128 HD
BRANCH  18  20
HETATM   20  C   UNL     1       6.931  31.644  61.053  1.00  0.00     0.016 A 
HETATM   21  C   UNL     1       6.002  32.268  61.916  1.00  0.00    -0.019 A 
HETATM   22  C   UNL     1       4.542  32.357  61.552  1.00  0.00     0.052 C 
HETATM   23  C   UNL     1       6.467  32.801  63.134  1.00  0.00     0.041 A 
HETATM   24 CL   UNL     1       5.409  33.622  64.231  1.00  0.00    -0.084 Cl
HETATM   25  C   UNL     1       7.810  32.694  63.502  1.00  0.00     0.024 A 
HETATM   26  C   UNL     1       8.716  32.064  62.657  1.00  0.00     0.003 A 
HETATM   27  C   UNL     1       8.280  31.551  61.437  1.00  0.00     0.024 A 
ENDBRANCH  18  20
ENDBRANCH  17  18
ENDBRANCH   1  17
TORSDOF 5
ENDMDL
MODEL 9
REMARK VINA RESULT:      -8.5      5.280     11.432
REMARK  5 active torsions:
REMARK  status: ('A' for Active; 'I' for Inactive)
REMARK    1  A    between atoms: C_8  and  N_9 
REMARK    2  A    between atoms: N_9  and  C_10 
REMARK    3  A    between atoms: C_10  and  C_11 
REMARK       I    between atoms: C_11  and  N_12 
REMARK    4  A    between atoms: N_12  and  N_13 
REMARK    5  A    between atoms: C_14  and  C_15 
ROOT
HETATM    1  C   UNL     1       8.210  31.009  61.399  1.00  0.00     0.250 C 
HETATM    2  N   UNL     1       6.991  31.644  61.160  1.00  0.00    -0.246 N 
HETATM    3  O   UNL     1       8.672  30.760  62.511  1.00  0.00    -0.270 OA
HETATM    4  H   UNL     1       6.572  31.555  60.239  1.00  0.00     0.192 HD
ENDROOT
BRANCH   2   5
HETATM    5  N   UNL     1       6.073  31.992  62.123  1.00  0.00    -0.184 NA
HETATM    6  C   UNL     1       6.160  33.163  62.672  1.00  0.00     0.152 C 
BRANCH   6   7
HETATM    7  C   UNL     1       5.225  33.526  63.720  1.00  0.00     0.011 A 
HETATM    8  C   UNL     1       5.532  33.803  65.092  1.00  0.00     0.004 A 
HETATM    9  C   UNL     1       4.330  34.108  65.735  1.00  0.00     0.043 A 
HETATM   10  C   UNL     1       6.721  33.822  65.851  1.00  0.00     0.014 A 
HETATM   11  C   UNL     1       4.259  34.435  67.095  1.00  0.00     0.030 A 
HETATM   12  N   UNL     1       3.332  34.016  64.794  1.00  0.00    -0.364 N 
HETATM   13  C   UNL     1       5.452  34.447  67.823  1.00  0.00     0.002 A 
HETATM   14  C   UNL     1       6.667  34.146  67.212  1.00  0.00     0.001 A 
HETATM   15  H   UNL     1       2.353  34.180  64.980  1.00  0.00     0.165 HD
HETATM   16  C   UNL     1       3.857  33.667  63.580  1.00  0.00     0.102 A 
ENDBRANCH   6   7
ENDBRANCH   2   5
BRANCH   1  17
HETATM   17  C   UNL     1       8.947  30.631  60.103  1.00  0.00     0.197 C 
BRANCH  17  18
HETATM   18  N   UNL     1       8.177  29.629  59.341  1.00  0.00    -0.284 NA
HETATM   19  H   UNL     1       7.176  29.790  59.432  1.00  0.00     0.128 HD
BRANCH  18  20
HETATM   20  C   UNL     1       8.569  29.546  57.988  1.00  0.00     0.016 A 
HETATM   21  C   UNL     1       7.689  29.068  56.991  1.00  0.00    -0.019 A 
HETATM   22  C   UNL     1       6.250  28.753  57.310  1.00  0.00     0.052 C 
HETATM   23  C   UNL     1       8.183  28.898  55.683  1.00  0.00     0.041 A 
HETATM   24 CL   UNL     1       7.190  28.275  54.409  1.00  0.00    -0.084 Cl
HETATM   25  C   UNL     1       9.504  29.220  55.363  1.00  0.00     0.024 A 
HETATM   26  C   UNL     1      10.359  29.707  56.345  1.00  0.00     0.003 A 
HETATM   27  C   UNL     1       9.896  29.860  57.650  1.00  0.00     0.024 A 
ENDBRANCH  18  20
ENDBRANCH  17  18
ENDBRANCH   1  17
TORSDOF 5
ENDMDL
MODEL 10
REMARK VINA RESULT:      -8.1      6.145      9.388
REMARK  5 active torsions:
REMARK  status: ('A' for Active; 'I' for Inactive)
REMARK    1  A    between atoms: C_8  and  N_9 
REMARK    2  A    between atoms: N_9  and  C_10 
REMARK    3  A    between atoms: C_10  and  C_11 
REMARK       I    between atoms: C_11  and  N_12 
REMARK    4  A    between atoms: N_12  and  N_13 
REMARK    5  A    between atoms: C_14  and  C_15 
ROOT
HETATM    1  C   UNL     1       5.617  26.253  53.906  1.00  0.00     0.250 C 
HETATM    2  N   UNL     1       5.326  25.666  52.674  1.00  0.00    -0.246 N 
HETATM    3  O   UNL     1       5.479  27.446  54.170  1.00  0.00    -0.270 OA
HETATM    4  H   UNL     1       5.205  24.658  52.635  1.00  0.00     0.192 HD
ENDROOT
BRANCH   2   5
HETATM    5  N   UNL     1       4.745  26.306  51.604  1.00  0.00    -0.184 NA
HETATM    6  C   UNL     1       5.275  26.162  50.430  1.00  0.00     0.152 C 
BRANCH   6   7
HETATM    7  C   UNL     1       4.696  26.866  49.301  1.00  0.00     0.011 A 
HETATM    8  C   UNL     1       4.838  28.258  48.989  1.00  0.00     0.004 A 
HETATM    9  C   UNL     1       4.116  28.498  47.817  1.00  0.00     0.043 A 
HETATM   10  C   UNL     1       5.512  29.340  49.593  1.00  0.00     0.014 A 
HETATM   11  C   UNL     1       4.038  29.762  47.220  1.00  0.00     0.030 A 
HETATM   12  N   UNL     1       3.554  27.302  47.435  1.00  0.00    -0.364 N 
HETATM   13  C   UNL     1       4.716  30.816  47.839  1.00  0.00     0.002 A 
HETATM   14  C   UNL     1       5.443  30.610  49.009  1.00  0.00     0.001 A 
HETATM   15  H   UNL     1       2.971  27.178  46.620  1.00  0.00     0.165 HD
HETATM   16  C   UNL     1       3.896  26.315  48.318  1.00  0.00     0.102 A 
ENDBRANCH   6   7
ENDBRANCH   2   5
BRANCH   1  17
HETATM   17  C   UNL     1       6.137  25.240  54.939  1.00  0.00     0.197 C 
BRANCH  17  18
HETATM   18  N   UNL     1       7.552  24.913  54.680  1.00  0.00    -0.284 NA
HETATM   19  H   UNL     1       8.155  25.293  55.408  1.00  0.00     0.128 HD
BRANCH  18  20
HETATM   20  C   UNL     1       7.774  23.534  54.491  1.00  0.00     0.016 A 
HETATM   21  C   UNL     1       8.261  22.712  55.532  1.00  0.00    -0.019 A 
HETATM   22  C   UNL     1       8.438  23.251  56.929  1.00  0.00     0.052 C 
HETATM   23  C   UNL     1       8.574  21.370  55.241  1.00  0.00     0.041 A 
HETATM   24 CL   UNL     1       9.219  20.304  56.443  1.00  0.00    -0.084 Cl
HETATM   25  C   UNL     1       8.381  20.846  53.961  1.00  0.00     0.024 A 
HETATM   26  C   UNL     1       7.885  21.654  52.945  1.00  0.00     0.003 A 
HETATM   27  C   UNL     1       7.592  22.991  53.208  1.00  0.00     0.024 A 
ENDBRANCH  18  20
ENDBRANCH  17  18
ENDBRANCH   1  17
TORSDOF 5
ENDMDL
