MODEL 1
REMARK VINA RESULT:      -8.6      0.000      0.000
REMARK  12 active torsions:
REMARK  status: ('A' for Active; 'I' for Inactive)
REMARK    1  A    between atoms: C_2  and  N_3 
REMARK    2  A    between atoms: N_3  and  C_5 
REMARK    3  A    between atoms: N_3  and  C_37 
REMARK    4  A    between atoms: C_5  and  C_6 
REMARK    5  A    between atoms: C_6  and  N_7 
REMARK    6  A    between atoms: N_7  and  C_8 
REMARK    7  A    between atoms: N_7  and  C_21 
REMARK    8  A    between atoms: C_8  and  N_9 
REMARK    9  A    between atoms: N_9  and  C_10 
REMARK   10  A    between atoms: C_11  and  C_12 
REMARK   11  A    between atoms: C_12  and  O_13 
REMARK   12  A    between atoms: C_21  and  C_22 
ROOT
HETATM    1  N   UNL     1       5.670  28.527  55.848  1.00  0.00    -0.352 N 
ENDROOT
BRANCH   1   2
HETATM    2  C   UNL     1       5.604  28.422  54.379  1.00  0.00     0.153 C 
BRANCH   2   3
HETATM    3  C   UNL     1       4.168  28.256  53.835  1.00  0.00     0.254 C 
BRANCH   3   4
HETATM    4  N   UNL     1       4.144  27.534  52.482  1.00  0.00    -0.070 N 
HETATM    5  H   UNL     1       3.359  26.869  52.496  1.00  0.00     0.279 HD
BRANCH   4   6
HETATM    6  C   UNL     1       5.419  26.736  52.252  1.00  0.00     0.230 C 
HETATM    7  C   UNL     1       5.106  25.286  51.923  1.00  0.00     0.034 C 
ENDBRANCH   4   6
BRANCH   4   8
HETATM    8  C   UNL     1       3.890  28.516  51.340  1.00  0.00     0.230 C 
HETATM    9  C   UNL     1       5.199  29.059  50.792  1.00  0.00     0.034 C 
ENDBRANCH   4   8
ENDBRANCH   3   4
ENDBRANCH   2   3
ENDBRANCH   1   2
BRANCH   1  10
HETATM   10  C   UNL     1       5.900  29.771  56.500  1.00  0.00     0.174 C 
HETATM   11  S   UNL     1       5.198  31.227  56.023  1.00  0.00    -0.041 SA
BRANCH  10  12
HETATM   12  N   UNL     1       6.860  29.679  57.489  1.00  0.00    -0.332 N 
HETATM   13  H   UNL     1       6.507  29.376  58.398  1.00  0.00     0.168 HD
BRANCH  12  14
HETATM   14  C   UNL     1       8.262  29.898  57.465  1.00  0.00     0.050 A 
HETATM   15  C   UNL     1       8.849  30.757  58.429  1.00  0.00     0.066 A 
HETATM   16  C   UNL     1      10.232  31.015  58.385  1.00  0.00     0.020 A 
HETATM   17  C   UNL     1      11.026  30.451  57.390  1.00  0.00     0.001 A 
HETATM   18  C   UNL     1      10.447  29.639  56.422  1.00  0.00     0.002 A 
HETATM   19  C   UNL     1       9.075  29.374  56.453  1.00  0.00     0.030 A 
BRANCH  15  20
HETATM   20  C   UNL     1       7.996  31.435  59.456  1.00  0.00     0.295 C 
HETATM   21  O   UNL     1       8.032  31.159  60.649  1.00  0.00    -0.259 OA
BRANCH  20  22
HETATM   22  O   UNL     1       7.176  32.355  58.889  1.00  0.00    -0.322 OA
HETATM   23  C   UNL     1       5.937  32.547  59.573  1.00  0.00     0.213 C 
ENDBRANCH  20  22
ENDBRANCH  15  20
ENDBRANCH  12  14
ENDBRANCH  10  12
ENDBRANCH   1  10
BRANCH   1  24
HETATM   24  C   UNL     1       5.182  27.359  56.621  1.00  0.00     0.169 C 
BRANCH  24  25
HETATM   25  C   UNL     1       6.079  26.155  56.544  1.00  0.00     0.029 A 
HETATM   26  C   UNL     1       7.204  26.030  57.524  1.00  0.00     0.253 A 
HETATM   27  O   UNL     1       7.391  26.851  58.415  1.00  0.00    -0.268 OA
HETATM   28  N   UNL     1       8.014  24.933  57.408  1.00  0.00    -0.322 N 
HETATM   29  C   UNL     1       7.894  23.976  56.395  1.00  0.00     0.048 A 
HETATM   30  H   UNL     1       8.772  24.872  58.076  1.00  0.00     0.169 HD
HETATM   31  C   UNL     1       6.866  24.111  55.453  1.00  0.00    -0.006 A 
HETATM   32  C   UNL     1       8.799  22.920  56.321  1.00  0.00     0.070 A 
HETATM   33  C   UNL     1       6.765  23.192  54.407  1.00  0.00     0.053 A 
HETATM   34  C   UNL     1       5.940  25.235  55.572  1.00  0.00     0.028 A 
HETATM   35  C   UNL     1       7.688  22.152  54.310  1.00  0.00     0.103 A 
HETATM   36  C   UNL     1       8.685  21.999  55.281  1.00  0.00     0.104 A 
HETATM   37  O   UNL     1       7.557  21.314  53.233  1.00  0.00    -0.346 OA
HETATM   38  O   UNL     1       9.600  20.978  55.263  1.00  0.00    -0.346 OA
HETATM   39  C   UNL     1       9.228  19.947  54.338  1.00  0.00     0.202 C 
HETATM   40  C   UNL     1       8.751  20.548  53.026  1.00  0.00     0.202 C 
ENDBRANCH  24  25
ENDBRANCH   1  24
TORSDOF 12
ENDMDL
MODEL 2
REMARK VINA RESULT:      -8.3      1.599      5.971
REMARK  12 active torsions:
REMARK  status: ('A' for Active; 'I' for Inactive)
REMARK    1  A    between atoms: C_2  and  N_3 
REMARK    2  A    between atoms: N_3  and  C_5 
REMARK    3  A    between atoms: N_3  and  C_37 
REMARK    4  A    between atoms: C_5  and  C_6 
REMARK    5  A    between atoms: C_6  and  N_7 
REMARK    6  A    between atoms: N_7  and  C_8 
REMARK    7  A    between atoms: N_7  and  C_21 
REMARK    8  A    between atoms: C_8  and  N_9 
REMARK    9  A    between atoms: N_9  and  C_10 
REMARK   10  A    between atoms: C_11  and  C_12 
REMARK   11  A    between atoms: C_12  and  O_13 
REMARK   12  A    between atoms: C_21  and  C_22 
ROOT
HETATM    1  N   UNL     1       6.056  28.629  55.412  1.00  0.00    -0.352 N 
ENDROOT
BRANCH   1   2
HETATM    2  C   UNL     1       7.471  29.030  55.529  1.00  0.00     0.153 C 
BRANCH   2   3
HETATM    3  C   UNL     1       7.758  29.934  56.747  1.00  0.00     0.254 C 
BRANCH   3   4
HETATM    4  N   UNL     1       9.019  29.498  57.505  1.00  0.00    -0.070 N 
HETATM    5  H   UNL     1       8.865  28.540  57.844  1.00  0.00     0.279 HD
BRANCH   4   6
HETATM    6  C   UNL     1       9.275  30.380  58.718  1.00  0.00     0.230 C 
HETATM    7  C   UNL     1       8.007  31.098  59.150  1.00  0.00     0.034 C 
ENDBRANCH   4   6
BRANCH   4   8
HETATM    8  C   UNL     1      10.233  29.465  56.578  1.00  0.00     0.230 C 
HETATM    9  C   UNL     1      11.478  29.954  57.298  1.00  0.00     0.034 C 
ENDBRANCH   4   8
ENDBRANCH   3   4
ENDBRANCH   2   3
ENDBRANCH   1   2
BRANCH   1  10
HETATM   10  C   UNL     1       5.299  28.895  54.237  1.00  0.00     0.174 C 
HETATM   11  S   UNL     1       3.676  29.347  54.246  1.00  0.00    -0.041 SA
BRANCH  10  12
HETATM   12  N   UNL     1       6.004  28.620  53.082  1.00  0.00    -0.332 N 
HETATM   13  H   UNL     1       6.996  28.421  53.226  1.00  0.00     0.168 HD
BRANCH  12  14
HETATM   14  C   UNL     1       5.595  28.532  51.726  1.00  0.00     0.050 A 
HETATM   15  C   UNL     1       5.452  27.256  51.122  1.00  0.00     0.066 A 
HETATM   16  C   UNL     1       5.089  27.161  49.766  1.00  0.00     0.020 A 
HETATM   17  C   UNL     1       4.889  28.311  49.005  1.00  0.00     0.001 A 
HETATM   18  C   UNL     1       5.064  29.562  49.584  1.00  0.00     0.002 A 
HETATM   19  C   UNL     1       5.424  29.671  50.930  1.00  0.00     0.030 A 
BRANCH  15  20
HETATM   20  C   UNL     1       5.743  26.013  51.906  1.00  0.00     0.295 C 
HETATM   21  O   UNL     1       4.901  25.155  52.141  1.00  0.00    -0.259 OA
BRANCH  20  22
HETATM   22  O   UNL     1       7.030  25.987  52.332  1.00  0.00    -0.322 OA
HETATM   23  C   UNL     1       7.803  24.900  51.820  1.00  0.00     0.213 C 
ENDBRANCH  20  22
ENDBRANCH  15  20
ENDBRANCH  12  14
ENDBRANCH  10  12
ENDBRANCH   1  10
BRANCH   1  24
HETATM   24  C   UNL     1       5.550  27.672  56.425  1.00  0.00     0.169 C 
BRANCH  24  25
HETATM   25  C   UNL     1       6.318  26.381  56.486  1.00  0.00     0.029 A 
HETATM   26  C   UNL     1       7.325  26.192  57.578  1.00  0.00     0.253 A 
HETATM   27  O   UNL     1       7.512  27.033  58.450  1.00  0.00    -0.268 OA
HETATM   28  N   UNL     1       8.021  25.014  57.587  1.00  0.00    -0.322 N 
HETATM   29  C   UNL     1       7.898  24.025  56.606  1.00  0.00     0.048 A 
HETATM   30  H   UNL     1       8.702  24.910  58.330  1.00  0.00     0.169 HD
HETATM   31  C   UNL     1       6.985  24.216  55.561  1.00  0.00    -0.006 A 
HETATM   32  C   UNL     1       8.690  22.880  56.665  1.00  0.00     0.070 A 
HETATM   33  C   UNL     1       6.888  23.261  54.547  1.00  0.00     0.053 A 
HETATM   34  C   UNL     1       6.176  25.432  55.542  1.00  0.00     0.028 A 
HETATM   35  C   UNL     1       7.701  22.129  54.585  1.00  0.00     0.103 A 
HETATM   36  C   UNL     1       8.579  21.925  55.655  1.00  0.00     0.104 A 
HETATM   37  O   UNL     1       7.586  21.257  53.533  1.00  0.00    -0.346 OA
HETATM   38  O   UNL     1       9.378  20.816  55.770  1.00  0.00    -0.346 OA
HETATM   39  C   UNL     1       8.989  19.784  54.853  1.00  0.00     0.202 C 
HETATM   40  C   UNL     1       8.707  20.364  53.477  1.00  0.00     0.202 C 
ENDBRANCH  24  25
ENDBRANCH   1  24
TORSDOF 12
ENDMDL
MODEL 3
REMARK VINA RESULT:      -8.3      1.521      2.535
REMARK  12 active torsions:
REMARK  status: ('A' for Active; 'I' for Inactive)
REMARK    1  A    between atoms: C_2  and  N_3 
REMARK    2  A    between atoms: N_3  and  C_5 
REMARK    3  A    between atoms: N_3  and  C_37 
REMARK    4  A    between atoms: C_5  and  C_6 
REMARK    5  A    between atoms: C_6  and  N_7 
REMARK    6  A    between atoms: N_7  and  C_8 
REMARK    7  A    between atoms: N_7  and  C_21 
REMARK    8  A    between atoms: C_8  and  N_9 
REMARK    9  A    between atoms: N_9  and  C_10 
REMARK   10  A    between atoms: C_11  and  C_12 
REMARK   11  A    between atoms: C_12  and  O_13 
REMARK   12  A    between atoms: C_21  and  C_22 
ROOT
HETATM    1  N   UNL     1       6.045  29.612  56.153  1.00  0.00    -0.352 N 
ENDROOT
BRANCH   1   2
HETATM    2  C   UNL     1       4.877  28.978  55.514  1.00  0.00     0.153 C 
BRANCH   2   3
HETATM    3  C   UNL     1       4.758  29.281  54.005  1.00  0.00     0.254 C 
BRANCH   3   4
HETATM    4  N   UNL     1       3.991  28.183  53.255  1.00  0.00    -0.070 N 
HETATM    5  H   UNL     1       3.487  27.621  53.953  1.00  0.00     0.279 HD
BRANCH   4   6
HETATM    6  C   UNL     1       4.936  27.252  52.508  1.00  0.00     0.230 C 
HETATM    7  C   UNL     1       4.649  25.798  52.842  1.00  0.00     0.034 C 
ENDBRANCH   4   6
BRANCH   4   8
HETATM    8  C   UNL     1       2.949  28.787  52.315  1.00  0.00     0.230 C 
HETATM    9  C   UNL     1       3.481  28.862  50.893  1.00  0.00     0.034 C 
ENDBRANCH   4   8
ENDBRANCH   3   4
ENDBRANCH   2   3
ENDBRANCH   1   2
BRANCH   1  10
HETATM   10  C   UNL     1       5.904  30.488  57.266  1.00  0.00     0.174 C 
HETATM   11  S   UNL     1       4.437  31.154  57.761  1.00  0.00    -0.041 SA
BRANCH  10  12
HETATM   12  N   UNL     1       7.121  30.835  57.821  1.00  0.00    -0.332 N 
HETATM   13  H   UNL     1       7.923  30.703  57.203  1.00  0.00     0.168 HD
BRANCH  12  14
HETATM   14  C   UNL     1       7.458  31.373  59.090  1.00  0.00     0.050 A 
HETATM   15  C   UNL     1       8.823  31.576  59.420  1.00  0.00     0.066 A 
HETATM   16  C   UNL     1       9.168  32.069  60.692  1.00  0.00     0.020 A 
HETATM   17  C   UNL     1       8.182  32.339  61.639  1.00  0.00     0.001 A 
HETATM   18  C   UNL     1       6.847  32.105  61.330  1.00  0.00     0.002 A 
HETATM   19  C   UNL     1       6.490  31.617  60.071  1.00  0.00     0.030 A 
BRANCH  15  20
HETATM   20  C   UNL     1       9.899  31.215  58.443  1.00  0.00     0.295 C 
HETATM   21  O   UNL     1      10.674  32.033  57.963  1.00  0.00    -0.259 OA
BRANCH  20  22
HETATM   22  O   UNL     1       9.874  29.891  58.148  1.00  0.00    -0.322 OA
HETATM   23  C   UNL     1      10.735  29.506  57.074  1.00  0.00     0.213 C 
ENDBRANCH  20  22
ENDBRANCH  15  20
ENDBRANCH  12  14
ENDBRANCH  10  12
ENDBRANCH   1  10
BRANCH   1  24
HETATM   24  C   UNL     1       7.376  29.064  55.800  1.00  0.00     0.169 C 
BRANCH  24  25
HETATM   25  C   UNL     1       7.496  27.577  55.990  1.00  0.00     0.029 A 
HETATM   26  C   UNL     1       7.705  27.042  57.372  1.00  0.00     0.253 A 
HETATM   27  O   UNL     1       7.735  27.769  58.359  1.00  0.00    -0.268 OA
HETATM   28  N   UNL     1       7.834  25.685  57.503  1.00  0.00    -0.322 N 
HETATM   29  C   UNL     1       7.854  24.794  56.426  1.00  0.00     0.048 A 
HETATM   30  H   UNL     1       7.980  25.345  58.446  1.00  0.00     0.169 HD
HETATM   31  C   UNL     1       7.698  25.295  55.128  1.00  0.00    -0.006 A 
HETATM   32  C   UNL     1       8.046  23.432  56.649  1.00  0.00     0.070 A 
HETATM   33  C   UNL     1       7.768  24.424  54.039  1.00  0.00     0.053 A 
HETATM   34  C   UNL     1       7.498  26.731  54.943  1.00  0.00     0.028 A 
HETATM   35  C   UNL     1       7.992  23.065  54.256  1.00  0.00     0.103 A 
HETATM   36  C   UNL     1       8.102  22.566  55.559  1.00  0.00     0.104 A 
HETATM   37  O   UNL     1       8.095  22.276  53.140  1.00  0.00    -0.346 OA
HETATM   38  O   UNL     1       8.287  21.237  55.840  1.00  0.00    -0.346 OA
HETATM   39  C   UNL     1       8.049  20.413  54.691  1.00  0.00     0.202 C 
HETATM   40  C   UNL     1       8.696  21.013  53.454  1.00  0.00     0.202 C 
ENDBRANCH  24  25
ENDBRANCH   1  24
TORSDOF 12
ENDMDL
MODEL 4
REMARK VINA RESULT:      -8.3      3.106      7.951
REMARK  12 active torsions:
REMARK  status: ('A' for Active; 'I' for Inactive)
REMARK    1  A    between atoms: C_2  and  N_3 
REMARK    2  A    between atoms: N_3  and  C_5 
REMARK    3  A    between atoms: N_3  and  C_37 
REMARK    4  A    between atoms: C_5  and  C_6 
REMARK    5  A    between atoms: C_6  and  N_7 
REMARK    6  A    between atoms: N_7  and  C_8 
REMARK    7  A    between atoms: N_7  and  C_21 
REMARK    8  A    between atoms: C_8  and  N_9 
REMARK    9  A    between atoms: N_9  and  C_10 
REMARK   10  A    between atoms: C_11  and  C_12 
REMARK   11  A    between atoms: C_12  and  O_13 
REMARK   12  A    between atoms: C_21  and  C_22 
ROOT
HETATM    1  N   UNL     1       6.782  27.481  56.801  1.00  0.00    -0.352 N 
ENDROOT
BRANCH   1   2
HETATM    2  C   UNL     1       7.738  27.840  57.865  1.00  0.00     0.153 C 
BRANCH   2   3
HETATM    3  C   UNL     1       8.954  28.644  57.358  1.00  0.00     0.254 C 
BRANCH   3   4
HETATM    4  N   UNL     1       8.867  30.127  57.742  1.00  0.00    -0.070 N 
HETATM    5  H   UNL     1       8.359  30.615  56.993  1.00  0.00     0.279 HD
BRANCH   4   6
HETATM    6  C   UNL     1      10.247  30.759  57.849  1.00  0.00     0.230 C 
HETATM    7  C   UNL     1      11.305  29.876  57.208  1.00  0.00     0.034 C 
ENDBRANCH   4   6
BRANCH   4   8
HETATM    8  C   UNL     1       8.069  30.314  59.031  1.00  0.00     0.230 C 
HETATM    9  C   UNL     1       7.050  31.431  58.881  1.00  0.00     0.034 C 
ENDBRANCH   4   8
ENDBRANCH   3   4
ENDBRANCH   2   3
ENDBRANCH   1   2
BRANCH   1  10
HETATM   10  C   UNL     1       6.492  26.126  56.482  1.00  0.00     0.174 C 
HETATM   11  S   UNL     1       5.114  25.309  57.007  1.00  0.00    -0.041 SA
BRANCH  10  12
HETATM   12  N   UNL     1       7.525  25.512  55.800  1.00  0.00    -0.332 N 
HETATM   13  H   UNL     1       8.321  26.119  55.597  1.00  0.00     0.168 HD
BRANCH  12  14
HETATM   14  C   UNL     1       7.697  24.175  55.355  1.00  0.00     0.050 A 
HETATM   15  C   UNL     1       7.496  23.866  53.985  1.00  0.00     0.066 A 
HETATM   16  C   UNL     1       7.622  22.536  53.544  1.00  0.00     0.020 A 
HETATM   17  C   UNL     1       7.922  21.516  54.445  1.00  0.00     0.001 A 
HETATM   18  C   UNL     1       8.084  21.811  55.793  1.00  0.00     0.002 A 
HETATM   19  C   UNL     1       7.962  23.128  56.245  1.00  0.00     0.030 A 
BRANCH  15  20
HETATM   20  C   UNL     1       7.094  24.938  53.020  1.00  0.00     0.295 C 
HETATM   21  O   UNL     1       7.857  25.416  52.189  1.00  0.00    -0.259 OA
BRANCH  20  22
HETATM   22  O   UNL     1       5.806  25.316  53.210  1.00  0.00    -0.322 OA
HETATM   23  C   UNL     1       4.893  24.835  52.222  1.00  0.00     0.213 C 
ENDBRANCH  20  22
ENDBRANCH  15  20
ENDBRANCH  12  14
ENDBRANCH  10  12
ENDBRANCH   1  10
BRANCH   1  24
HETATM   24  C   UNL     1       5.909  28.569  56.297  1.00  0.00     0.169 C 
BRANCH  24  25
HETATM   25  C   UNL     1       5.660  28.517  54.814  1.00  0.00     0.029 A 
HETATM   26  C   UNL     1       6.833  28.425  53.890  1.00  0.00     0.253 A 
HETATM   27  O   UNL     1       7.986  28.344  54.299  1.00  0.00    -0.268 OA
HETATM   28  N   UNL     1       6.569  28.405  52.547  1.00  0.00    -0.322 N 
HETATM   29  C   UNL     1       5.289  28.537  51.999  1.00  0.00     0.048 A 
HETATM   30  H   UNL     1       7.378  28.349  51.939  1.00  0.00     0.169 HD
HETATM   31  C   UNL     1       4.193  28.663  52.862  1.00  0.00    -0.006 A 
HETATM   32  C   UNL     1       5.119  28.561  50.617  1.00  0.00     0.070 A 
HETATM   33  C   UNL     1       2.915  28.846  52.330  1.00  0.00     0.053 A 
HETATM   34  C   UNL     1       4.420  28.630  54.305  1.00  0.00     0.028 A 
HETATM   35  C   UNL     1       2.744  28.904  50.948  1.00  0.00     0.103 A 
HETATM   36  C   UNL     1       3.839  28.733  50.093  1.00  0.00     0.104 A 
HETATM   37  O   UNL     1       1.470  29.133  50.496  1.00  0.00    -0.346 OA
HETATM   38  O   UNL     1       3.733  28.743  48.725  1.00  0.00    -0.346 OA
HETATM   39  C   UNL     1       2.368  28.641  48.298  1.00  0.00     0.202 C 
HETATM   40  C   UNL     1       1.475  29.551  49.125  1.00  0.00     0.202 C 
ENDBRANCH  24  25
ENDBRANCH   1  24
TORSDOF 12
ENDMDL
MODEL 5
REMARK VINA RESULT:      -8.2      2.722      8.963
REMARK  12 active torsions:
REMARK  status: ('A' for Active; 'I' for Inactive)
REMARK    1  A    between atoms: C_2  and  N_3 
REMARK    2  A    between atoms: N_3  and  C_5 
REMARK    3  A    between atoms: N_3  and  C_37 
REMARK    4  A    between atoms: C_5  and  C_6 
REMARK    5  A    between atoms: C_6  and  N_7 
REMARK    6  A    between atoms: N_7  and  C_8 
REMARK    7  A    between atoms: N_7  and  C_21 
REMARK    8  A    between atoms: C_8  and  N_9 
REMARK    9  A    between atoms: N_9  and  C_10 
REMARK   10  A    between atoms: C_11  and  C_12 
REMARK   11  A    between atoms: C_12  and  O_13 
REMARK   12  A    between atoms: C_21  and  C_22 
ROOT
HETATM    1  N   UNL     1       7.058  26.143  56.812  1.00  0.00    -0.352 N 
ENDROOT
BRANCH   1   2
HETATM    2  C   UNL     1       7.636  27.167  57.701  1.00  0.00     0.153 C 
BRANCH   2   3
HETATM    3  C   UNL     1       8.820  27.934  57.074  1.00  0.00     0.254 C 
BRANCH   3   4
HETATM    4  N   UNL     1       8.636  29.455  57.166  1.00  0.00    -0.070 N 
HETATM    5  H   UNL     1       7.823  29.707  56.589  1.00  0.00     0.279 HD
BRANCH   4   6
HETATM    6  C   UNL     1       9.843  30.198  56.611  1.00  0.00     0.230 C 
HETATM    7  C   UNL     1      11.140  29.613  57.145  1.00  0.00     0.034 C 
ENDBRANCH   4   6
BRANCH   4   8
HETATM    8  C   UNL     1       8.331  29.885  58.600  1.00  0.00     0.230 C 
HETATM    9  C   UNL     1       7.540  31.182  58.619  1.00  0.00     0.034 C 
ENDBRANCH   4   8
ENDBRANCH   3   4
ENDBRANCH   2   3
ENDBRANCH   1   2
BRANCH   1  10
HETATM   10  C   UNL     1       7.617  24.838  56.712  1.00  0.00     0.174 C 
HETATM   11  S   UNL     1       9.024  24.354  57.502  1.00  0.00    -0.041 SA
BRANCH  10  12
HETATM   12  N   UNL     1       6.950  24.048  55.797  1.00  0.00    -0.332 N 
HETATM   13  H   UNL     1       5.979  24.318  55.628  1.00  0.00     0.168 HD
BRANCH  12  14
HETATM   14  C   UNL     1       7.378  22.940  55.019  1.00  0.00     0.050 A 
HETATM   15  C   UNL     1       7.529  23.090  53.617  1.00  0.00     0.066 A 
HETATM   16  C   UNL     1       7.910  21.985  52.833  1.00  0.00     0.020 A 
HETATM   17  C   UNL     1       8.120  20.739  53.420  1.00  0.00     0.001 A 
HETATM   18  C   UNL     1       7.937  20.581  54.788  1.00  0.00     0.002 A 
HETATM   19  C   UNL     1       7.559  21.670  55.579  1.00  0.00     0.030 A 
BRANCH  15  20
HETATM   20  C   UNL     1       7.228  24.402  52.960  1.00  0.00     0.295 C 
HETATM   21  O   UNL     1       8.027  24.994  52.244  1.00  0.00    -0.259 OA
BRANCH  20  22
HETATM   22  O   UNL     1       5.989  24.846  53.287  1.00  0.00    -0.322 OA
HETATM   23  C   UNL     1       5.054  24.842  52.207  1.00  0.00     0.213 C 
ENDBRANCH  20  22
ENDBRANCH  15  20
ENDBRANCH  12  14
ENDBRANCH  10  12
ENDBRANCH   1  10
BRANCH   1  24
HETATM   24  C   UNL     1       5.705  26.418  56.271  1.00  0.00     0.169 C 
BRANCH  24  25
HETATM   25  C   UNL     1       5.403  27.881  56.093  1.00  0.00     0.029 A 
HETATM   26  C   UNL     1       5.944  28.588  54.891  1.00  0.00     0.253 A 
HETATM   27  O   UNL     1       6.587  28.007  54.023  1.00  0.00    -0.268 OA
HETATM   28  N   UNL     1       5.669  29.924  54.776  1.00  0.00    -0.322 N 
HETATM   29  C   UNL     1       4.982  30.667  55.741  1.00  0.00     0.048 A 
HETATM   30  H   UNL     1       6.051  30.384  53.958  1.00  0.00     0.169 HD
HETATM   31  C   UNL     1       4.507  30.016  56.886  1.00  0.00    -0.006 A 
HETATM   32  C   UNL     1       4.795  32.036  55.566  1.00  0.00     0.070 A 
HETATM   33  C   UNL     1       3.864  30.753  57.883  1.00  0.00     0.053 A 
HETATM   34  C   UNL     1       4.726  28.577  57.025  1.00  0.00     0.028 A 
HETATM   35  C   UNL     1       3.704  32.129  57.727  1.00  0.00     0.103 A 
HETATM   36  C   UNL     1       4.141  32.764  56.559  1.00  0.00     0.104 A 
HETATM   37  O   UNL     1       3.106  32.798  58.764  1.00  0.00    -0.346 OA
HETATM   38  O   UNL     1       3.981  34.107  56.329  1.00  0.00    -0.346 OA
HETATM   39  C   UNL     1       3.065  34.699  57.259  1.00  0.00     0.202 C 
HETATM   40  C   UNL     1       3.339  34.209  58.672  1.00  0.00     0.202 C 
ENDBRANCH  24  25
ENDBRANCH   1  24
TORSDOF 12
ENDMDL
MODEL 6
REMARK VINA RESULT:      -8.2      2.157      7.737
REMARK  12 active torsions:
REMARK  status: ('A' for Active; 'I' for Inactive)
REMARK    1  A    between atoms: C_2  and  N_3 
REMARK    2  A    between atoms: N_3  and  C_5 
REMARK    3  A    between atoms: N_3  and  C_37 
REMARK    4  A    between atoms: C_5  and  C_6 
REMARK    5  A    between atoms: C_6  and  N_7 
REMARK    6  A    between atoms: N_7  and  C_8 
REMARK    7  A    between atoms: N_7  and  C_21 
REMARK    8  A    between atoms: C_8  and  N_9 
REMARK    9  A    between atoms: N_9  and  C_10 
REMARK   10  A    between atoms: C_11  and  C_12 
REMARK   11  A    between atoms: C_12  and  O_13 
REMARK   12  A    between atoms: C_21  and  C_22 
ROOT
HETATM    1  N   UNL     1       6.165  26.334  53.986  1.00  0.00    -0.352 N 
ENDROOT
BRANCH   1   2
HETATM    2  C   UNL     1       5.288  26.085  52.827  1.00  0.00     0.153 C 
BRANCH   2   3
HETATM    3  C   UNL     1       5.391  27.166  51.729  1.00  0.00     0.254 C 
BRANCH   3   4
HETATM    4  N   UNL     1       4.232  27.083  50.727  1.00  0.00    -0.070 N 
HETATM    5  H   UNL     1       3.440  26.630  51.201  1.00  0.00     0.279 HD
BRANCH   4   6
HETATM    6  C   UNL     1       4.597  26.229  49.521  1.00  0.00     0.230 C 
HETATM    7  C   UNL     1       4.683  27.071  48.259  1.00  0.00     0.034 C 
ENDBRANCH   4   6
BRANCH   4   8
HETATM    8  C   UNL     1       3.774  28.477  50.302  1.00  0.00     0.230 C 
HETATM    9  C   UNL     1       2.797  29.057  51.310  1.00  0.00     0.034 C 
ENDBRANCH   4   8
ENDBRANCH   3   4
ENDBRANCH   2   3
ENDBRANCH   1   2
BRANCH   1  10
HETATM   10  C   UNL     1       6.426  25.326  54.956  1.00  0.00     0.174 C 
HETATM   11  S   UNL     1       5.541  25.135  56.377  1.00  0.00    -0.041 SA
BRANCH  10  12
HETATM   12  N   UNL     1       7.565  24.600  54.667  1.00  0.00    -0.332 N 
HETATM   13  H   UNL     1       8.438  25.124  54.754  1.00  0.00     0.168 HD
BRANCH  12  14
HETATM   14  C   UNL     1       7.748  23.241  54.300  1.00  0.00     0.050 A 
HETATM   15  C   UNL     1       8.223  22.316  55.265  1.00  0.00     0.066 A 
HETATM   16  C   UNL     1       8.449  20.977  54.897  1.00  0.00     0.020 A 
HETATM   17  C   UNL     1       8.231  20.556  53.587  1.00  0.00     0.001 A 
HETATM   18  C   UNL     1       7.801  21.468  52.631  1.00  0.00     0.002 A 
HETATM   19  C   UNL     1       7.572  22.801  52.982  1.00  0.00     0.030 A 
BRANCH  15  20
HETATM   20  C   UNL     1       8.539  22.772  56.656  1.00  0.00     0.295 C 
HETATM   21  O   UNL     1       8.180  22.167  57.660  1.00  0.00    -0.259 OA
BRANCH  20  22
HETATM   22  O   UNL     1       9.236  23.935  56.649  1.00  0.00    -0.322 OA
HETATM   23  C   UNL     1       9.015  24.766  57.790  1.00  0.00     0.213 C 
ENDBRANCH  20  22
ENDBRANCH  15  20
ENDBRANCH  12  14
ENDBRANCH  10  12
ENDBRANCH   1  10
BRANCH   1  24
HETATM   24  C   UNL     1       7.003  27.556  53.935  1.00  0.00     0.169 C 
BRANCH  24  25
HETATM   25  C   UNL     1       6.823  28.472  55.114  1.00  0.00     0.029 A 
HETATM   26  C   UNL     1       5.642  29.391  55.139  1.00  0.00     0.253 A 
HETATM   27  O   UNL     1       4.793  29.391  54.254  1.00  0.00    -0.268 OA
HETATM   28  N   UNL     1       5.524  30.227  56.216  1.00  0.00    -0.322 N 
HETATM   29  C   UNL     1       6.470  30.319  57.242  1.00  0.00     0.048 A 
HETATM   30  H   UNL     1       4.722  30.846  56.209  1.00  0.00     0.169 HD
HETATM   31  C   UNL     1       7.596  29.487  57.202  1.00  0.00    -0.006 A 
HETATM   32  C   UNL     1       6.296  31.240  58.273  1.00  0.00     0.070 A 
HETATM   33  C   UNL     1       8.574  29.603  58.192  1.00  0.00     0.053 A 
HETATM   34  C   UNL     1       7.735  28.536  56.101  1.00  0.00     0.028 A 
HETATM   35  C   UNL     1       8.420  30.546  59.207  1.00  0.00     0.103 A 
HETATM   36  C   UNL     1       7.270  31.341  59.264  1.00  0.00     0.104 A 
HETATM   37  O   UNL     1       9.440  30.637  60.119  1.00  0.00    -0.346 OA
HETATM   38  O   UNL     1       7.041  32.261  60.256  1.00  0.00    -0.346 OA
HETATM   39  C   UNL     1       7.944  32.090  61.357  1.00  0.00     0.202 C 
HETATM   40  C   UNL     1       9.362  31.862  60.860  1.00  0.00     0.202 C 
ENDBRANCH  24  25
ENDBRANCH   1  24
TORSDOF 12
ENDMDL
MODEL 7
REMARK VINA RESULT:      -8.2      2.264      5.768
REMARK  12 active torsions:
REMARK  status: ('A' for Active; 'I' for Inactive)
REMARK    1  A    between atoms: C_2  and  N_3 
REMARK    2  A    between atoms: N_3  and  C_5 
REMARK    3  A    between atoms: N_3  and  C_37 
REMARK    4  A    between atoms: C_5  and  C_6 
REMARK    5  A    between atoms: C_6  and  N_7 
REMARK    6  A    between atoms: N_7  and  C_8 
REMARK    7  A    between atoms: N_7  and  C_21 
REMARK    8  A    between atoms: C_8  and  N_9 
REMARK    9  A    between atoms: N_9  and  C_10 
REMARK   10  A    between atoms: C_11  and  C_12 
REMARK   11  A    between atoms: C_12  and  O_13 
REMARK   12  A    between atoms: C_21  and  C_22 
ROOT
HETATM    1  N   UNL     1       6.012  28.738  55.729  1.00  0.00    -0.352 N 
ENDROOT
BRANCH   1   2
HETATM    2  C   UNL     1       7.389  29.219  55.950  1.00  0.00     0.153 C 
BRANCH   2   3
HETATM    3  C   UNL     1       7.505  30.262  57.083  1.00  0.00     0.254 C 
BRANCH   3   4
HETATM    4  N   UNL     1       8.911  30.292  57.697  1.00  0.00    -0.070 N 
HETATM    5  H   UNL     1       9.336  31.198  57.462  1.00  0.00     0.279 HD
BRANCH   4   6
HETATM    6  C   UNL     1       9.798  29.202  57.114  1.00  0.00     0.230 C 
HETATM    7  C   UNL     1      11.250  29.649  57.059  1.00  0.00     0.034 C 
ENDBRANCH   4   6
BRANCH   4   8
HETATM    8  C   UNL     1       8.846  30.199  59.221  1.00  0.00     0.230 C 
HETATM    9  C   UNL     1       7.900  31.244  59.787  1.00  0.00     0.034 C 
ENDBRANCH   4   8
ENDBRANCH   3   4
ENDBRANCH   2   3
ENDBRANCH   1   2
BRANCH   1  10
HETATM   10  C   UNL     1       5.294  29.048  54.540  1.00  0.00     0.174 C 
HETATM   11  S   UNL     1       3.701  29.597  54.519  1.00  0.00    -0.041 SA
BRANCH  10  12
HETATM   12  N   UNL     1       6.003  28.731  53.398  1.00  0.00    -0.332 N 
HETATM   13  H   UNL     1       6.923  29.170  53.332  1.00  0.00     0.168 HD
BRANCH  12  14
HETATM   14  C   UNL     1       5.698  27.876  52.307  1.00  0.00     0.050 A 
HETATM   15  C   UNL     1       5.178  28.432  51.110  1.00  0.00     0.066 A 
HETATM   16  C   UNL     1       4.832  27.587  50.040  1.00  0.00     0.020 A 
HETATM   17  C   UNL     1       4.976  26.206  50.153  1.00  0.00     0.001 A 
HETATM   18  C   UNL     1       5.451  25.656  51.337  1.00  0.00     0.002 A 
HETATM   19  C   UNL     1       5.798  26.483  52.409  1.00  0.00     0.030 A 
BRANCH  15  20
HETATM   20  C   UNL     1       4.941  29.907  51.003  1.00  0.00     0.295 C 
HETATM   21  O   UNL     1       3.836  30.421  51.121  1.00  0.00    -0.259 OA
BRANCH  20  22
HETATM   22  O   UNL     1       6.091  30.574  50.733  1.00  0.00    -0.322 OA
HETATM   23  C   UNL     1       6.083  31.296  49.500  1.00  0.00     0.213 C 
ENDBRANCH  20  22
ENDBRANCH  15  20
ENDBRANCH  12  14
ENDBRANCH  10  12
ENDBRANCH   1  10
BRANCH   1  24
HETATM   24  C   UNL     1       5.526  27.672  56.637  1.00  0.00     0.169 C 
BRANCH  24  25
HETATM   25  C   UNL     1       6.316  26.394  56.561  1.00  0.00     0.029 A 
HETATM   26  C   UNL     1       7.378  26.141  57.584  1.00  0.00     0.253 A 
HETATM   27  O   UNL     1       7.595  26.916  58.510  1.00  0.00    -0.268 OA
HETATM   28  N   UNL     1       8.092  24.979  57.468  1.00  0.00    -0.322 N 
HETATM   29  C   UNL     1       7.936  24.067  56.420  1.00  0.00     0.048 A 
HETATM   30  H   UNL     1       8.810  24.831  58.167  1.00  0.00     0.169 HD
HETATM   31  C   UNL     1       6.970  24.320  55.439  1.00  0.00    -0.006 A 
HETATM   32  C   UNL     1       8.746  22.936  56.352  1.00  0.00     0.070 A 
HETATM   33  C   UNL     1       6.837  23.445  54.359  1.00  0.00     0.053 A 
HETATM   34  C   UNL     1       6.141  25.519  55.554  1.00  0.00     0.028 A 
HETATM   35  C   UNL     1       7.668  22.329  54.269  1.00  0.00     0.103 A 
HETATM   36  C   UNL     1       8.600  22.059  55.278  1.00  0.00     0.104 A 
HETATM   37  O   UNL     1       7.514  21.538  53.160  1.00  0.00    -0.346 OA
HETATM   38  O   UNL     1       9.421  20.961  55.267  1.00  0.00    -0.346 OA
HETATM   39  C   UNL     1       9.004  19.995  54.293  1.00  0.00     0.202 C 
HETATM   40  C   UNL     1       8.644  20.674  52.981  1.00  0.00     0.202 C 
ENDBRANCH  24  25
ENDBRANCH   1  24
TORSDOF 12
ENDMDL
MODEL 8
REMARK VINA RESULT:      -8.1      2.031      8.120
REMARK  12 active torsions:
REMARK  status: ('A' for Active; 'I' for Inactive)
REMARK    1  A    between atoms: C_2  and  N_3 
REMARK    2  A    between atoms: N_3  and  C_5 
REMARK    3  A    between atoms: N_3  and  C_37 
REMARK    4  A    between atoms: C_5  and  C_6 
REMARK    5  A    between atoms: C_6  and  N_7 
REMARK    6  A    between atoms: N_7  and  C_8 
REMARK    7  A    between atoms: N_7  and  C_21 
REMARK    8  A    between atoms: C_8  and  N_9 
REMARK    9  A    between atoms: N_9  and  C_10 
REMARK   10  A    between atoms: C_11  and  C_12 
REMARK   11  A    between atoms: C_12  and  O_13 
REMARK   12  A    between atoms: C_21  and  C_22 
ROOT
HETATM    1  N   UNL     1       5.815  27.676  55.339  1.00  0.00    -0.352 N 
ENDROOT
BRANCH   1   2
HETATM    2  C   UNL     1       4.621  27.912  54.505  1.00  0.00     0.153 C 
BRANCH   2   3
HETATM    3  C   UNL     1       4.454  26.889  53.361  1.00  0.00     0.254 C 
BRANCH   3   4
HETATM    4  N   UNL     1       4.176  27.569  52.014  1.00  0.00    -0.070 N 
HETATM    5  H   UNL     1       3.285  27.202  51.655  1.00  0.00     0.279 HD
BRANCH   4   6
HETATM    6  C   UNL     1       5.255  27.242  50.991  1.00  0.00     0.230 C 
HETATM    7  C   UNL     1       4.702  26.378  49.870  1.00  0.00     0.034 C 
ENDBRANCH   4   6
BRANCH   4   8
HETATM    8  C   UNL     1       4.013  29.078  52.185  1.00  0.00     0.230 C 
HETATM    9  C   UNL     1       4.972  29.832  51.278  1.00  0.00     0.034 C 
ENDBRANCH   4   8
ENDBRANCH   3   4
ENDBRANCH   2   3
ENDBRANCH   1   2
BRANCH   1  10
HETATM   10  C   UNL     1       6.065  26.413  55.945  1.00  0.00     0.174 C 
HETATM   11  S   UNL     1       5.107  25.747  57.161  1.00  0.00    -0.041 SA
BRANCH  10  12
HETATM   12  N   UNL     1       7.251  25.848  55.517  1.00  0.00    -0.332 N 
HETATM   13  H   UNL     1       8.068  26.102  56.075  1.00  0.00     0.168 HD
BRANCH  12  14
HETATM   14  C   UNL     1       7.538  24.950  54.457  1.00  0.00     0.050 A 
HETATM   15  C   UNL     1       7.906  23.613  54.757  1.00  0.00     0.066 A 
HETATM   16  C   UNL     1       8.235  22.728  53.713  1.00  0.00     0.020 A 
HETATM   17  C   UNL     1       8.223  23.160  52.389  1.00  0.00     0.001 A 
HETATM   18  C   UNL     1       7.898  24.479  52.095  1.00  0.00     0.002 A 
HETATM   19  C   UNL     1       7.569  25.368  53.121  1.00  0.00     0.030 A 
BRANCH  15  20
HETATM   20  C   UNL     1       8.002  23.157  56.180  1.00  0.00     0.295 C 
HETATM   21  O   UNL     1       8.480  23.843  57.075  1.00  0.00    -0.259 OA
BRANCH  20  22
HETATM   22  O   UNL     1       7.525  21.896  56.328  1.00  0.00    -0.322 OA
HETATM   23  C   UNL     1       8.467  20.964  56.862  1.00  0.00     0.213 C 
ENDBRANCH  20  22
ENDBRANCH  15  20
ENDBRANCH  12  14
ENDBRANCH  10  12
ENDBRANCH   1  10
BRANCH   1  24
HETATM   24  C   UNL     1       6.891  28.693  55.264  1.00  0.00     0.169 C 
BRANCH  24  25
HETATM   25  C   UNL     1       7.141  29.416  56.559  1.00  0.00     0.029 A 
HETATM   26  C   UNL     1       8.243  28.937  57.451  1.00  0.00     0.253 A 
HETATM   27  O   UNL     1       8.979  28.006  57.142  1.00  0.00    -0.268 OA
HETATM   28  N   UNL     1       8.425  29.605  58.632  1.00  0.00    -0.322 N 
HETATM   29  C   UNL     1       7.605  30.646  59.076  1.00  0.00     0.048 A 
HETATM   30  H   UNL     1       9.173  29.260  59.223  1.00  0.00     0.169 HD
HETATM   31  C   UNL     1       6.547  31.071  58.262  1.00  0.00    -0.006 A 
HETATM   32  C   UNL     1       7.830  31.232  60.320  1.00  0.00     0.070 A 
HETATM   33  C   UNL     1       5.688  32.074  58.714  1.00  0.00     0.053 A 
HETATM   34  C   UNL     1       6.350  30.427  56.964  1.00  0.00     0.028 A 
HETATM   35  C   UNL     1       5.891  32.641  59.972  1.00  0.00     0.103 A 
HETATM   36  C   UNL     1       6.976  32.241  60.760  1.00  0.00     0.104 A 
HETATM   37  O   UNL     1       4.983  33.587  60.371  1.00  0.00    -0.346 OA
HETATM   38  O   UNL     1       7.252  32.784  61.989  1.00  0.00    -0.346 OA
HETATM   39  C   UNL     1       6.502  33.985  62.219  1.00  0.00     0.202 C 
HETATM   40  C   UNL     1       5.056  33.809  61.786  1.00  0.00     0.202 C 
ENDBRANCH  24  25
ENDBRANCH   1  24
TORSDOF 12
ENDMDL
MODEL 9
REMARK VINA RESULT:      -8.1      2.561      3.952
REMARK  12 active torsions:
REMARK  status: ('A' for Active; 'I' for Inactive)
REMARK    1  A    between atoms: C_2  and  N_3 
REMARK    2  A    between atoms: N_3  and  C_5 
REMARK    3  A    between atoms: N_3  and  C_37 
REMARK    4  A    between atoms: C_5  and  C_6 
REMARK    5  A    between atoms: C_6  and  N_7 
REMARK    6  A    between atoms: N_7  and  C_8 
REMARK    7  A    between atoms: N_7  and  C_21 
REMARK    8  A    between atoms: C_8  and  N_9 
REMARK    9  A    between atoms: N_9  and  C_10 
REMARK   10  A    between atoms: C_11  and  C_12 
REMARK   11  A    between atoms: C_12  and  O_13 
REMARK   12  A    between atoms: C_21  and  C_22 
ROOT
HETATM    1  N   UNL     1       5.134  30.390  56.747  1.00  0.00    -0.352 N 
ENDROOT
BRANCH   1   2
HETATM    2  C   UNL     1       5.001  31.237  55.547  1.00  0.00     0.153 C 
BRANCH   2   3
HETATM    3  C   UNL     1       3.552  31.691  55.268  1.00  0.00     0.254 C 
BRANCH   3   4
HETATM    4  N   UNL     1       3.455  33.207  55.046  1.00  0.00    -0.070 N 
HETATM    5  H   UNL     1       3.012  33.361  54.131  1.00  0.00     0.279 HD
BRANCH   4   6
HETATM    6  C   UNL     1       4.831  33.855  55.008  1.00  0.00     0.230 C 
HETATM    7  C   UNL     1       4.935  34.980  56.023  1.00  0.00     0.034 C 
ENDBRANCH   4   6
BRANCH   4   8
HETATM    8  C   UNL     1       2.563  33.859  56.101  1.00  0.00     0.230 C 
HETATM    9  C   UNL     1       1.278  34.377  55.477  1.00  0.00     0.034 C 
ENDBRANCH   4   8
ENDBRANCH   3   4
ENDBRANCH   2   3
ENDBRANCH   1   2
BRANCH   1  10
HETATM   10  C   UNL     1       5.803  30.849  57.916  1.00  0.00     0.174 C 
HETATM   11  S   UNL     1       5.414  32.275  58.724  1.00  0.00    -0.041 SA
BRANCH  10  12
HETATM   12  N   UNL     1       6.889  30.062  58.245  1.00  0.00    -0.332 N 
HETATM   13  H   UNL     1       6.722  29.402  59.007  1.00  0.00     0.168 HD
BRANCH  12  14
HETATM   14  C   UNL     1       8.194  29.979  57.694  1.00  0.00     0.050 A 
HETATM   15  C   UNL     1       9.269  30.639  58.344  1.00  0.00     0.066 A 
HETATM   16  C   UNL     1      10.557  30.599  57.780  1.00  0.00     0.020 A 
HETATM   17  C   UNL     1      10.784  29.934  56.577  1.00  0.00     0.001 A 
HETATM   18  C   UNL     1       9.726  29.318  55.920  1.00  0.00     0.002 A 
HETATM   19  C   UNL     1       8.441  29.349  56.468  1.00  0.00     0.030 A 
BRANCH  15  20
HETATM   20  C   UNL     1       9.026  31.426  59.595  1.00  0.00     0.295 C 
HETATM   21  O   UNL     1       9.179  32.640  59.666  1.00  0.00    -0.259 OA
BRANCH  20  22
HETATM   22  O   UNL     1       8.651  30.622  60.620  1.00  0.00    -0.322 OA
HETATM   23  C   UNL     1       8.627  31.261  61.898  1.00  0.00     0.213 C 
ENDBRANCH  20  22
ENDBRANCH  15  20
ENDBRANCH  12  14
ENDBRANCH  10  12
ENDBRANCH   1  10
BRANCH   1  24
HETATM   24  C   UNL     1       4.283  29.177  56.802  1.00  0.00     0.169 C 
BRANCH  24  25
HETATM   25  C   UNL     1       4.895  27.969  56.149  1.00  0.00     0.029 A 
HETATM   26  C   UNL     1       4.506  27.635  54.743  1.00  0.00     0.253 A 
HETATM   27  O   UNL     1       3.742  28.338  54.090  1.00  0.00    -0.268 OA
HETATM   28  N   UNL     1       5.065  26.515  54.190  1.00  0.00    -0.322 N 
HETATM   29  C   UNL     1       5.908  25.639  54.881  1.00  0.00     0.048 A 
HETATM   30  H   UNL     1       4.783  26.304  53.240  1.00  0.00     0.169 HD
HETATM   31  C   UNL     1       6.243  25.927  56.210  1.00  0.00    -0.006 A 
HETATM   32  C   UNL     1       6.387  24.491  54.255  1.00  0.00     0.070 A 
HETATM   33  C   UNL     1       7.042  25.037  56.929  1.00  0.00     0.053 A 
HETATM   34  C   UNL     1       5.717  27.145  56.824  1.00  0.00     0.028 A 
HETATM   35  C   UNL     1       7.497  23.870  56.316  1.00  0.00     0.103 A 
HETATM   36  C   UNL     1       7.195  23.612  54.975  1.00  0.00     0.104 A 
HETATM   37  O   UNL     1       8.239  23.018  57.094  1.00  0.00    -0.346 OA
HETATM   38  O   UNL     1       7.641  22.501  54.304  1.00  0.00    -0.346 OA
HETATM   39  C   UNL     1       8.676  21.823  55.030  1.00  0.00     0.202 C 
HETATM   40  C   UNL     1       8.317  21.714  56.503  1.00  0.00     0.202 C 
ENDBRANCH  24  25
ENDBRANCH   1  24
TORSDOF 12
ENDMDL
MODEL 10
REMARK VINA RESULT:      -8.1      1.555      2.331
REMARK  12 active torsions:
REMARK  status: ('A' for Active; 'I' for Inactive)
REMARK    1  A    between atoms: C_2  and  N_3 
REMARK    2  A    between atoms: N_3  and  C_5 
REMARK    3  A    between atoms: N_3  and  C_37 
REMARK    4  A    between atoms: C_5  and  C_6 
REMARK    5  A    between atoms: C_6  and  N_7 
REMARK    6  A    between atoms: N_7  and  C_8 
REMARK    7  A    between atoms: N_7  and  C_21 
REMARK    8  A    between atoms: C_8  and  N_9 
REMARK    9  A    between atoms: N_9  and  C_10 
REMARK   10  A    between atoms: C_11  and  C_12 
REMARK   11  A    between atoms: C_12  and  O_13 
REMARK   12  A    between atoms: C_21  and  C_22 
ROOT
HETATM    1  N   UNL     1       5.819  29.390  56.255  1.00  0.00    -0.352 N 
ENDROOT
BRANCH   1   2
HETATM    2  C   UNL     1       4.702  28.432  56.155  1.00  0.00     0.153 C 
BRANCH   2   3
HETATM    3  C   UNL     1       4.108  28.322  54.734  1.00  0.00     0.254 C 
BRANCH   3   4
HETATM    4  N   UNL     1       4.597  29.449  53.815  1.00  0.00    -0.070 N 
HETATM    5  H   UNL     1       5.323  29.972  54.321  1.00  0.00     0.279 HD
BRANCH   4   6
HETATM    6  C   UNL     1       3.476  30.423  53.481  1.00  0.00     0.230 C 
HETATM    7  C   UNL     1       3.982  31.564  52.615  1.00  0.00     0.034 C 
ENDBRANCH   4   6
BRANCH   4   8
HETATM    8  C   UNL     1       5.238  28.885  52.549  1.00  0.00     0.230 C 
HETATM    9  C   UNL     1       4.828  27.437  52.333  1.00  0.00     0.034 C 
ENDBRANCH   4   8
ENDBRANCH   3   4
ENDBRANCH   2   3
ENDBRANCH   1   2
BRANCH   1  10
HETATM   10  C   UNL     1       5.716  30.580  57.027  1.00  0.00     0.174 C 
HETATM   11  S   UNL     1       5.149  32.048  56.424  1.00  0.00    -0.041 SA
BRANCH  10  12
HETATM   12  N   UNL     1       6.252  30.436  58.293  1.00  0.00    -0.332 N 
HETATM   13  H   UNL     1       5.756  29.773  58.891  1.00  0.00     0.168 HD
BRANCH  12  14
HETATM   14  C   UNL     1       7.390  31.019  58.907  1.00  0.00     0.050 A 
HETATM   15  C   UNL     1       7.218  31.859  60.037  1.00  0.00     0.066 A 
HETATM   16  C   UNL     1       8.338  32.477  60.625  1.00  0.00     0.020 A 
HETATM   17  C   UNL     1       9.612  32.288  60.094  1.00  0.00     0.001 A 
HETATM   18  C   UNL     1       9.778  31.495  58.964  1.00  0.00     0.002 A 
HETATM   19  C   UNL     1       8.675  30.875  58.370  1.00  0.00     0.030 A 
BRANCH  15  20
HETATM   20  C   UNL     1       5.847  32.137  60.571  1.00  0.00     0.295 C 
HETATM   21  O   UNL     1       4.918  32.520  59.870  1.00  0.00    -0.259 OA
BRANCH  20  22
HETATM   22  O   UNL     1       5.789  31.938  61.911  1.00  0.00    -0.322 OA
HETATM   23  C   UNL     1       5.095  32.957  62.633  1.00  0.00     0.213 C 
ENDBRANCH  20  22
ENDBRANCH  15  20
ENDBRANCH  12  14
ENDBRANCH  10  12
ENDBRANCH   1  10
BRANCH   1  24
HETATM   24  C   UNL     1       7.144  28.918  55.785  1.00  0.00     0.169 C 
BRANCH  24  25
HETATM   25  C   UNL     1       7.366  27.440  55.962  1.00  0.00     0.029 A 
HETATM   26  C   UNL     1       7.760  26.928  57.312  1.00  0.00     0.253 A 
HETATM   27  O   UNL     1       7.862  27.663  58.288  1.00  0.00    -0.268 OA
HETATM   28  N   UNL     1       7.977  25.581  57.429  1.00  0.00    -0.322 N 
HETATM   29  C   UNL     1       7.922  24.684  56.357  1.00  0.00     0.048 A 
HETATM   30  H   UNL     1       8.249  25.257  58.349  1.00  0.00     0.169 HD
HETATM   31  C   UNL     1       7.592  25.167  55.085  1.00  0.00    -0.006 A 
HETATM   32  C   UNL     1       8.213  23.337  56.559  1.00  0.00     0.070 A 
HETATM   33  C   UNL     1       7.584  24.293  53.996  1.00  0.00     0.053 A 
HETATM   34  C   UNL     1       7.294  26.589  54.923  1.00  0.00     0.028 A 
HETATM   35  C   UNL     1       7.906  22.950  54.187  1.00  0.00     0.103 A 
HETATM   36  C   UNL     1       8.191  22.467  55.469  1.00  0.00     0.104 A 
HETATM   37  O   UNL     1       7.923  22.159  53.068  1.00  0.00    -0.346 OA
HETATM   38  O   UNL     1       8.479  21.152  55.730  1.00  0.00    -0.346 OA
HETATM   39  C   UNL     1       8.157  20.307  54.616  1.00  0.00     0.202 C 
HETATM   40  C   UNL     1       8.625  20.933  53.312  1.00  0.00     0.202 C 
ENDBRANCH  24  25
ENDBRANCH   1  24
TORSDOF 12
ENDMDL
