MODEL 1
REMARK VINA RESULT:      -8.2      0.000      0.000
REMARK  5 active torsions:
REMARK  status: ('A' for Active; 'I' for Inactive)
REMARK    1  A    between atoms: C_2  and  C_3 
REMARK    2  A    between atoms: C_2  and  C_21 
REMARK       I    between atoms: C_3  and  N_4 
REMARK    3  A    between atoms: N_4  and  C_5 
REMARK    4  A    between atoms: C_8  and  O_9 
REMARK    5  A    between atoms: O_9  and  C_10 
ROOT
HETATM    1  C   UNL     1       5.315  25.648  51.515  1.00  0.00     0.052 A 
HETATM    2  C   UNL     1       4.768  25.274  52.741  1.00  0.00     0.149 A 
HETATM    3  N   UNL     1       5.502  24.920  53.827  1.00  0.00    -0.235 NA
HETATM    4  C   UNL     1       6.844  24.942  53.690  1.00  0.00     0.169 A 
HETATM    5  C   UNL     1       7.488  25.341  52.530  1.00  0.00     0.060 A 
HETATM    6  C   UNL     1       6.708  25.687  51.426  1.00  0.00     0.035 A 
ENDROOT
BRANCH   1   7
HETATM    7  N   UNL     1       4.579  25.959  50.351  1.00  0.00    -0.325 N 
HETATM    8  C   UNL     1       4.249  27.222  49.890  1.00  0.00     0.231 C 
HETATM    9  O   UNL     1       4.639  28.267  50.401  1.00  0.00    -0.272 OA
HETATM   10  H   UNL     1       4.251  25.164  49.818  1.00  0.00     0.169 HD
BRANCH   8  11
HETATM   11  C   UNL     1       3.306  27.235  48.664  1.00  0.00     0.046 C 
HETATM   12  C   UNL     1       3.083  25.797  48.161  1.00  0.00     0.026 C 
HETATM   13  C   UNL     1       1.964  27.867  49.080  1.00  0.00     0.026 C 
BRANCH  11  14
HETATM   14  C   UNL     1       3.994  28.091  47.572  1.00  0.00     0.133 C 
HETATM   15 CL   UNL     1       5.681  27.613  47.224  1.00  0.00    -0.129 Cl
ENDBRANCH  11  14
ENDBRANCH   8  11
ENDBRANCH   1   7
BRANCH   4  16
HETATM   16  O   UNL     1       7.653  24.580  54.755  1.00  0.00    -0.289 OA
BRANCH  16  17
HETATM   17  C   UNL     1       7.788  23.237  55.021  1.00  0.00     0.116 A 
HETATM   18  C   UNL     1       8.119  22.871  56.328  1.00  0.00     0.153 A 
HETATM   19  F   UNL     1       8.243  23.810  57.279  1.00  0.00    -0.203 F 
HETATM   20  C   UNL     1       8.335  21.541  56.667  1.00  0.00     0.087 A 
HETATM   21  C   UNL     1       8.231  20.571  55.680  1.00  0.00     0.119 A 
HETATM   22  F   UNL     1       8.441  19.286  55.992  1.00  0.00    -0.206 F 
HETATM   23  C   UNL     1       7.924  20.912  54.365  1.00  0.00     0.045 A 
HETATM   24  C   UNL     1       7.712  22.251  54.030  1.00  0.00     0.043 A 
ENDBRANCH  16  17
ENDBRANCH   4  16
TORSDOF 5
ENDMDL
MODEL 2
REMARK VINA RESULT:      -8.1      7.334      9.149
REMARK  5 active torsions:
REMARK  status: ('A' for Active; 'I' for Inactive)
REMARK    1  A    between atoms: C_2  and  C_3 
REMARK    2  A    between atoms: C_2  and  C_21 
REMARK       I    between atoms: C_3  and  N_4 
REMARK    3  A    between atoms: N_4  and  C_5 
REMARK    4  A    between atoms: C_8  and  O_9 
REMARK    5  A    between atoms: O_9  and  C_10 
ROOT
HETATM    1  C   UNL     1       7.530  27.968  56.914  1.00  0.00     0.052 A 
HETATM    2  C   UNL     1       8.769  28.523  57.226  1.00  0.00     0.149 A 
HETATM    3  N   UNL     1       8.938  29.759  57.762  1.00  0.00    -0.235 NA
HETATM    4  C   UNL     1       7.821  30.477  58.004  1.00  0.00     0.169 A 
HETATM    5  C   UNL     1       6.541  30.001  57.773  1.00  0.00     0.060 A 
HETATM    6  C   UNL     1       6.398  28.733  57.210  1.00  0.00     0.035 A 
ENDROOT
BRANCH   1   7
HETATM    7  N   UNL     1       7.325  26.714  56.298  1.00  0.00    -0.325 N 
HETATM    8  C   UNL     1       7.304  26.450  54.939  1.00  0.00     0.231 C 
HETATM    9  O   UNL     1       7.553  27.281  54.071  1.00  0.00    -0.272 OA
HETATM   10  H   UNL     1       7.163  25.940  56.929  1.00  0.00     0.169 HD
BRANCH   8  11
HETATM   11  C   UNL     1       6.908  25.001  54.570  1.00  0.00     0.046 C 
HETATM   12  C   UNL     1       6.909  24.121  55.833  1.00  0.00     0.026 C 
HETATM   13  C   UNL     1       5.506  25.019  53.934  1.00  0.00     0.026 C 
BRANCH  11  14
HETATM   14  C   UNL     1       7.959  24.491  53.553  1.00  0.00     0.133 C 
HETATM   15 CL   UNL     1       7.663  22.828  52.969  1.00  0.00    -0.129 Cl
ENDBRANCH  11  14
ENDBRANCH   8  11
ENDBRANCH   1   7
BRANCH   4  16
HETATM   16  O   UNL     1       7.923  31.751  58.539  1.00  0.00    -0.289 OA
BRANCH  16  17
HETATM   17  C   UNL     1       8.027  31.859  59.907  1.00  0.00     0.116 A 
HETATM   18  C   UNL     1       6.882  32.240  60.609  1.00  0.00     0.153 A 
HETATM   19  F   UNL     1       5.726  32.438  59.957  1.00  0.00    -0.203 F 
HETATM   20  C   UNL     1       6.917  32.432  61.985  1.00  0.00     0.087 A 
HETATM   21  C   UNL     1       8.117  32.252  62.658  1.00  0.00     0.119 A 
HETATM   22  F   UNL     1       8.164  32.439  63.984  1.00  0.00    -0.206 F 
HETATM   23  C   UNL     1       9.276  31.892  61.978  1.00  0.00     0.045 A 
HETATM   24  C   UNL     1       9.237  31.705  60.595  1.00  0.00     0.043 A 
ENDBRANCH  16  17
ENDBRANCH   4  16
TORSDOF 5
ENDMDL
MODEL 3
REMARK VINA RESULT:      -7.9      7.379      9.234
REMARK  5 active torsions:
REMARK  status: ('A' for Active; 'I' for Inactive)
REMARK    1  A    between atoms: C_2  and  C_3 
REMARK    2  A    between atoms: C_2  and  C_21 
REMARK       I    between atoms: C_3  and  N_4 
REMARK    3  A    between atoms: N_4  and  C_5 
REMARK    4  A    between atoms: C_8  and  O_9 
REMARK    5  A    between atoms: O_9  and  C_10 
ROOT
HETATM    1  C   UNL     1       7.559  28.164  56.978  1.00  0.00     0.052 A 
HETATM    2  C   UNL     1       6.547  29.078  57.265  1.00  0.00     0.149 A 
HETATM    3  N   UNL     1       6.758  30.300  57.820  1.00  0.00    -0.235 NA
HETATM    4  C   UNL     1       8.036  30.630  58.100  1.00  0.00     0.169 A 
HETATM    5  C   UNL     1       9.118  29.814  57.814  1.00  0.00     0.060 A 
HETATM    6  C   UNL     1       8.870  28.559  57.256  1.00  0.00     0.035 A 
ENDROOT
BRANCH   1   7
HETATM    7  N   UNL     1       7.366  26.864  56.462  1.00  0.00    -0.325 N 
HETATM    8  C   UNL     1       7.361  26.492  55.129  1.00  0.00     0.231 C 
HETATM    9  O   UNL     1       7.617  27.252  54.200  1.00  0.00    -0.272 OA
HETATM   10  H   UNL     1       7.199  26.143  57.152  1.00  0.00     0.169 HD
BRANCH   8  11
HETATM   11  C   UNL     1       6.974  25.017  54.872  1.00  0.00     0.046 C 
HETATM   12  C   UNL     1       7.869  24.427  53.767  1.00  0.00     0.026 C 
HETATM   13  C   UNL     1       7.152  24.224  56.180  1.00  0.00     0.026 C 
BRANCH  11  14
HETATM   14  C   UNL     1       5.489  25.009  54.430  1.00  0.00     0.133 C 
HETATM   15 CL   UNL     1       5.255  25.038  52.658  1.00  0.00    -0.129 Cl
ENDBRANCH  11  14
ENDBRANCH   8  11
ENDBRANCH   1   7
BRANCH   4  16
HETATM   16  O   UNL     1       8.321  31.857  58.679  1.00  0.00    -0.289 OA
BRANCH  16  17
HETATM   17  C   UNL     1       8.257  31.942  60.050  1.00  0.00     0.116 A 
HETATM   18  C   UNL     1       7.112  32.517  60.605  1.00  0.00     0.153 A 
HETATM   19  F   UNL     1       6.107  32.917  59.811  1.00  0.00    -0.203 F 
HETATM   20  C   UNL     1       6.994  32.697  61.979  1.00  0.00     0.087 A 
HETATM   21  C   UNL     1       8.043  32.307  62.799  1.00  0.00     0.119 A 
HETATM   22  F   UNL     1       7.944  32.479  64.123  1.00  0.00    -0.206 F 
HETATM   23  C   UNL     1       9.203  31.750  62.268  1.00  0.00     0.045 A 
HETATM   24  C   UNL     1       9.318  31.575  60.888  1.00  0.00     0.043 A 
ENDBRANCH  16  17
ENDBRANCH   4  16
TORSDOF 5
ENDMDL
MODEL 4
REMARK VINA RESULT:      -7.5      1.781      2.093
REMARK  5 active torsions:
REMARK  status: ('A' for Active; 'I' for Inactive)
REMARK    1  A    between atoms: C_2  and  C_3 
REMARK    2  A    between atoms: C_2  and  C_21 
REMARK       I    between atoms: C_3  and  N_4 
REMARK    3  A    between atoms: N_4  and  C_5 
REMARK    4  A    between atoms: C_8  and  O_9 
REMARK    5  A    between atoms: O_9  and  C_10 
ROOT
HETATM    1  C   UNL     1       4.879  27.065  52.288  1.00  0.00     0.052 A 
HETATM    2  C   UNL     1       4.644  25.862  52.953  1.00  0.00     0.149 A 
HETATM    3  N   UNL     1       5.542  25.255  53.771  1.00  0.00    -0.235 NA
HETATM    4  C   UNL     1       6.729  25.874  53.940  1.00  0.00     0.169 A 
HETATM    5  C   UNL     1       7.046  27.092  53.362  1.00  0.00     0.060 A 
HETATM    6  C   UNL     1       6.110  27.687  52.516  1.00  0.00     0.035 A 
ENDROOT
BRANCH   1   7
HETATM    7  N   UNL     1       3.993  27.687  51.383  1.00  0.00    -0.325 N 
HETATM    8  C   UNL     1       3.950  27.512  50.010  1.00  0.00     0.231 C 
HETATM    9  O   UNL     1       4.640  26.705  49.395  1.00  0.00    -0.272 OA
HETATM   10  H   UNL     1       3.337  28.338  51.794  1.00  0.00     0.169 HD
BRANCH   8  11
HETATM   11  C   UNL     1       2.963  28.447  49.271  1.00  0.00     0.046 C 
HETATM   12  C   UNL     1       1.960  27.610  48.457  1.00  0.00     0.026 C 
HETATM   13  C   UNL     1       2.220  29.303  50.313  1.00  0.00     0.026 C 
BRANCH  11  14
HETATM   14  C   UNL     1       3.808  29.345  48.333  1.00  0.00     0.133 C 
HETATM   15 CL   UNL     1       5.239  30.076  49.115  1.00  0.00    -0.129 Cl
ENDBRANCH  11  14
ENDBRANCH   8  11
ENDBRANCH   1   7
BRANCH   4  16
HETATM   16  O   UNL     1       7.695  25.302  54.753  1.00  0.00    -0.289 OA
BRANCH  16  17
HETATM   17  C   UNL     1       7.849  23.936  54.691  1.00  0.00     0.116 A 
HETATM   18  C   UNL     1       8.210  23.386  53.460  1.00  0.00     0.153 A 
HETATM   19  F   UNL     1       8.442  24.185  52.407  1.00  0.00    -0.203 F 
HETATM   20  C   UNL     1       8.325  22.010  53.296  1.00  0.00     0.087 A 
HETATM   21  C   UNL     1       8.061  21.181  54.377  1.00  0.00     0.119 A 
HETATM   22  F   UNL     1       8.165  19.854  54.230  1.00  0.00    -0.206 F 
HETATM   23  C   UNL     1       7.680  21.704  55.609  1.00  0.00     0.045 A 
HETATM   24  C   UNL     1       7.561  23.086  55.767  1.00  0.00     0.043 A 
ENDBRANCH  16  17
ENDBRANCH   4  16
TORSDOF 5
ENDMDL
MODEL 5
REMARK VINA RESULT:      -7.3     16.065     18.488
REMARK  5 active torsions:
REMARK  status: ('A' for Active; 'I' for Inactive)
REMARK    1  A    between atoms: C_2  and  C_3 
REMARK    2  A    between atoms: C_2  and  C_21 
REMARK       I    between atoms: C_3  and  N_4 
REMARK    3  A    between atoms: N_4  and  C_5 
REMARK    4  A    between atoms: C_8  and  O_9 
REMARK    5  A    between atoms: O_9  and  C_10 
ROOT
HETATM    1  C   UNL     1       6.164  34.211  66.998  1.00  0.00     0.052 A 
HETATM    2  C   UNL     1       4.783  34.142  66.820  1.00  0.00     0.149 A 
HETATM    3  N   UNL     1       4.182  33.748  65.668  1.00  0.00    -0.235 NA
HETATM    4  C   UNL     1       4.991  33.403  64.644  1.00  0.00     0.169 A 
HETATM    5  C   UNL     1       6.373  33.395  64.731  1.00  0.00     0.060 A 
HETATM    6  C   UNL     1       6.964  33.816  65.922  1.00  0.00     0.035 A 
ENDROOT
BRANCH   1   7
HETATM    7  N   UNL     1       6.818  34.677  68.159  1.00  0.00    -0.325 N 
HETATM    8  C   UNL     1       6.476  34.400  69.472  1.00  0.00     0.231 C 
HETATM    9  O   UNL     1       5.588  33.621  69.804  1.00  0.00    -0.272 OA
HETATM   10  H   UNL     1       7.607  35.290  67.998  1.00  0.00     0.169 HD
BRANCH   8  11
HETATM   11  C   UNL     1       7.294  35.178  70.529  1.00  0.00     0.046 C 
HETATM   12  C   UNL     1       7.698  36.554  69.968  1.00  0.00     0.026 C 
HETATM   13  C   UNL     1       6.431  35.351  71.792  1.00  0.00     0.026 C 
BRANCH  11  14
HETATM   14  C   UNL     1       8.552  34.330  70.843  1.00  0.00     0.133 C 
HETATM   15 CL   UNL     1       8.271  33.016  72.021  1.00  0.00    -0.129 Cl
ENDBRANCH  11  14
ENDBRANCH   8  11
ENDBRANCH   1   7
BRANCH   4  16
HETATM   16  O   UNL     1       4.442  33.004  63.436  1.00  0.00    -0.289 OA
BRANCH  16  17
HETATM   17  C   UNL     1       3.989  33.988  62.588  1.00  0.00     0.116 A 
HETATM   18  C   UNL     1       2.622  34.271  62.606  1.00  0.00     0.153 A 
HETATM   19  F   UNL     1       1.812  33.629  63.462  1.00  0.00    -0.203 F 
HETATM   20  C   UNL     1       2.072  35.208  61.738  1.00  0.00     0.087 A 
HETATM   21  C   UNL     1       2.904  35.855  60.835  1.00  0.00     0.119 A 
HETATM   22  F   UNL     1       2.386  36.756  59.990  1.00  0.00    -0.206 F 
HETATM   23  C   UNL     1       4.267  35.575  60.784  1.00  0.00     0.045 A 
HETATM   24  C   UNL     1       4.812  34.631  61.655  1.00  0.00     0.043 A 
ENDBRANCH  16  17
ENDBRANCH   4  16
TORSDOF 5
ENDMDL
MODEL 6
REMARK VINA RESULT:      -7.3     15.827     17.441
REMARK  5 active torsions:
REMARK  status: ('A' for Active; 'I' for Inactive)
REMARK    1  A    between atoms: C_2  and  C_3 
REMARK    2  A    between atoms: C_2  and  C_21 
REMARK       I    between atoms: C_3  and  N_4 
REMARK    3  A    between atoms: N_4  and  C_5 
REMARK    4  A    between atoms: C_8  and  O_9 
REMARK    5  A    between atoms: O_9  and  C_10 
ROOT
HETATM    1  C   UNL     1       5.706  34.169  66.008  1.00  0.00     0.052 A 
HETATM    2  C   UNL     1       4.463  34.118  66.637  1.00  0.00     0.149 A 
HETATM    3  N   UNL     1       4.289  34.144  67.983  1.00  0.00    -0.235 NA
HETATM    4  C   UNL     1       5.402  34.228  68.742  1.00  0.00     0.169 A 
HETATM    5  C   UNL     1       6.679  34.329  68.216  1.00  0.00     0.060 A 
HETATM    6  C   UNL     1       6.830  34.288  66.830  1.00  0.00     0.035 A 
ENDROOT
BRANCH   1   7
HETATM    7  N   UNL     1       5.924  34.080  64.616  1.00  0.00    -0.325 N 
HETATM    8  C   UNL     1       5.526  33.053  63.778  1.00  0.00     0.231 C 
HETATM    9  O   UNL     1       4.837  32.101  64.132  1.00  0.00    -0.272 OA
HETATM   10  H   UNL     1       6.441  34.847  64.206  1.00  0.00     0.169 HD
BRANCH   8  11
HETATM   11  C   UNL     1       6.042  33.169  62.325  1.00  0.00     0.046 C 
HETATM   12  C   UNL     1       5.057  32.479  61.363  1.00  0.00     0.026 C 
HETATM   13  C   UNL     1       6.179  34.661  61.967  1.00  0.00     0.026 C 
BRANCH  11  14
HETATM   14  C   UNL     1       7.424  32.471  62.278  1.00  0.00     0.133 C 
HETATM   15 CL   UNL     1       8.254  32.598  60.700  1.00  0.00    -0.129 Cl
ENDBRANCH  11  14
ENDBRANCH   8  11
ENDBRANCH   1   7
BRANCH   4  16
HETATM   16  O   UNL     1       5.295  34.247  70.123  1.00  0.00    -0.289 OA
BRANCH  16  17
HETATM   17  C   UNL     1       6.264  33.586  70.843  1.00  0.00     0.116 A 
HETATM   18  C   UNL     1       6.114  32.208  71.007  1.00  0.00     0.153 A 
HETATM   19  F   UNL     1       5.084  31.569  70.431  1.00  0.00    -0.203 F 
HETATM   20  C   UNL     1       7.014  31.475  71.772  1.00  0.00     0.087 A 
HETATM   21  C   UNL     1       8.066  32.138  72.389  1.00  0.00     0.119 A 
HETATM   22  F   UNL     1       8.938  31.444  73.132  1.00  0.00    -0.206 F 
HETATM   23  C   UNL     1       8.225  33.514  72.258  1.00  0.00     0.045 A 
HETATM   24  C   UNL     1       7.316  34.246  71.491  1.00  0.00     0.043 A 
ENDBRANCH  16  17
ENDBRANCH   4  16
TORSDOF 5
ENDMDL
MODEL 7
REMARK VINA RESULT:      -7.2      9.594     11.399
REMARK  5 active torsions:
REMARK  status: ('A' for Active; 'I' for Inactive)
REMARK    1  A    between atoms: C_2  and  C_3 
REMARK    2  A    between atoms: C_2  and  C_21 
REMARK       I    between atoms: C_3  and  N_4 
REMARK    3  A    between atoms: N_4  and  C_5 
REMARK    4  A    between atoms: C_8  and  O_9 
REMARK    5  A    between atoms: O_9  and  C_10 
ROOT
HETATM    1  C   UNL     1       7.508  31.785  60.539  1.00  0.00     0.052 A 
HETATM    2  C   UNL     1       8.374  30.696  60.460  1.00  0.00     0.149 A 
HETATM    3  N   UNL     1       8.518  29.916  59.357  1.00  0.00    -0.235 NA
HETATM    4  C   UNL     1       7.770  30.236  58.281  1.00  0.00     0.169 A 
HETATM    5  C   UNL     1       6.914  31.323  58.241  1.00  0.00     0.060 A 
HETATM    6  C   UNL     1       6.776  32.100  59.391  1.00  0.00     0.035 A 
ENDROOT
BRANCH   1   7
HETATM    7  N   UNL     1       7.289  32.574  61.689  1.00  0.00    -0.325 N 
HETATM    8  C   UNL     1       6.365  32.340  62.693  1.00  0.00     0.231 C 
HETATM    9  O   UNL     1       5.656  31.341  62.759  1.00  0.00    -0.272 OA
HETATM   10  H   UNL     1       7.864  33.403  61.764  1.00  0.00     0.169 HD
BRANCH   8  11
HETATM   11  C   UNL     1       6.259  33.466  63.747  1.00  0.00     0.046 C 
HETATM   12  C   UNL     1       7.511  33.461  64.645  1.00  0.00     0.026 C 
HETATM   13  C   UNL     1       6.133  34.817  63.018  1.00  0.00     0.026 C 
BRANCH  11  14
HETATM   14  C   UNL     1       4.989  33.182  64.587  1.00  0.00     0.133 C 
HETATM   15 CL   UNL     1       5.008  33.921  66.214  1.00  0.00    -0.129 Cl
ENDBRANCH  11  14
ENDBRANCH   8  11
ENDBRANCH   1   7
BRANCH   4  16
HETATM   16  O   UNL     1       7.860  29.473  57.127  1.00  0.00    -0.289 OA
BRANCH  16  17
HETATM   17  C   UNL     1       7.168  28.284  57.097  1.00  0.00     0.116 A 
HETATM   18  C   UNL     1       5.846  28.322  56.652  1.00  0.00     0.153 A 
HETATM   19  F   UNL     1       5.310  29.477  56.228  1.00  0.00    -0.203 F 
HETATM   20  C   UNL     1       5.057  27.177  56.649  1.00  0.00     0.087 A 
HETATM   21  C   UNL     1       5.601  25.987  57.110  1.00  0.00     0.119 A 
HETATM   22  F   UNL     1       4.851  24.877  57.117  1.00  0.00    -0.206 F 
HETATM   23  C   UNL     1       6.911  25.927  57.578  1.00  0.00     0.045 A 
HETATM   24  C   UNL     1       7.697  27.081  57.583  1.00  0.00     0.043 A 
ENDBRANCH  16  17
ENDBRANCH   4  16
TORSDOF 5
ENDMDL
MODEL 8
REMARK VINA RESULT:      -6.9     16.045     17.612
REMARK  5 active torsions:
REMARK  status: ('A' for Active; 'I' for Inactive)
REMARK    1  A    between atoms: C_2  and  C_3 
REMARK    2  A    between atoms: C_2  and  C_21 
REMARK       I    between atoms: C_3  and  N_4 
REMARK    3  A    between atoms: N_4  and  C_5 
REMARK    4  A    between atoms: C_8  and  O_9 
REMARK    5  A    between atoms: O_9  and  C_10 
ROOT
HETATM    1  C   UNL     1       5.593  34.346  66.215  1.00  0.00     0.052 A 
HETATM    2  C   UNL     1       4.414  34.276  66.954  1.00  0.00     0.149 A 
HETATM    3  N   UNL     1       4.364  34.276  68.311  1.00  0.00    -0.235 NA
HETATM    4  C   UNL     1       5.541  34.352  68.966  1.00  0.00     0.169 A 
HETATM    5  C   UNL     1       6.764  34.471  68.327  1.00  0.00     0.060 A 
HETATM    6  C   UNL     1       6.787  34.456  66.933  1.00  0.00     0.035 A 
ENDROOT
BRANCH   1   7
HETATM    7  N   UNL     1       5.682  34.284  64.808  1.00  0.00    -0.325 N 
HETATM    8  C   UNL     1       5.381  33.198  64.004  1.00  0.00     0.231 C 
HETATM    9  O   UNL     1       4.900  32.147  64.416  1.00  0.00    -0.272 OA
HETATM   10  H   UNL     1       6.019  35.124  64.355  1.00  0.00     0.169 HD
BRANCH   8  11
HETATM   11  C   UNL     1       5.722  33.389  62.507  1.00  0.00     0.046 C 
HETATM   12  C   UNL     1       6.065  34.865  62.233  1.00  0.00     0.026 C 
HETATM   13  C   UNL     1       6.922  32.490  62.155  1.00  0.00     0.026 C 
BRANCH  11  14
HETATM   14  C   UNL     1       4.470  32.965  61.700  1.00  0.00     0.133 C 
HETATM   15 CL   UNL     1       2.945  33.692  62.281  1.00  0.00    -0.129 Cl
ENDBRANCH  11  14
ENDBRANCH   8  11
ENDBRANCH   1   7
BRANCH   4  16
HETATM   16  O   UNL     1       5.562  34.344  70.351  1.00  0.00    -0.289 OA
BRANCH  16  17
HETATM   17  C   UNL     1       6.234  33.315  70.970  1.00  0.00     0.116 A 
HETATM   18  C   UNL     1       7.365  33.645  71.718  1.00  0.00     0.153 A 
HETATM   19  F   UNL     1       7.732  34.929  71.854  1.00  0.00    -0.203 F 
HETATM   20  C   UNL     1       8.137  32.660  72.324  1.00  0.00     0.087 A 
HETATM   21  C   UNL     1       7.774  31.330  72.163  1.00  0.00     0.119 A 
HETATM   22  F   UNL     1       8.511  30.371  72.738  1.00  0.00    -0.206 F 
HETATM   23  C   UNL     1       6.662  30.974  71.405  1.00  0.00     0.045 A 
HETATM   24  C   UNL     1       5.893  31.968  70.795  1.00  0.00     0.043 A 
ENDBRANCH  16  17
ENDBRANCH   4  16
TORSDOF 5
ENDMDL
MODEL 9
REMARK VINA RESULT:      -6.7      4.854      8.770
REMARK  5 active torsions:
REMARK  status: ('A' for Active; 'I' for Inactive)
REMARK    1  A    between atoms: C_2  and  C_3 
REMARK    2  A    between atoms: C_2  and  C_21 
REMARK       I    between atoms: C_3  and  N_4 
REMARK    3  A    between atoms: N_4  and  C_5 
REMARK    4  A    between atoms: C_8  and  O_9 
REMARK    5  A    between atoms: O_9  and  C_10 
ROOT
HETATM    1  C   UNL     1       5.596  27.364  52.861  1.00  0.00     0.052 A 
HETATM    2  C   UNL     1       5.460  26.272  52.007  1.00  0.00     0.149 A 
HETATM    3  N   UNL     1       5.221  26.373  50.674  1.00  0.00    -0.235 NA
HETATM    4  C   UNL     1       5.116  27.618  50.165  1.00  0.00     0.169 A 
HETATM    5  C   UNL     1       5.280  28.768  50.918  1.00  0.00     0.060 A 
HETATM    6  C   UNL     1       5.512  28.635  52.287  1.00  0.00     0.035 A 
ENDROOT
BRANCH   1   7
HETATM    7  N   UNL     1       5.780  27.292  54.259  1.00  0.00    -0.325 N 
HETATM    8  C   UNL     1       6.959  27.502  54.953  1.00  0.00     0.231 C 
HETATM    9  O   UNL     1       8.008  27.874  54.435  1.00  0.00    -0.272 OA
HETATM   10  H   UNL     1       4.958  27.044  54.794  1.00  0.00     0.169 HD
BRANCH   8  11
HETATM   11  C   UNL     1       6.878  27.204  56.469  1.00  0.00     0.046 C 
HETATM   12  C   UNL     1       8.206  27.583  57.148  1.00  0.00     0.026 C 
HETATM   13  C   UNL     1       5.720  28.021  57.071  1.00  0.00     0.026 C 
BRANCH  11  14
HETATM   14  C   UNL     1       6.606  25.686  56.618  1.00  0.00     0.133 C 
HETATM   15 CL   UNL     1       4.960  25.291  57.189  1.00  0.00    -0.129 Cl
ENDBRANCH  11  14
ENDBRANCH   8  11
ENDBRANCH   1   7
BRANCH   4  16
HETATM   16  O   UNL     1       4.861  27.791  48.813  1.00  0.00    -0.289 OA
BRANCH  16  17
HETATM   17  C   UNL     1       3.551  27.716  48.401  1.00  0.00     0.116 A 
HETATM   18  C   UNL     1       3.175  26.594  47.659  1.00  0.00     0.153 A 
HETATM   19  F   UNL     1       4.065  25.618  47.416  1.00  0.00    -0.203 F 
HETATM   20  C   UNL     1       1.887  26.469  47.151  1.00  0.00     0.087 A 
HETATM   21  C   UNL     1       0.974  27.488  47.379  1.00  0.00     0.119 A 
HETATM   22  F   UNL     1      -0.269  27.381  46.891  1.00  0.00    -0.206 F 
HETATM   23  C   UNL     1       1.330  28.626  48.098  1.00  0.00     0.045 A 
HETATM   24  C   UNL     1       2.626  28.748  48.603  1.00  0.00     0.043 A 
ENDBRANCH  16  17
ENDBRANCH   4  16
TORSDOF 5
ENDMDL
MODEL 10
REMARK VINA RESULT:      -6.7     15.418     17.770
REMARK  5 active torsions:
REMARK  status: ('A' for Active; 'I' for Inactive)
REMARK    1  A    between atoms: C_2  and  C_3 
REMARK    2  A    between atoms: C_2  and  C_21 
REMARK       I    between atoms: C_3  and  N_4 
REMARK    3  A    between atoms: N_4  and  C_5 
REMARK    4  A    between atoms: C_8  and  O_9 
REMARK    5  A    between atoms: O_9  and  C_10 
ROOT
HETATM    1  C   UNL     1       5.826  34.185  66.918  1.00  0.00     0.052 A 
HETATM    2  C   UNL     1       4.771  34.834  66.278  1.00  0.00     0.149 A 
HETATM    3  N   UNL     1       4.758  35.147  64.957  1.00  0.00    -0.235 NA
HETATM    4  C   UNL     1       5.843  34.795  64.236  1.00  0.00     0.169 A 
HETATM    5  C   UNL     1       6.924  34.109  64.765  1.00  0.00     0.060 A 
HETATM    6  C   UNL     1       6.916  33.812  66.128  1.00  0.00     0.035 A 
ENDROOT
BRANCH   1   7
HETATM    7  N   UNL     1       5.897  33.904  68.300  1.00  0.00    -0.325 N 
HETATM    8  C   UNL     1       6.582  34.628  69.261  1.00  0.00     0.231 C 
HETATM    9  O   UNL     1       7.162  35.687  69.043  1.00  0.00    -0.272 OA
HETATM   10  H   UNL     1       5.402  33.074  68.601  1.00  0.00     0.169 HD
BRANCH   8  11
HETATM   11  C   UNL     1       6.593  33.985  70.667  1.00  0.00     0.046 C 
HETATM   12  C   UNL     1       5.857  34.897  71.665  1.00  0.00     0.026 C 
HETATM   13  C   UNL     1       5.898  32.613  70.589  1.00  0.00     0.026 C 
BRANCH  11  14
HETATM   14  C   UNL     1       8.077  33.819  71.077  1.00  0.00     0.133 C 
HETATM   15 CL   UNL     1       8.340  32.674  72.424  1.00  0.00    -0.129 Cl
ENDBRANCH  11  14
ENDBRANCH   8  11
ENDBRANCH   1   7
BRANCH   4  16
HETATM   16  O   UNL     1       5.900  35.096  62.884  1.00  0.00    -0.289 OA
BRANCH  16  17
HETATM   17  C   UNL     1       5.282  34.227  62.014  1.00  0.00     0.116 A 
HETATM   18  C   UNL     1       6.091  33.318  61.331  1.00  0.00     0.153 A 
HETATM   19  F   UNL     1       7.411  33.280  61.570  1.00  0.00    -0.203 F 
HETATM   20  C   UNL     1       5.555  32.448  60.389  1.00  0.00     0.087 A 
HETATM   21  C   UNL     1       4.194  32.504  60.122  1.00  0.00     0.119 A 
HETATM   22  F   UNL     1       3.665  31.674  59.213  1.00  0.00    -0.206 F 
HETATM   23  C   UNL     1       3.369  33.416  60.775  1.00  0.00     0.045 A 
HETATM   24  C   UNL     1       3.914  34.290  61.718  1.00  0.00     0.043 A 
ENDBRANCH  16  17
ENDBRANCH   4  16
TORSDOF 5
ENDMDL
