MODEL 1
REMARK VINA RESULT:     -10.1      0.000      0.000
REMARK  3 active torsions:
REMARK  status: ('A' for Active; 'I' for Inactive)
REMARK    1  A    between atoms: C_4  and  C_5 
REMARK    2  A    between atoms: C_11  and  N_12 
REMARK    3  A    between atoms: C_14  and  C_15 
ROOT
HETATM    1  C   UNL     1       7.057  27.544  55.568  1.00  0.00    -0.006 A 
HETATM    2  C   UNL     1       5.914  27.936  54.794  1.00  0.00     0.063 A 
HETATM    3  C   UNL     1       5.290  26.948  54.026  1.00  0.00     0.165 A 
HETATM    4  N   UNL     1       4.218  27.180  53.285  1.00  0.00    -0.222 NA
HETATM    5  C   UNL     1       3.729  28.417  53.275  1.00  0.00     0.237 A 
HETATM    6  N   UNL     1       4.228  29.456  53.939  1.00  0.00    -0.229 NA
HETATM    7  C   UNL     1       5.314  29.210  54.681  1.00  0.00     0.117 A 
HETATM    8  N   UNL     1       5.735  25.696  53.980  1.00  0.00    -0.228 NA
HETATM    9  C   UNL     1       6.827  25.321  54.679  1.00  0.00     0.070 A 
HETATM   10  C   UNL     1       7.498  26.216  55.490  1.00  0.00     0.046 A 
ENDROOT
BRANCH   9  11
HETATM   11  C   UNL     1       7.244  23.915  54.507  1.00  0.00    -0.004 A 
HETATM   12  C   UNL     1       7.472  23.070  55.613  1.00  0.00     0.053 A 
HETATM   13  C   UNL     1       7.882  21.771  55.386  1.00  0.00     0.106 A 
HETATM   14  C   UNL     1       8.070  21.276  54.119  1.00  0.00     0.105 A 
HETATM   15  O   UNL     1       8.152  20.849  56.349  1.00  0.00    -0.323 OA
HETATM   16  O   UNL     1       8.478  19.980  54.122  1.00  0.00    -0.323 OA
HETATM   17  C   UNL     1       7.862  22.056  53.006  1.00  0.00     0.040 A 
HETATM   18  C   UNL     1       8.547  19.720  55.539  1.00  0.00     0.352 A 
HETATM   19  C   UNL     1       7.452  23.380  53.208  1.00  0.00     0.017 A 
ENDBRANCH   9  11
BRANCH   1  20
HETATM   20  C   UNL     1       7.811  28.450  56.448  1.00  0.00    -0.025 A 
HETATM   21  C   UNL     1       7.407  28.672  57.775  1.00  0.00     0.012 A 
HETATM   22  C   UNL     1       8.137  29.519  58.612  1.00  0.00     0.001 A 
HETATM   23  C   UNL     1       9.289  30.143  58.141  1.00  0.00     0.000 A 
HETATM   24  C   UNL     1       9.712  29.924  56.832  1.00  0.00     0.001 A 
HETATM   25  C   UNL     1       8.979  29.083  55.992  1.00  0.00     0.012 A 
ENDBRANCH   1  20
BRANCH   7  26
HETATM   26  N   UNL     1       5.762  30.334  55.368  1.00  0.00    -0.286 NA
HETATM   27  H   UNL     1       5.351  31.155  54.933  1.00  0.00     0.125 HD
HETATM   28  H   UNL     1       6.773  30.392  55.420  1.00  0.00     0.125 HD
ENDBRANCH   7  26
TORSDOF 3
ENDMDL
MODEL 2
REMARK VINA RESULT:      -9.7      3.747      6.989
REMARK  3 active torsions:
REMARK  status: ('A' for Active; 'I' for Inactive)
REMARK    1  A    between atoms: C_4  and  C_5 
REMARK    2  A    between atoms: C_11  and  N_12 
REMARK    3  A    between atoms: C_14  and  C_15 
ROOT
HETATM    1  C   UNL     1       7.365  24.320  54.455  1.00  0.00    -0.006 A 
HETATM    2  C   UNL     1       7.564  25.242  55.536  1.00  0.00     0.063 A 
HETATM    3  C   UNL     1       7.091  26.546  55.362  1.00  0.00     0.165 A 
HETATM    4  N   UNL     1       7.198  27.483  56.291  1.00  0.00    -0.222 NA
HETATM    5  C   UNL     1       7.792  27.154  57.435  1.00  0.00     0.237 A 
HETATM    6  N   UNL     1       8.305  25.963  57.731  1.00  0.00    -0.229 NA
HETATM    7  C   UNL     1       8.195  25.027  56.782  1.00  0.00     0.117 A 
HETATM    8  N   UNL     1       6.500  26.945  54.240  1.00  0.00    -0.228 NA
HETATM    9  C   UNL     1       6.333  26.096  53.204  1.00  0.00     0.070 A 
HETATM   10  C   UNL     1       6.741  24.778  53.288  1.00  0.00     0.046 A 
ENDROOT
BRANCH   9  11
HETATM   11  C   UNL     1       5.703  26.673  52.000  1.00  0.00    -0.004 A 
HETATM   12  C   UNL     1       5.153  25.859  50.989  1.00  0.00     0.053 A 
HETATM   13  C   UNL     1       4.598  26.459  49.877  1.00  0.00     0.106 A 
HETATM   14  C   UNL     1       4.561  27.824  49.727  1.00  0.00     0.105 A 
HETATM   15  O   UNL     1       4.043  25.806  48.820  1.00  0.00    -0.323 OA
HETATM   16  O   UNL     1       3.976  28.204  48.560  1.00  0.00    -0.323 OA
HETATM   17  C   UNL     1       5.081  28.665  50.681  1.00  0.00     0.040 A 
HETATM   18  C   UNL     1       3.668  26.919  47.980  1.00  0.00     0.352 A 
HETATM   19  C   UNL     1       5.657  28.081  51.817  1.00  0.00     0.017 A 
ENDBRANCH   9  11
BRANCH   1  20
HETATM   20  C   UNL     1       7.777  22.908  54.485  1.00  0.00    -0.025 A 
HETATM   21  C   UNL     1       7.315  22.041  55.489  1.00  0.00     0.012 A 
HETATM   22  C   UNL     1       7.694  20.697  55.502  1.00  0.00     0.001 A 
HETATM   23  C   UNL     1       8.528  20.196  54.504  1.00  0.00     0.000 A 
HETATM   24  C   UNL     1       8.986  21.039  53.494  1.00  0.00     0.001 A 
HETATM   25  C   UNL     1       8.613  22.385  53.484  1.00  0.00     0.012 A 
ENDBRANCH   1  20
BRANCH   7  26
HETATM   26  N   UNL     1       8.726  23.800  57.172  1.00  0.00    -0.286 NA
HETATM   27  H   UNL     1       9.510  23.979  57.794  1.00  0.00     0.125 HD
HETATM   28  H   UNL     1       8.984  23.211  56.388  1.00  0.00     0.125 HD
ENDBRANCH   7  26
TORSDOF 3
ENDMDL
MODEL 3
REMARK VINA RESULT:      -9.6      3.603      7.056
REMARK  3 active torsions:
REMARK  status: ('A' for Active; 'I' for Inactive)
REMARK    1  A    between atoms: C_4  and  C_5 
REMARK    2  A    between atoms: C_11  and  N_12 
REMARK    3  A    between atoms: C_14  and  C_15 
ROOT
HETATM    1  C   UNL     1       6.792  26.722  54.689  1.00  0.00    -0.006 A 
HETATM    2  C   UNL     1       5.628  27.368  54.153  1.00  0.00     0.063 A 
HETATM    3  C   UNL     1       5.407  28.699  54.520  1.00  0.00     0.165 A 
HETATM    4  N   UNL     1       4.381  29.409  54.078  1.00  0.00    -0.222 NA
HETATM    5  C   UNL     1       3.525  28.811  53.253  1.00  0.00     0.237 A 
HETATM    6  N   UNL     1       3.599  27.551  52.836  1.00  0.00    -0.229 NA
HETATM    7  C   UNL     1       4.638  26.843  53.293  1.00  0.00     0.117 A 
HETATM    8  N   UNL     1       6.215  29.352  55.350  1.00  0.00    -0.228 NA
HETATM    9  C   UNL     1       7.296  28.746  55.886  1.00  0.00     0.070 A 
HETATM   10  C   UNL     1       7.616  27.441  55.563  1.00  0.00     0.046 A 
ENDROOT
BRANCH   9  11
HETATM   11  C   UNL     1       8.086  29.565  56.827  1.00  0.00    -0.004 A 
HETATM   12  C   UNL     1       7.478  30.277  57.881  1.00  0.00     0.053 A 
HETATM   13  C   UNL     1       8.270  31.043  58.713  1.00  0.00     0.106 A 
HETATM   14  C   UNL     1       9.631  31.129  58.548  1.00  0.00     0.105 A 
HETATM   15  O   UNL     1       7.825  31.790  59.759  1.00  0.00    -0.323 OA
HETATM   16  O   UNL     1      10.216  31.938  59.470  1.00  0.00    -0.323 OA
HETATM   17  C   UNL     1      10.275  30.457  57.538  1.00  0.00     0.040 A 
HETATM   18  C   UNL     1       9.064  32.370  60.223  1.00  0.00     0.352 A 
HETATM   19  C   UNL     1       9.494  29.678  56.674  1.00  0.00     0.017 A 
ENDBRANCH   9  11
BRANCH   1  20
HETATM   20  C   UNL     1       7.184  25.338  54.384  1.00  0.00    -0.025 A 
HETATM   21  C   UNL     1       6.918  24.295  55.286  1.00  0.00     0.012 A 
HETATM   22  C   UNL     1       7.276  22.979  54.983  1.00  0.00     0.001 A 
HETATM   23  C   UNL     1       7.890  22.684  53.769  1.00  0.00     0.000 A 
HETATM   24  C   UNL     1       8.150  23.704  52.856  1.00  0.00     0.001 A 
HETATM   25  C   UNL     1       7.800  25.021  53.161  1.00  0.00     0.012 A 
ENDBRANCH   1  20
BRANCH   7  26
HETATM   26  N   UNL     1       4.666  25.544  52.792  1.00  0.00    -0.286 NA
HETATM   27  H   UNL     1       5.613  25.347  52.480  1.00  0.00     0.125 HD
HETATM   28  H   UNL     1       3.980  25.384  52.063  1.00  0.00     0.125 HD
ENDBRANCH   7  26
TORSDOF 3
ENDMDL
MODEL 4
REMARK VINA RESULT:      -9.5      1.542      1.951
REMARK  3 active torsions:
REMARK  status: ('A' for Active; 'I' for Inactive)
REMARK    1  A    between atoms: C_4  and  C_5 
REMARK    2  A    between atoms: C_11  and  N_12 
REMARK    3  A    between atoms: C_14  and  C_15 
ROOT
HETATM    1  C   UNL     1       6.276  27.103  54.331  1.00  0.00    -0.006 A 
HETATM    2  C   UNL     1       5.860  27.374  52.986  1.00  0.00     0.063 A 
HETATM    3  C   UNL     1       5.914  26.318  52.071  1.00  0.00     0.165 A 
HETATM    4  N   UNL     1       5.540  26.437  50.807  1.00  0.00    -0.222 NA
HETATM    5  C   UNL     1       5.101  27.625  50.402  1.00  0.00     0.237 A 
HETATM    6  N   UNL     1       5.013  28.720  51.152  1.00  0.00    -0.229 NA
HETATM    7  C   UNL     1       5.399  28.588  52.427  1.00  0.00     0.117 A 
HETATM    8  N   UNL     1       6.354  25.109  52.407  1.00  0.00    -0.228 NA
HETATM    9  C   UNL     1       6.778  24.848  53.661  1.00  0.00     0.070 A 
HETATM   10  C   UNL     1       6.737  25.818  54.645  1.00  0.00     0.046 A 
ENDROOT
BRANCH   9  11
HETATM   11  C   UNL     1       7.284  23.480  53.894  1.00  0.00    -0.004 A 
HETATM   12  C   UNL     1       7.387  22.939  55.192  1.00  0.00     0.053 A 
HETATM   13  C   UNL     1       7.889  21.662  55.344  1.00  0.00     0.106 A 
HETATM   14  C   UNL     1       8.286  20.902  54.271  1.00  0.00     0.105 A 
HETATM   15  O   UNL     1       8.058  21.016  56.529  1.00  0.00    -0.323 OA
HETATM   16  O   UNL     1       8.752  19.680  54.643  1.00  0.00    -0.323 OA
HETATM   17  C   UNL     1       8.206  21.379  52.985  1.00  0.00     0.040 A 
HETATM   18  C   UNL     1       8.623  19.766  56.077  1.00  0.00     0.352 A 
HETATM   19  C   UNL     1       7.707  22.675  52.802  1.00  0.00     0.017 A 
ENDBRANCH   9  11
BRANCH   1  20
HETATM   20  C   UNL     1       6.256  28.092  55.419  1.00  0.00    -0.025 A 
HETATM   21  C   UNL     1       5.109  28.277  56.208  1.00  0.00     0.012 A 
HETATM   22  C   UNL     1       5.102  29.205  57.252  1.00  0.00     0.001 A 
HETATM   23  C   UNL     1       6.244  29.950  57.533  1.00  0.00     0.000 A 
HETATM   24  C   UNL     1       7.396  29.770  56.770  1.00  0.00     0.001 A 
HETATM   25  C   UNL     1       7.402  28.848  55.721  1.00  0.00     0.012 A 
ENDBRANCH   1  20
BRANCH   7  26
HETATM   26  N   UNL     1       5.252  29.763  53.158  1.00  0.00    -0.286 NA
HETATM   27  H   UNL     1       4.867  29.523  54.067  1.00  0.00     0.125 HD
HETATM   28  H   UNL     1       4.697  30.464  52.678  1.00  0.00     0.125 HD
ENDBRANCH   7  26
TORSDOF 3
ENDMDL
MODEL 5
REMARK VINA RESULT:      -8.9      6.648     10.011
REMARK  3 active torsions:
REMARK  status: ('A' for Active; 'I' for Inactive)
REMARK    1  A    between atoms: C_4  and  C_5 
REMARK    2  A    between atoms: C_11  and  N_12 
REMARK    3  A    between atoms: C_14  and  C_15 
ROOT
HETATM    1  C   UNL     1       7.189  31.183  58.925  1.00  0.00    -0.006 A 
HETATM    2  C   UNL     1       5.933  31.410  58.271  1.00  0.00     0.063 A 
HETATM    3  C   UNL     1       4.933  32.054  59.007  1.00  0.00     0.165 A 
HETATM    4  N   UNL     1       3.740  32.336  58.510  1.00  0.00    -0.222 NA
HETATM    5  C   UNL     1       3.493  31.978  57.253  1.00  0.00     0.237 A 
HETATM    6  N   UNL     1       4.338  31.345  56.444  1.00  0.00    -0.229 NA
HETATM    7  C   UNL     1       5.539  31.061  56.960  1.00  0.00     0.117 A 
HETATM    8  N   UNL     1       5.109  32.426  60.271  1.00  0.00    -0.228 NA
HETATM    9  C   UNL     1       6.275  32.191  60.908  1.00  0.00     0.070 A 
HETATM   10  C   UNL     1       7.335  31.587  60.259  1.00  0.00     0.046 A 
ENDROOT
BRANCH   9  11
HETATM   11  C   UNL     1       6.327  32.614  62.322  1.00  0.00    -0.004 A 
HETATM   12  C   UNL     1       5.155  32.845  63.070  1.00  0.00     0.053 A 
HETATM   13  C   UNL     1       5.271  33.260  64.382  1.00  0.00     0.106 A 
HETATM   14  C   UNL     1       6.492  33.451  64.981  1.00  0.00     0.105 A 
HETATM   15  O   UNL     1       4.234  33.532  65.219  1.00  0.00    -0.323 OA
HETATM   16  O   UNL     1       6.380  33.865  66.271  1.00  0.00    -0.323 OA
HETATM   17  C   UNL     1       7.666  33.241  64.299  1.00  0.00     0.040 A 
HETATM   18  C   UNL     1       4.946  33.933  66.410  1.00  0.00     0.352 A 
HETATM   19  C   UNL     1       7.577  32.826  62.964  1.00  0.00     0.017 A 
ENDBRANCH   9  11
BRANCH   1  20
HETATM   20  C   UNL     1       8.351  30.545  58.288  1.00  0.00    -0.025 A 
HETATM   21  C   UNL     1       8.287  29.219  57.829  1.00  0.00     0.012 A 
HETATM   22  C   UNL     1       9.387  28.624  57.207  1.00  0.00     0.001 A 
HETATM   23  C   UNL     1      10.561  29.349  57.021  1.00  0.00     0.000 A 
HETATM   24  C   UNL     1      10.639  30.670  57.459  1.00  0.00     0.001 A 
HETATM   25  C   UNL     1       9.542  31.263  58.087  1.00  0.00     0.012 A 
ENDBRANCH   1  20
BRANCH   7  26
HETATM   26  N   UNL     1       6.380  30.427  56.048  1.00  0.00    -0.286 NA
HETATM   27  H   UNL     1       6.120  29.446  56.010  1.00  0.00     0.125 HD
HETATM   28  H   UNL     1       7.364  30.557  56.258  1.00  0.00     0.125 HD
ENDBRANCH   7  26
TORSDOF 3
ENDMDL
MODEL 6
REMARK VINA RESULT:      -8.8      9.629     13.053
REMARK  3 active torsions:
REMARK  status: ('A' for Active; 'I' for Inactive)
REMARK    1  A    between atoms: C_4  and  C_5 
REMARK    2  A    between atoms: C_11  and  N_12 
REMARK    3  A    between atoms: C_14  and  C_15 
ROOT
HETATM    1  C   UNL     1       6.529  32.610  62.684  1.00  0.00    -0.006 A 
HETATM    2  C   UNL     1       5.252  32.777  62.052  1.00  0.00     0.063 A 
HETATM    3  C   UNL     1       4.231  33.356  62.813  1.00  0.00     0.165 A 
HETATM    4  N   UNL     1       3.016  33.580  62.338  1.00  0.00    -0.222 NA
HETATM    5  C   UNL     1       2.769  33.226  61.080  1.00  0.00     0.237 A 
HETATM    6  N   UNL     1       3.634  32.652  60.249  1.00  0.00    -0.229 NA
HETATM    7  C   UNL     1       4.857  32.426  60.742  1.00  0.00     0.117 A 
HETATM    8  N   UNL     1       4.406  33.719  64.079  1.00  0.00    -0.228 NA
HETATM    9  C   UNL     1       5.593  33.539  64.695  1.00  0.00     0.070 A 
HETATM   10  C   UNL     1       6.674  33.002  64.021  1.00  0.00     0.046 A 
ENDROOT
BRANCH   9  11
HETATM   11  C   UNL     1       5.645  33.945  66.115  1.00  0.00    -0.004 A 
HETATM   12  C   UNL     1       6.869  34.172  66.776  1.00  0.00     0.053 A 
HETATM   13  C   UNL     1       6.851  34.527  68.110  1.00  0.00     0.106 A 
HETATM   14  C   UNL     1       5.678  34.669  68.810  1.00  0.00     0.105 A 
HETATM   15  O   UNL     1       7.947  34.766  68.879  1.00  0.00    -0.323 OA
HETATM   16  O   UNL     1       5.886  35.018  70.108  1.00  0.00    -0.323 OA
HETATM   17  C   UNL     1       4.457  34.460  68.216  1.00  0.00     0.040 A 
HETATM   18  C   UNL     1       7.327  35.058  70.150  1.00  0.00     0.352 A 
HETATM   19  C   UNL     1       4.447  34.092  66.864  1.00  0.00     0.017 A 
ENDBRANCH   9  11
BRANCH   1  20
HETATM   20  C   UNL     1       7.713  32.044  62.020  1.00  0.00    -0.025 A 
HETATM   21  C   UNL     1       8.356  32.733  60.978  1.00  0.00     0.012 A 
HETATM   22  C   UNL     1       9.491  32.200  60.363  1.00  0.00     0.001 A 
HETATM   23  C   UNL     1      10.010  30.980  60.790  1.00  0.00     0.000 A 
HETATM   24  C   UNL     1       9.393  30.290  61.832  1.00  0.00     0.001 A 
HETATM   25  C   UNL     1       8.254  30.818  62.442  1.00  0.00     0.012 A 
ENDBRANCH   1  20
BRANCH   7  26
HETATM   26  N   UNL     1       5.716  31.851  59.809  1.00  0.00    -0.286 NA
HETATM   27  H   UNL     1       5.936  32.553  59.108  1.00  0.00     0.125 HD
HETATM   28  H   UNL     1       5.345  31.001  59.398  1.00  0.00     0.125 HD
ENDBRANCH   7  26
TORSDOF 3
ENDMDL
MODEL 7
REMARK VINA RESULT:      -8.7      3.678      5.867
REMARK  3 active torsions:
REMARK  status: ('A' for Active; 'I' for Inactive)
REMARK    1  A    between atoms: C_4  and  C_5 
REMARK    2  A    between atoms: C_11  and  N_12 
REMARK    3  A    between atoms: C_14  and  C_15 
ROOT
HETATM    1  C   UNL     1       7.342  27.223  55.507  1.00  0.00    -0.006 A 
HETATM    2  C   UNL     1       7.363  25.799  55.675  1.00  0.00     0.063 A 
HETATM    3  C   UNL     1       6.902  25.021  54.608  1.00  0.00     0.165 A 
HETATM    4  N   UNL     1       6.887  23.698  54.633  1.00  0.00    -0.222 NA
HETATM    5  C   UNL     1       7.328  23.095  55.734  1.00  0.00     0.237 A 
HETATM    6  N   UNL     1       7.776  23.704  56.828  1.00  0.00    -0.229 NA
HETATM    7  C   UNL     1       7.781  25.042  56.792  1.00  0.00     0.117 A 
HETATM    8  N   UNL     1       6.435  25.559  53.485  1.00  0.00    -0.228 NA
HETATM    9  C   UNL     1       6.382  26.898  53.327  1.00  0.00     0.070 A 
HETATM   10  C   UNL     1       6.840  27.753  54.311  1.00  0.00     0.046 A 
ENDROOT
BRANCH   9  11
HETATM   11  C   UNL     1       5.803  27.368  52.052  1.00  0.00    -0.004 A 
HETATM   12  C   UNL     1       5.360  26.467  51.062  1.00  0.00     0.053 A 
HETATM   13  C   UNL     1       4.849  26.970  49.883  1.00  0.00     0.106 A 
HETATM   14  C   UNL     1       4.754  28.320  49.646  1.00  0.00     0.105 A 
HETATM   15  O   UNL     1       4.397  26.227  48.837  1.00  0.00    -0.323 OA
HETATM   16  O   UNL     1       4.228  28.598  48.424  1.00  0.00    -0.323 OA
HETATM   17  C   UNL     1       5.169  29.242  50.576  1.00  0.00     0.040 A 
HETATM   18  C   UNL     1       4.022  27.267  47.908  1.00  0.00     0.352 A 
HETATM   19  C   UNL     1       5.699  28.759  51.779  1.00  0.00     0.017 A 
ENDBRANCH   9  11
BRANCH   1  20
HETATM   20  C   UNL     1       7.815  28.182  56.518  1.00  0.00    -0.025 A 
HETATM   21  C   UNL     1       9.162  28.579  56.564  1.00  0.00     0.012 A 
HETATM   22  C   UNL     1       9.602  29.504  57.513  1.00  0.00     0.001 A 
HETATM   23  C   UNL     1       8.701  30.057  58.420  1.00  0.00     0.000 A 
HETATM   24  C   UNL     1       7.359  29.684  58.381  1.00  0.00     0.001 A 
HETATM   25  C   UNL     1       6.919  28.754  57.436  1.00  0.00     0.012 A 
ENDBRANCH   1  20
BRANCH   7  26
HETATM   26  N   UNL     1       8.289  25.610  57.957  1.00  0.00    -0.286 NA
HETATM   27  H   UNL     1       7.847  26.515  58.086  1.00  0.00     0.125 HD
HETATM   28  H   UNL     1       9.302  25.672  57.961  1.00  0.00     0.125 HD
ENDBRANCH   7  26
TORSDOF 3
ENDMDL
MODEL 8
REMARK VINA RESULT:      -8.7      3.997      7.572
REMARK  3 active torsions:
REMARK  status: ('A' for Active; 'I' for Inactive)
REMARK    1  A    between atoms: C_4  and  C_5 
REMARK    2  A    between atoms: C_11  and  N_12 
REMARK    3  A    between atoms: C_14  and  C_15 
ROOT
HETATM    1  C   UNL     1       6.655  27.216  54.907  1.00  0.00    -0.006 A 
HETATM    2  C   UNL     1       7.015  25.891  55.324  1.00  0.00     0.063 A 
HETATM    3  C   UNL     1       7.826  25.773  56.456  1.00  0.00     0.165 A 
HETATM    4  N   UNL     1       8.211  24.607  56.950  1.00  0.00    -0.222 NA
HETATM    5  C   UNL     1       7.804  23.506  56.325  1.00  0.00     0.237 A 
HETATM    6  N   UNL     1       7.049  23.467  55.231  1.00  0.00    -0.229 NA
HETATM    7  C   UNL     1       6.671  24.652  54.739  1.00  0.00     0.117 A 
HETATM    8  N   UNL     1       8.279  26.833  57.120  1.00  0.00    -0.228 NA
HETATM    9  C   UNL     1       7.973  28.085  56.721  1.00  0.00     0.070 A 
HETATM   10  C   UNL     1       7.155  28.307  55.629  1.00  0.00     0.046 A 
ENDROOT
BRANCH   9  11
HETATM   11  C   UNL     1       8.574  29.174  57.517  1.00  0.00    -0.004 A 
HETATM   12  C   UNL     1       7.942  29.685  58.668  1.00  0.00     0.053 A 
HETATM   13  C   UNL     1       8.544  30.719  59.357  1.00  0.00     0.106 A 
HETATM   14  C   UNL     1       9.741  31.262  58.956  1.00  0.00     0.105 A 
HETATM   15  O   UNL     1       8.049  31.320  60.472  1.00  0.00    -0.323 OA
HETATM   16  O   UNL     1      10.153  32.271  59.770  1.00  0.00    -0.323 OA
HETATM   17  C   UNL     1      10.400  30.803  57.842  1.00  0.00     0.040 A 
HETATM   18  C   UNL     1       9.066  32.316  60.717  1.00  0.00     0.352 A 
HETATM   19  C   UNL     1       9.807  29.758  57.121  1.00  0.00     0.017 A 
ENDBRANCH   9  11
BRANCH   1  20
HETATM   20  C   UNL     1       5.789  27.515  53.755  1.00  0.00    -0.025 A 
HETATM   21  C   UNL     1       6.300  27.518  52.447  1.00  0.00     0.012 A 
HETATM   22  C   UNL     1       5.470  27.783  51.356  1.00  0.00     0.001 A 
HETATM   23  C   UNL     1       4.115  28.035  51.555  1.00  0.00     0.000 A 
HETATM   24  C   UNL     1       3.588  28.024  52.845  1.00  0.00     0.001 A 
HETATM   25  C   UNL     1       4.419  27.765  53.936  1.00  0.00     0.012 A 
ENDBRANCH   1  20
BRANCH   7  26
HETATM   26  N   UNL     1       5.859  24.533  53.613  1.00  0.00    -0.286 NA
HETATM   27  H   UNL     1       5.678  23.545  53.458  1.00  0.00     0.125 HD
HETATM   28  H   UNL     1       6.247  24.986  52.793  1.00  0.00     0.125 HD
ENDBRANCH   7  26
TORSDOF 3
ENDMDL
MODEL 9
REMARK VINA RESULT:      -8.6      2.054      3.149
REMARK  3 active torsions:
REMARK  status: ('A' for Active; 'I' for Inactive)
REMARK    1  A    between atoms: C_4  and  C_5 
REMARK    2  A    between atoms: C_11  and  N_12 
REMARK    3  A    between atoms: C_14  and  C_15 
ROOT
HETATM    1  C   UNL     1       7.201  29.446  57.806  1.00  0.00    -0.006 A 
HETATM    2  C   UNL     1       5.920  29.970  57.431  1.00  0.00     0.063 A 
HETATM    3  C   UNL     1       5.039  29.104  56.775  1.00  0.00     0.165 A 
HETATM    4  N   UNL     1       3.823  29.462  56.395  1.00  0.00    -0.222 NA
HETATM    5  C   UNL     1       3.439  30.710  56.649  1.00  0.00     0.237 A 
HETATM    6  N   UNL     1       4.173  31.644  57.245  1.00  0.00    -0.229 NA
HETATM    7  C   UNL     1       5.402  31.271  57.621  1.00  0.00     0.117 A 
HETATM    8  N   UNL     1       5.365  27.849  56.478  1.00  0.00    -0.228 NA
HETATM    9  C   UNL     1       6.578  27.353  56.798  1.00  0.00     0.070 A 
HETATM   10  C   UNL     1       7.509  28.121  57.473  1.00  0.00     0.046 A 
ENDROOT
BRANCH   9  11
HETATM   11  C   UNL     1       6.832  25.961  56.374  1.00  0.00    -0.004 A 
HETATM   12  C   UNL     1       7.550  25.059  57.185  1.00  0.00     0.053 A 
HETATM   13  C   UNL     1       7.773  23.778  56.723  1.00  0.00     0.106 A 
HETATM   14  C   UNL     1       7.313  23.354  55.500  1.00  0.00     0.105 A 
HETATM   15  O   UNL     1       8.457  22.806  57.385  1.00  0.00    -0.323 OA
HETATM   16  O   UNL     1       7.645  22.062  55.238  1.00  0.00    -0.323 OA
HETATM   17  C   UNL     1       6.607  24.191  54.669  1.00  0.00     0.040 A 
HETATM   18  C   UNL     1       8.387  21.726  56.429  1.00  0.00     0.352 A 
HETATM   19  C   UNL     1       6.373  25.499  55.112  1.00  0.00     0.017 A 
ENDBRANCH   9  11
BRANCH   1  20
HETATM   20  C   UNL     1       8.231  30.213  58.524  1.00  0.00    -0.025 A 
HETATM   21  C   UNL     1       9.298  30.812  57.834  1.00  0.00     0.012 A 
HETATM   22  C   UNL     1      10.263  31.555  58.518  1.00  0.00     0.001 A 
HETATM   23  C   UNL     1      10.168  31.723  59.897  1.00  0.00     0.000 A 
HETATM   24  C   UNL     1       9.109  31.146  60.595  1.00  0.00     0.001 A 
HETATM   25  C   UNL     1       8.148  30.397  59.914  1.00  0.00     0.012 A 
ENDBRANCH   1  20
BRANCH   7  26
HETATM   26  N   UNL     1       6.101  32.289  58.264  1.00  0.00    -0.286 NA
HETATM   27  H   UNL     1       6.566  32.849  57.555  1.00  0.00     0.125 HD
HETATM   28  H   UNL     1       6.747  31.946  58.966  1.00  0.00     0.125 HD
ENDBRANCH   7  26
TORSDOF 3
ENDMDL
MODEL 10
REMARK VINA RESULT:      -8.5      6.256      9.797
REMARK  3 active torsions:
REMARK  status: ('A' for Active; 'I' for Inactive)
REMARK    1  A    between atoms: C_4  and  C_5 
REMARK    2  A    between atoms: C_11  and  N_12 
REMARK    3  A    between atoms: C_14  and  C_15 
ROOT
HETATM    1  C   UNL     1       7.175  30.262  57.783  1.00  0.00    -0.006 A 
HETATM    2  C   UNL     1       8.568  30.125  57.472  1.00  0.00     0.063 A 
HETATM    3  C   UNL     1       9.486  30.617  58.406  1.00  0.00     0.165 A 
HETATM    4  N   UNL     1      10.796  30.534  58.243  1.00  0.00    -0.222 NA
HETATM    5  C   UNL     1      11.246  29.960  57.130  1.00  0.00     0.237 A 
HETATM    6  N   UNL     1      10.494  29.467  56.150  1.00  0.00    -0.229 NA
HETATM    7  C   UNL     1       9.171  29.561  56.325  1.00  0.00     0.117 A 
HETATM    8  N   UNL     1       9.104  31.214  59.531  1.00  0.00    -0.228 NA
HETATM    9  C   UNL     1       7.796  31.376  59.821  1.00  0.00     0.070 A 
HETATM   10  C   UNL     1       6.812  30.900  58.976  1.00  0.00     0.046 A 
ENDROOT
BRANCH   9  11
HETATM   11  C   UNL     1       7.505  32.093  61.080  1.00  0.00    -0.004 A 
HETATM   12  C   UNL     1       6.435  33.004  61.182  1.00  0.00     0.053 A 
HETATM   13  C   UNL     1       6.229  33.659  62.380  1.00  0.00     0.106 A 
HETATM   14  C   UNL     1       7.031  33.447  63.474  1.00  0.00     0.105 A 
HETATM   15  O   UNL     1       5.249  34.571  62.624  1.00  0.00    -0.323 OA
HETATM   16  O   UNL     1       6.657  34.194  64.546  1.00  0.00    -0.323 OA
HETATM   17  C   UNL     1       8.088  32.570  63.430  1.00  0.00     0.040 A 
HETATM   18  C   UNL     1       5.539  34.919  63.995  1.00  0.00     0.352 A 
HETATM   19  C   UNL     1       8.324  31.897  62.224  1.00  0.00     0.017 A 
ENDBRANCH   9  11
BRANCH   1  20
HETATM   20  C   UNL     1       6.083  29.777  56.924  1.00  0.00    -0.025 A 
HETATM   21  C   UNL     1       5.597  28.464  57.045  1.00  0.00     0.012 A 
HETATM   22  C   UNL     1       4.548  28.014  56.240  1.00  0.00     0.001 A 
HETATM   23  C   UNL     1       3.960  28.872  55.314  1.00  0.00     0.000 A 
HETATM   24  C   UNL     1       4.421  30.181  55.189  1.00  0.00     0.001 A 
HETATM   25  C   UNL     1       5.474  30.630  55.989  1.00  0.00     0.012 A 
ENDBRANCH   1  20
BRANCH   7  26
HETATM   26  N   UNL     1       8.448  28.999  55.275  1.00  0.00    -0.286 NA
HETATM   27  H   UNL     1       8.530  29.615  54.471  1.00  0.00     0.125 HD
HETATM   28  H   UNL     1       7.482  28.807  55.516  1.00  0.00     0.125 HD
ENDBRANCH   7  26
TORSDOF 3
ENDMDL
