MODEL 1
REMARK VINA RESULT:      -8.9      0.000      0.000
REMARK  5 active torsions:
REMARK  status: ('A' for Active; 'I' for Inactive)
REMARK    1  A    between atoms: C_8  and  C_9 
REMARK       I    between atoms: N_10  and  C_11 
REMARK       I    between atoms: C_11  and  N_12 
REMARK    2  A    between atoms: N_12  and  C_13 
REMARK    3  A    between atoms: C_15  and  O_16 
REMARK    4  A    between atoms: O_16  and  C_17 
REMARK    5  A    between atoms: C_17  and  C_18 
ROOT
HETATM    1  C   UNL     1       6.139  25.482  54.683  1.00  0.00     0.126 C 
HETATM    2  N   UNL     1       6.674  26.839  54.694  1.00  0.00    -0.325 N 
HETATM    3  C   UNL     1       7.405  27.306  55.777  1.00  0.00     0.323 C 
HETATM    4  N   UNL     1       8.057  28.489  55.491  1.00  0.00    -0.309 N 
HETATM    5  O   UNL     1       7.488  26.683  56.831  1.00  0.00    -0.247 OA
HETATM    6  C   UNL     1       5.893  27.717  53.831  1.00  0.00     0.128 C 
HETATM    7  C   UNL     1       4.610  26.945  53.569  1.00  0.00     0.022 C 
HETATM    8  C   UNL     1       5.083  25.499  53.570  1.00  0.00     0.032 C 
HETATM    9  H   UNL     1       8.220  28.631  54.506  1.00  0.00     0.170 HD
ENDROOT
BRANCH   4  10
HETATM   10  C   UNL     1       8.852  29.242  56.373  1.00  0.00     0.039 A 
HETATM   11  C   UNL     1       8.218  29.825  57.476  1.00  0.00     0.066 A 
HETATM   12  C   UNL     1       8.933  30.622  58.374  1.00  0.00     0.071 A 
HETATM   13  C   UNL     1      10.309  30.773  58.215  1.00  0.00     0.037 A 
HETATM   14  C   UNL     1      10.952  30.172  57.131  1.00  0.00     0.005 A 
HETATM   15  C   UNL     1      10.225  29.419  56.207  1.00  0.00     0.030 A 
BRANCH  12  16
HETATM   16  O   UNL     1       8.177  31.193  59.361  1.00  0.00    -0.347 OA
BRANCH  16  17
HETATM   17  C   UNL     1       8.852  32.108  60.227  1.00  0.00     0.208 C 
BRANCH  17  18
HETATM   18  C   UNL     1       8.854  31.531  61.624  1.00  0.00    -0.069 C 
HETATM   19  C   UNL     1       8.177  32.350  62.686  1.00  0.00     0.044 C 
HETATM   20  C   UNL     1       9.422  30.346  61.906  1.00  0.00     0.016 C 
ENDBRANCH  17  18
ENDBRANCH  16  17
ENDBRANCH  12  16
ENDBRANCH   4  10
BRANCH   1  21
HETATM   21  C   UNL     1       7.204  24.456  54.427  1.00  0.00     0.014 A 
HETATM   22  C   UNL     1       7.857  24.234  53.225  1.00  0.00     0.034 A 
HETATM   23  C   UNL     1       7.719  24.872  51.896  1.00  0.00     0.070 C 
HETATM   24  N   UNL     1       8.740  23.217  53.451  1.00  0.00    -0.282 N 
HETATM   25  H   UNL     1       9.372  22.777  52.791  1.00  0.00     0.189 HD
HETATM   26  N   UNL     1       8.756  22.790  54.717  1.00  0.00    -0.179 NA
HETATM   27  C   UNL     1       7.811  23.519  55.321  1.00  0.00     0.061 A 
HETATM   28  C   UNL     1       7.532  23.282  56.761  1.00  0.00     0.073 C 
ENDBRANCH   1  21
TORSDOF 5
ENDMDL
MODEL 2
REMARK VINA RESULT:      -8.7      2.379      8.516
REMARK  5 active torsions:
REMARK  status: ('A' for Active; 'I' for Inactive)
REMARK    1  A    between atoms: C_8  and  C_9 
REMARK       I    between atoms: N_10  and  C_11 
REMARK       I    between atoms: C_11  and  N_12 
REMARK    2  A    between atoms: N_12  and  C_13 
REMARK    3  A    between atoms: C_15  and  O_16 
REMARK    4  A    between atoms: O_16  and  C_17 
REMARK    5  A    between atoms: C_17  and  C_18 
ROOT
HETATM    1  C   UNL     1       9.017  30.029  58.512  1.00  0.00     0.126 C 
HETATM    2  N   UNL     1       8.877  29.335  57.236  1.00  0.00    -0.325 N 
HETATM    3  C   UNL     1       8.190  28.132  57.154  1.00  0.00     0.323 C 
HETATM    4  N   UNL     1       7.923  27.777  55.846  1.00  0.00    -0.309 N 
HETATM    5  O   UNL     1       7.829  27.513  58.149  1.00  0.00    -0.247 OA
HETATM    6  C   UNL     1       9.956  29.693  56.324  1.00  0.00     0.128 C 
HETATM    7  C   UNL     1      10.998  30.353  57.212  1.00  0.00     0.022 C 
HETATM    8  C   UNL     1      10.149  31.037  58.273  1.00  0.00     0.032 C 
HETATM    9  H   UNL     1       7.911  28.559  55.211  1.00  0.00     0.170 HD
ENDROOT
BRANCH   4  10
HETATM   10  C   UNL     1       7.276  26.606  55.412  1.00  0.00     0.039 A 
HETATM   11  C   UNL     1       7.950  25.393  55.587  1.00  0.00     0.066 A 
HETATM   12  C   UNL     1       7.390  24.191  55.144  1.00  0.00     0.071 A 
HETATM   13  C   UNL     1       6.110  24.192  54.591  1.00  0.00     0.037 A 
HETATM   14  C   UNL     1       5.422  25.397  54.438  1.00  0.00     0.005 A 
HETATM   15  C   UNL     1       6.006  26.601  54.835  1.00  0.00     0.030 A 
BRANCH  12  16
HETATM   16  O   UNL     1       8.188  23.092  55.307  1.00  0.00    -0.347 OA
BRANCH  16  17
HETATM   17  C   UNL     1       8.745  22.531  54.116  1.00  0.00     0.208 C 
BRANCH  17  18
HETATM   18  C   UNL     1       8.366  21.070  54.054  1.00  0.00    -0.069 C 
HETATM   19  C   UNL     1       7.987  20.421  55.354  1.00  0.00     0.044 C 
HETATM   20  C   UNL     1       8.361  20.383  52.898  1.00  0.00     0.016 C 
ENDBRANCH  17  18
ENDBRANCH  16  17
ENDBRANCH  12  16
ENDBRANCH   4  10
BRANCH   1  21
HETATM   21  C   UNL     1       7.745  30.707  58.930  1.00  0.00     0.014 A 
HETATM   22  C   UNL     1       7.454  31.201  60.193  1.00  0.00     0.034 A 
HETATM   23  C   UNL     1       8.234  31.206  61.452  1.00  0.00     0.070 C 
HETATM   24  N   UNL     1       6.199  31.731  60.116  1.00  0.00    -0.282 N 
HETATM   25  H   UNL     1       5.654  32.163  60.856  1.00  0.00     0.189 HD
HETATM   26  N   UNL     1       5.663  31.673  58.893  1.00  0.00    -0.179 NA
HETATM   27  C   UNL     1       6.583  31.033  58.163  1.00  0.00     0.061 A 
HETATM   28  C   UNL     1       6.299  30.762  56.730  1.00  0.00     0.073 C 
ENDBRANCH   1  21
TORSDOF 5
ENDMDL
MODEL 3
REMARK VINA RESULT:      -8.5      5.984      8.896
REMARK  5 active torsions:
REMARK  status: ('A' for Active; 'I' for Inactive)
REMARK    1  A    between atoms: C_8  and  C_9 
REMARK       I    between atoms: N_10  and  C_11 
REMARK       I    between atoms: C_11  and  N_12 
REMARK    2  A    between atoms: N_12  and  C_13 
REMARK    3  A    between atoms: C_15  and  O_16 
REMARK    4  A    between atoms: O_16  and  C_17 
REMARK    5  A    between atoms: C_17  and  C_18 
ROOT
HETATM    1  C   UNL     1       4.506  28.964  49.101  1.00  0.00     0.126 C 
HETATM    2  N   UNL     1       4.804  27.610  49.553  1.00  0.00    -0.325 N 
HETATM    3  C   UNL     1       5.305  27.381  50.827  1.00  0.00     0.323 C 
HETATM    4  N   UNL     1       5.258  26.044  51.169  1.00  0.00    -0.309 N 
HETATM    5  O   UNL     1       5.683  28.291  51.558  1.00  0.00    -0.247 OA
HETATM    6  C   UNL     1       5.083  26.730  48.425  1.00  0.00     0.128 C 
HETATM    7  C   UNL     1       5.322  27.676  47.259  1.00  0.00     0.022 C 
HETATM    8  C   UNL     1       4.393  28.839  47.575  1.00  0.00     0.032 C 
HETATM    9  H   UNL     1       4.567  25.520  50.656  1.00  0.00     0.170 HD
ENDROOT
BRANCH   4  10
HETATM   10  C   UNL     1       5.716  25.470  52.368  1.00  0.00     0.039 A 
HETATM   11  C   UNL     1       6.873  24.686  52.309  1.00  0.00     0.066 A 
HETATM   12  C   UNL     1       7.366  24.048  53.450  1.00  0.00     0.071 A 
HETATM   13  C   UNL     1       6.744  24.260  54.680  1.00  0.00     0.037 A 
HETATM   14  C   UNL     1       5.604  25.063  54.750  1.00  0.00     0.005 A 
HETATM   15  C   UNL     1       5.084  25.656  53.598  1.00  0.00     0.030 A 
BRANCH  12  16
HETATM   16  O   UNL     1       8.457  23.250  53.237  1.00  0.00    -0.347 OA
BRANCH  16  17
HETATM   17  C   UNL     1       8.907  22.479  54.352  1.00  0.00     0.208 C 
BRANCH  17  18
HETATM   18  C   UNL     1       8.311  21.094  54.247  1.00  0.00    -0.069 C 
HETATM   19  C   UNL     1       8.297  20.474  52.879  1.00  0.00     0.044 C 
HETATM   20  C   UNL     1       7.824  20.444  55.318  1.00  0.00     0.016 C 
ENDBRANCH  17  18
ENDBRANCH  16  17
ENDBRANCH  12  16
ENDBRANCH   4  10
BRANCH   1  21
HETATM   21  C   UNL     1       3.243  29.499  49.711  1.00  0.00     0.014 A 
HETATM   22  C   UNL     1       3.141  30.588  50.564  1.00  0.00     0.034 A 
HETATM   23  C   UNL     1       4.164  31.499  51.125  1.00  0.00     0.070 C 
HETATM   24  N   UNL     1       1.815  30.713  50.866  1.00  0.00    -0.282 N 
HETATM   25  H   UNL     1       1.373  31.390  51.480  1.00  0.00     0.189 HD
HETATM   26  N   UNL     1       1.034  29.829  50.240  1.00  0.00    -0.179 NA
HETATM   27  C   UNL     1       1.890  29.068  49.548  1.00  0.00     0.061 A 
HETATM   28  C   UNL     1       1.356  27.940  48.742  1.00  0.00     0.073 C 
ENDBRANCH   1  21
TORSDOF 5
ENDMDL
MODEL 4
REMARK VINA RESULT:      -8.4      5.825      8.750
REMARK  5 active torsions:
REMARK  status: ('A' for Active; 'I' for Inactive)
REMARK    1  A    between atoms: C_8  and  C_9 
REMARK       I    between atoms: N_10  and  C_11 
REMARK       I    between atoms: C_11  and  N_12 
REMARK    2  A    between atoms: N_12  and  C_13 
REMARK    3  A    between atoms: C_15  and  O_16 
REMARK    4  A    between atoms: O_16  and  C_17 
REMARK    5  A    between atoms: C_17  and  C_18 
ROOT
HETATM    1  C   UNL     1       4.487  28.730  49.213  1.00  0.00     0.126 C 
HETATM    2  N   UNL     1       4.465  27.430  49.875  1.00  0.00    -0.325 N 
HETATM    3  C   UNL     1       5.263  27.185  50.985  1.00  0.00     0.323 C 
HETATM    4  N   UNL     1       4.905  26.020  51.632  1.00  0.00    -0.309 N 
HETATM    5  O   UNL     1       6.137  27.965  51.350  1.00  0.00    -0.247 OA
HETATM    6  C   UNL     1       4.048  26.380  48.955  1.00  0.00     0.128 C 
HETATM    7  C   UNL     1       4.173  27.013  47.578  1.00  0.00     0.022 C 
HETATM    8  C   UNL     1       3.834  28.471  47.849  1.00  0.00     0.032 C 
HETATM    9  H   UNL     1       3.951  25.741  51.463  1.00  0.00     0.170 HD
ENDROOT
BRANCH   4  10
HETATM   10  C   UNL     1       5.528  25.466  52.765  1.00  0.00     0.039 A 
HETATM   11  C   UNL     1       6.658  24.668  52.556  1.00  0.00     0.066 A 
HETATM   12  C   UNL     1       7.307  24.049  53.628  1.00  0.00     0.071 A 
HETATM   13  C   UNL     1       6.871  24.293  54.929  1.00  0.00     0.037 A 
HETATM   14  C   UNL     1       5.760  25.111  55.146  1.00  0.00     0.005 A 
HETATM   15  C   UNL     1       5.083  25.685  54.069  1.00  0.00     0.030 A 
BRANCH  12  16
HETATM   16  O   UNL     1       8.348  23.235  53.276  1.00  0.00    -0.347 OA
BRANCH  16  17
HETATM   17  C   UNL     1       8.908  22.435  54.318  1.00  0.00     0.208 C 
BRANCH  17  18
HETATM   18  C   UNL     1       8.253  21.074  54.281  1.00  0.00    -0.069 C 
HETATM   19  C   UNL     1       8.119  20.433  52.929  1.00  0.00     0.044 C 
HETATM   20  C   UNL     1       7.818  20.460  55.395  1.00  0.00     0.016 C 
ENDBRANCH  17  18
ENDBRANCH  16  17
ENDBRANCH  12  16
ENDBRANCH   4  10
BRANCH   1  21
HETATM   21  C   UNL     1       3.748  29.776  49.996  1.00  0.00     0.014 A 
HETATM   22  C   UNL     1       2.427  29.707  50.415  1.00  0.00     0.034 A 
HETATM   23  C   UNL     1       1.387  28.670  50.228  1.00  0.00     0.070 C 
HETATM   24  N   UNL     1       2.180  30.867  51.091  1.00  0.00    -0.282 N 
HETATM   25  H   UNL     1       1.312  31.170  51.520  1.00  0.00     0.189 HD
HETATM   26  N   UNL     1       3.245  31.668  51.195  1.00  0.00    -0.179 NA
HETATM   27  C   UNL     1       4.203  31.028  50.515  1.00  0.00     0.061 A 
HETATM   28  C   UNL     1       5.542  31.659  50.397  1.00  0.00     0.073 C 
ENDBRANCH   1  21
TORSDOF 5
ENDMDL
MODEL 5
REMARK VINA RESULT:      -7.9      4.557      8.435
REMARK  5 active torsions:
REMARK  status: ('A' for Active; 'I' for Inactive)
REMARK    1  A    between atoms: C_8  and  C_9 
REMARK       I    between atoms: N_10  and  C_11 
REMARK       I    between atoms: C_11  and  N_12 
REMARK    2  A    between atoms: N_12  and  C_13 
REMARK    3  A    between atoms: C_15  and  O_16 
REMARK    4  A    between atoms: O_16  and  C_17 
REMARK    5  A    between atoms: C_17  and  C_18 
ROOT
HETATM    1  C   UNL     1       6.582  24.881  54.353  1.00  0.00     0.126 C 
HETATM    2  N   UNL     1       6.641  25.211  52.933  1.00  0.00    -0.325 N 
HETATM    3  C   UNL     1       5.500  25.601  52.246  1.00  0.00     0.323 C 
HETATM    4  N   UNL     1       5.798  26.136  51.008  1.00  0.00    -0.309 N 
HETATM    5  O   UNL     1       4.378  25.520  52.737  1.00  0.00    -0.247 OA
HETATM    6  C   UNL     1       7.762  24.540  52.286  1.00  0.00     0.128 C 
HETATM    7  C   UNL     1       8.185  23.469  53.278  1.00  0.00     0.022 C 
HETATM    8  C   UNL     1       7.887  24.120  54.620  1.00  0.00     0.032 C 
HETATM    9  H   UNL     1       6.735  26.502  50.942  1.00  0.00     0.170 HD
ENDROOT
BRANCH   4  10
HETATM   10  C   UNL     1       4.877  26.595  50.050  1.00  0.00     0.039 A 
HETATM   11  C   UNL     1       4.706  27.978  49.930  1.00  0.00     0.066 A 
HETATM   12  C   UNL     1       3.779  28.510  49.030  1.00  0.00     0.071 A 
HETATM   13  C   UNL     1       3.073  27.656  48.184  1.00  0.00     0.037 A 
HETATM   14  C   UNL     1       3.260  26.275  48.280  1.00  0.00     0.005 A 
HETATM   15  C   UNL     1       4.149  25.745  49.218  1.00  0.00     0.030 A 
BRANCH  12  16
HETATM   16  O   UNL     1       3.656  29.872  49.070  1.00  0.00    -0.347 OA
BRANCH  16  17
HETATM   17  C   UNL     1       4.731  30.588  49.681  1.00  0.00     0.208 C 
BRANCH  17  18
HETATM   18  C   UNL     1       5.280  31.575  48.677  1.00  0.00    -0.069 C 
HETATM   19  C   UNL     1       4.668  31.544  47.306  1.00  0.00     0.044 C 
HETATM   20  C   UNL     1       6.259  32.441  48.991  1.00  0.00     0.016 C 
ENDBRANCH  17  18
ENDBRANCH  16  17
ENDBRANCH  12  16
ENDBRANCH   4  10
BRANCH   1  21
HETATM   21  C   UNL     1       6.463  26.105  55.213  1.00  0.00     0.014 A 
HETATM   22  C   UNL     1       5.759  26.206  56.404  1.00  0.00     0.034 A 
HETATM   23  C   UNL     1       4.942  25.223  57.152  1.00  0.00     0.070 C 
HETATM   24  N   UNL     1       5.927  27.489  56.840  1.00  0.00    -0.282 N 
HETATM   25  H   UNL     1       5.538  27.926  57.669  1.00  0.00     0.189 HD
HETATM   26  N   UNL     1       6.726  28.223  56.060  1.00  0.00    -0.179 NA
HETATM   27  C   UNL     1       7.044  27.401  55.052  1.00  0.00     0.061 A 
HETATM   28  C   UNL     1       7.915  27.908  53.961  1.00  0.00     0.073 C 
ENDBRANCH   1  21
TORSDOF 5
ENDMDL
MODEL 6
REMARK VINA RESULT:      -7.5      4.076      7.308
REMARK  5 active torsions:
REMARK  status: ('A' for Active; 'I' for Inactive)
REMARK    1  A    between atoms: C_8  and  C_9 
REMARK       I    between atoms: N_10  and  C_11 
REMARK       I    between atoms: C_11  and  N_12 
REMARK    2  A    between atoms: N_12  and  C_13 
REMARK    3  A    between atoms: C_15  and  O_16 
REMARK    4  A    between atoms: O_16  and  C_17 
REMARK    5  A    between atoms: C_17  and  C_18 
ROOT
HETATM    1  C   UNL     1       4.670  28.681  49.243  1.00  0.00     0.126 C 
HETATM    2  N   UNL     1       4.576  27.400  49.933  1.00  0.00    -0.325 N 
HETATM    3  C   UNL     1       5.318  27.155  51.080  1.00  0.00     0.323 C 
HETATM    4  N   UNL     1       4.893  26.018  51.739  1.00  0.00    -0.309 N 
HETATM    5  O   UNL     1       6.203  27.913  51.464  1.00  0.00    -0.247 OA
HETATM    6  C   UNL     1       4.161  26.342  49.020  1.00  0.00     0.128 C 
HETATM    7  C   UNL     1       4.364  26.937  47.636  1.00  0.00     0.022 C 
HETATM    8  C   UNL     1       4.065  28.412  47.858  1.00  0.00     0.032 C 
HETATM    9  H   UNL     1       3.938  25.768  51.535  1.00  0.00     0.170 HD
ENDROOT
BRANCH   4  10
HETATM   10  C   UNL     1       5.448  25.471  52.909  1.00  0.00     0.039 A 
HETATM   11  C   UNL     1       5.120  26.079  54.125  1.00  0.00     0.066 A 
HETATM   12  C   UNL     1       5.665  25.618  55.327  1.00  0.00     0.071 A 
HETATM   13  C   UNL     1       6.482  24.489  55.323  1.00  0.00     0.037 A 
HETATM   14  C   UNL     1       6.792  23.861  54.115  1.00  0.00     0.005 A 
HETATM   15  C   UNL     1       6.287  24.356  52.911  1.00  0.00     0.030 A 
BRANCH  12  16
HETATM   16  O   UNL     1       5.324  26.351  56.430  1.00  0.00    -0.347 OA
BRANCH  16  17
HETATM   17  C   UNL     1       5.539  27.761  56.346  1.00  0.00     0.208 C 
BRANCH  17  18
HETATM   18  C   UNL     1       7.012  28.034  56.546  1.00  0.00    -0.069 C 
HETATM   19  C   UNL     1       7.753  28.597  55.367  1.00  0.00     0.044 C 
HETATM   20  C   UNL     1       7.630  27.794  57.715  1.00  0.00     0.016 C 
ENDBRANCH  17  18
ENDBRANCH  16  17
ENDBRANCH  12  16
ENDBRANCH   4  10
BRANCH   1  21
HETATM   21  C   UNL     1       3.936  29.771  49.970  1.00  0.00     0.014 A 
HETATM   22  C   UNL     1       4.457  30.998  50.352  1.00  0.00     0.034 A 
HETATM   23  C   UNL     1       5.807  31.586  50.198  1.00  0.00     0.070 C 
HETATM   24  N   UNL     1       3.444  31.665  50.978  1.00  0.00    -0.282 N 
HETATM   25  H   UNL     1       3.468  32.585  51.404  1.00  0.00     0.189 HD
HETATM   26  N   UNL     1       2.286  30.998  50.990  1.00  0.00    -0.179 NA
HETATM   27  C   UNL     1       2.574  29.832  50.400  1.00  0.00     0.061 A 
HETATM   28  C   UNL     1       1.503  28.812  50.267  1.00  0.00     0.073 C 
ENDBRANCH   1  21
TORSDOF 5
ENDMDL
MODEL 7
REMARK VINA RESULT:      -7.5      4.420      7.520
REMARK  5 active torsions:
REMARK  status: ('A' for Active; 'I' for Inactive)
REMARK    1  A    between atoms: C_8  and  C_9 
REMARK       I    between atoms: N_10  and  C_11 
REMARK       I    between atoms: C_11  and  N_12 
REMARK    2  A    between atoms: N_12  and  C_13 
REMARK    3  A    between atoms: C_15  and  O_16 
REMARK    4  A    between atoms: O_16  and  C_17 
REMARK    5  A    between atoms: C_17  and  C_18 
ROOT
HETATM    1  C   UNL     1       3.301  28.077  50.083  1.00  0.00     0.126 C 
HETATM    2  N   UNL     1       4.021  28.488  51.283  1.00  0.00    -0.325 N 
HETATM    3  C   UNL     1       4.628  27.547  52.104  1.00  0.00     0.323 C 
HETATM    4  N   UNL     1       5.484  28.131  53.016  1.00  0.00    -0.309 N 
HETATM    5  O   UNL     1       4.447  26.341  51.967  1.00  0.00    -0.247 OA
HETATM    6  C   UNL     1       3.528  29.766  51.778  1.00  0.00     0.128 C 
HETATM    7  C   UNL     1       2.204  29.965  51.057  1.00  0.00     0.022 C 
HETATM    8  C   UNL     1       2.454  29.301  49.711  1.00  0.00     0.032 C 
HETATM    9  H   UNL     1       5.824  29.036  52.728  1.00  0.00     0.170 HD
ENDROOT
BRANCH   4  10
HETATM   10  C   UNL     1       6.228  27.470  54.010  1.00  0.00     0.039 A 
HETATM   11  C   UNL     1       6.752  26.212  53.695  1.00  0.00     0.066 A 
HETATM   12  C   UNL     1       7.467  25.475  54.643  1.00  0.00     0.071 A 
HETATM   13  C   UNL     1       7.730  26.034  55.892  1.00  0.00     0.037 A 
HETATM   14  C   UNL     1       7.232  27.301  56.203  1.00  0.00     0.005 A 
HETATM   15  C   UNL     1       6.474  28.012  55.271  1.00  0.00     0.030 A 
BRANCH  12  16
HETATM   16  O   UNL     1       7.854  24.230  54.229  1.00  0.00    -0.347 OA
BRANCH  16  17
HETATM   17  C   UNL     1       7.879  23.209  55.229  1.00  0.00     0.208 C 
BRANCH  17  18
HETATM   18  C   UNL     1       7.899  21.865  54.539  1.00  0.00    -0.069 C 
HETATM   19  C   UNL     1       8.000  21.883  53.041  1.00  0.00     0.044 C 
HETATM   20  C   UNL     1       7.836  20.710  55.225  1.00  0.00     0.016 C 
ENDBRANCH  17  18
ENDBRANCH  16  17
ENDBRANCH  12  16
ENDBRANCH   4  10
BRANCH   1  21
HETATM   21  C   UNL     1       4.231  27.684  48.972  1.00  0.00     0.014 A 
HETATM   22  C   UNL     1       5.366  28.373  48.569  1.00  0.00     0.034 A 
HETATM   23  C   UNL     1       5.976  29.633  49.050  1.00  0.00     0.070 C 
HETATM   24  N   UNL     1       5.900  27.658  47.536  1.00  0.00    -0.282 N 
HETATM   25  H   UNL     1       6.723  27.875  46.983  1.00  0.00     0.189 HD
HETATM   26  N   UNL     1       5.239  26.529  47.263  1.00  0.00    -0.179 NA
HETATM   27  C   UNL     1       4.207  26.540  48.115  1.00  0.00     0.061 A 
HETATM   28  C   UNL     1       3.228  25.425  48.068  1.00  0.00     0.073 C 
ENDBRANCH   1  21
TORSDOF 5
ENDMDL
MODEL 8
REMARK VINA RESULT:      -7.4      3.389      8.613
REMARK  5 active torsions:
REMARK  status: ('A' for Active; 'I' for Inactive)
REMARK    1  A    between atoms: C_8  and  C_9 
REMARK       I    between atoms: N_10  and  C_11 
REMARK       I    between atoms: C_11  and  N_12 
REMARK    2  A    between atoms: N_12  and  C_13 
REMARK    3  A    between atoms: C_15  and  O_16 
REMARK    4  A    between atoms: O_16  and  C_17 
REMARK    5  A    between atoms: C_17  and  C_18 
ROOT
HETATM    1  C   UNL     1       6.162  32.731  59.979  1.00  0.00     0.126 C 
HETATM    2  N   UNL     1       5.262  31.807  59.297  1.00  0.00    -0.325 N 
HETATM    3  C   UNL     1       5.721  31.006  58.260  1.00  0.00     0.323 C 
HETATM    4  N   UNL     1       4.817  30.015  57.934  1.00  0.00    -0.309 N 
HETATM    5  O   UNL     1       6.830  31.154  57.757  1.00  0.00    -0.247 OA
HETATM    6  C   UNL     1       3.878  32.253  59.398  1.00  0.00     0.128 C 
HETATM    7  C   UNL     1       3.980  33.701  59.850  1.00  0.00     0.022 C 
HETATM    8  C   UNL     1       5.225  33.692  60.724  1.00  0.00     0.032 C 
HETATM    9  H   UNL     1       4.185  29.782  58.684  1.00  0.00     0.170 HD
ENDROOT
BRANCH   4  10
HETATM   10  C   UNL     1       4.955  29.059  56.912  1.00  0.00     0.039 A 
HETATM   11  C   UNL     1       5.768  27.950  57.170  1.00  0.00     0.066 A 
HETATM   12  C   UNL     1       5.987  26.978  56.190  1.00  0.00     0.071 A 
HETATM   13  C   UNL     1       5.324  27.072  54.968  1.00  0.00     0.037 A 
HETATM   14  C   UNL     1       4.490  28.163  54.714  1.00  0.00     0.005 A 
HETATM   15  C   UNL     1       4.315  29.159  55.677  1.00  0.00     0.030 A 
BRANCH  12  16
HETATM   16  O   UNL     1       6.864  25.990  56.548  1.00  0.00    -0.347 OA
BRANCH  16  17
HETATM   17  C   UNL     1       6.538  24.667  56.118  1.00  0.00     0.208 C 
BRANCH  17  18
HETATM   18  C   UNL     1       7.653  24.162  55.233  1.00  0.00    -0.069 C 
HETATM   19  C   UNL     1       8.824  23.528  55.930  1.00  0.00     0.044 C 
HETATM   20  C   UNL     1       7.605  24.266  53.894  1.00  0.00     0.016 C 
ENDBRANCH  17  18
ENDBRANCH  16  17
ENDBRANCH  12  16
ENDBRANCH   4  10
BRANCH   1  21
HETATM   21  C   UNL     1       7.094  32.022  60.918  1.00  0.00     0.014 A 
HETATM   22  C   UNL     1       6.763  31.482  62.152  1.00  0.00     0.034 A 
HETATM   23  C   UNL     1       5.486  31.444  62.900  1.00  0.00     0.070 C 
HETATM   24  N   UNL     1       7.911  30.937  62.651  1.00  0.00    -0.282 N 
HETATM   25  H   UNL     1       8.049  30.474  63.543  1.00  0.00     0.189 HD
HETATM   26  N   UNL     1       8.956  31.030  61.823  1.00  0.00    -0.179 NA
HETATM   27  C   UNL     1       8.481  31.707  60.772  1.00  0.00     0.061 A 
HETATM   28  C   UNL     1       9.400  32.022  59.648  1.00  0.00     0.073 C 
ENDBRANCH   1  21
TORSDOF 5
ENDMDL
MODEL 9
REMARK VINA RESULT:      -7.4      3.585      8.738
REMARK  5 active torsions:
REMARK  status: ('A' for Active; 'I' for Inactive)
REMARK    1  A    between atoms: C_8  and  C_9 
REMARK       I    between atoms: N_10  and  C_11 
REMARK       I    between atoms: C_11  and  N_12 
REMARK    2  A    between atoms: N_12  and  C_13 
REMARK    3  A    between atoms: C_15  and  O_16 
REMARK    4  A    between atoms: O_16  and  C_17 
REMARK    5  A    between atoms: C_17  and  C_18 
ROOT
HETATM    1  C   UNL     1       5.812  32.765  59.316  1.00  0.00     0.126 C 
HETATM    2  N   UNL     1       5.420  31.589  58.548  1.00  0.00    -0.325 N 
HETATM    3  C   UNL     1       6.369  30.670  58.122  1.00  0.00     0.323 C 
HETATM    4  N   UNL     1       5.791  29.502  57.665  1.00  0.00    -0.309 N 
HETATM    5  O   UNL     1       7.574  30.882  58.210  1.00  0.00    -0.247 OA
HETATM    6  C   UNL     1       4.170  31.821  57.835  1.00  0.00     0.128 C 
HETATM    7  C   UNL     1       3.984  33.329  57.881  1.00  0.00     0.022 C 
HETATM    8  C   UNL     1       4.599  33.701  59.222  1.00  0.00     0.032 C 
HETATM    9  H   UNL     1       4.869  29.336  58.038  1.00  0.00     0.170 HD
ENDROOT
BRANCH   4  10
HETATM   10  C   UNL     1       6.462  28.387  57.134  1.00  0.00     0.039 A 
HETATM   11  C   UNL     1       6.250  28.087  55.784  1.00  0.00     0.066 A 
HETATM   12  C   UNL     1       6.849  26.970  55.195  1.00  0.00     0.071 A 
HETATM   13  C   UNL     1       7.733  26.191  55.940  1.00  0.00     0.037 A 
HETATM   14  C   UNL     1       7.970  26.501  57.280  1.00  0.00     0.005 A 
HETATM   15  C   UNL     1       7.329  27.587  57.879  1.00  0.00     0.030 A 
BRANCH  12  16
HETATM   16  O   UNL     1       6.495  26.749  53.892  1.00  0.00    -0.347 OA
BRANCH  16  17
HETATM   17  C   UNL     1       7.408  25.978  53.109  1.00  0.00     0.208 C 
BRANCH  17  18
HETATM   18  C   UNL     1       6.770  24.642  52.808  1.00  0.00    -0.069 C 
HETATM   19  C   UNL     1       5.310  24.663  52.453  1.00  0.00     0.044 C 
HETATM   20  C   UNL     1       7.467  23.493  52.847  1.00  0.00     0.016 C 
ENDBRANCH  17  18
ENDBRANCH  16  17
ENDBRANCH  12  16
ENDBRANCH   4  10
BRANCH   1  21
HETATM   21  C   UNL     1       6.146  32.426  60.739  1.00  0.00     0.014 A 
HETATM   22  C   UNL     1       7.416  32.366  61.293  1.00  0.00     0.034 A 
HETATM   23  C   UNL     1       8.758  32.582  60.705  1.00  0.00     0.070 C 
HETATM   24  N   UNL     1       7.246  32.026  62.604  1.00  0.00    -0.282 N 
HETATM   25  H   UNL     1       7.959  31.873  63.310  1.00  0.00     0.189 HD
HETATM   26  N   UNL     1       5.966  31.909  62.969  1.00  0.00    -0.179 NA
HETATM   27  C   UNL     1       5.283  32.129  61.840  1.00  0.00     0.061 A 
HETATM   28  C   UNL     1       3.800  32.046  61.872  1.00  0.00     0.073 C 
ENDBRANCH   1  21
TORSDOF 5
ENDMDL
MODEL 10
REMARK VINA RESULT:      -7.3      4.488      7.897
REMARK  5 active torsions:
REMARK  status: ('A' for Active; 'I' for Inactive)
REMARK    1  A    between atoms: C_8  and  C_9 
REMARK       I    between atoms: N_10  and  C_11 
REMARK       I    between atoms: C_11  and  N_12 
REMARK    2  A    between atoms: N_12  and  C_13 
REMARK    3  A    between atoms: C_15  and  O_16 
REMARK    4  A    between atoms: O_16  and  C_17 
REMARK    5  A    between atoms: C_17  and  C_18 
ROOT
HETATM    1  C   UNL     1       3.900  28.933  48.713  1.00  0.00     0.126 C 
HETATM    2  N   UNL     1       4.043  27.646  49.384  1.00  0.00    -0.325 N 
HETATM    3  C   UNL     1       5.093  27.417  50.263  1.00  0.00     0.323 C 
HETATM    4  N   UNL     1       4.908  26.265  51.001  1.00  0.00    -0.309 N 
HETATM    5  O   UNL     1       6.031  28.198  50.384  1.00  0.00    -0.247 OA
HETATM    6  C   UNL     1       3.409  26.581  48.617  1.00  0.00     0.128 C 
HETATM    7  C   UNL     1       3.186  27.189  47.241  1.00  0.00     0.022 C 
HETATM    8  C   UNL     1       2.926  28.654  47.560  1.00  0.00     0.032 C 
HETATM    9  H   UNL     1       3.942  25.988  51.081  1.00  0.00     0.170 HD
ENDROOT
BRANCH   4  10
HETATM   10  C   UNL     1       5.793  25.728  51.953  1.00  0.00     0.039 A 
HETATM   11  C   UNL     1       5.440  25.842  53.301  1.00  0.00     0.066 A 
HETATM   12  C   UNL     1       6.287  25.371  54.307  1.00  0.00     0.071 A 
HETATM   13  C   UNL     1       7.462  24.706  53.960  1.00  0.00     0.037 A 
HETATM   14  C   UNL     1       7.808  24.564  52.615  1.00  0.00     0.005 A 
HETATM   15  C   UNL     1       6.983  25.084  51.615  1.00  0.00     0.030 A 
BRANCH  12  16
HETATM   16  O   UNL     1       5.857  25.616  55.582  1.00  0.00    -0.347 OA
BRANCH  16  17
HETATM   17  C   UNL     1       6.397  24.778  56.606  1.00  0.00     0.208 C 
BRANCH  17  18
HETATM   18  C   UNL     1       7.553  25.501  57.257  1.00  0.00    -0.069 C 
HETATM   19  C   UNL     1       8.797  24.693  57.497  1.00  0.00     0.044 C 
HETATM   20  C   UNL     1       7.482  26.799  57.598  1.00  0.00     0.016 C 
ENDBRANCH  17  18
ENDBRANCH  16  17
ENDBRANCH  12  16
ENDBRANCH   4  10
BRANCH   1  21
HETATM   21  C   UNL     1       3.380  29.997  49.637  1.00  0.00     0.014 A 
HETATM   22  C   UNL     1       2.239  29.918  50.421  1.00  0.00     0.034 A 
HETATM   23  C   UNL     1       1.226  28.850  50.581  1.00  0.00     0.070 C 
HETATM   24  N   UNL     1       2.156  31.102  51.095  1.00  0.00    -0.282 N 
HETATM   25  H   UNL     1       1.438  31.405  51.745  1.00  0.00     0.189 HD
HETATM   26  N   UNL     1       3.177  31.930  50.857  1.00  0.00    -0.179 NA
HETATM   27  C   UNL     1       3.921  31.282  49.954  1.00  0.00     0.061 A 
HETATM   28  C   UNL     1       5.147  31.937  49.431  1.00  0.00     0.073 C 
ENDBRANCH   1  21
TORSDOF 5
ENDMDL
