MODEL 1
REMARK VINA RESULT:      -8.4      0.000      0.000
REMARK  9 active torsions:
REMARK  status: ('A' for Active; 'I' for Inactive)
REMARK    1  A    between atoms: C_2  and  O_3 
REMARK    2  A    between atoms: O_3  and  C_4 
REMARK    3  A    between atoms: C_4  and  C_5 
REMARK    4  A    between atoms: C_10  and  N_11 
REMARK       I    between atoms: N_11  and  C_12 
REMARK    5  A    between atoms: C_12  and  C_13 
REMARK    6  A    between atoms: C_13  and  N_14 
REMARK    7  A    between atoms: C_16  and  C_17 
REMARK    8  A    between atoms: C_17  and  C_18 
REMARK    9  A    between atoms: C_18  and  O_19 
ROOT
HETATM    1  C   UNL     1       7.290  26.243  54.449  1.00  0.00     0.137 A 
HETATM    2  N   UNL     1       7.820  25.437  55.423  1.00  0.00    -0.349 N 
HETATM    3  H   UNL     1       8.022  25.740  56.368  1.00  0.00     0.166 HD
HETATM    4  C   UNL     1       8.036  24.171  54.942  1.00  0.00     0.045 A 
HETATM    5  C   UNL     1       7.635  24.155  53.600  1.00  0.00     0.021 A 
HETATM    6  C   UNL     1       7.169  25.480  53.290  1.00  0.00     0.080 A 
HETATM    7  C   UNL     1       8.561  23.057  55.611  1.00  0.00     0.032 A 
HETATM    8  C   UNL     1       8.683  21.865  54.897  1.00  0.00     0.026 A 
HETATM    9  C   UNL     1       8.291  21.803  53.567  1.00  0.00     0.035 A 
HETATM   10 CL   UNL     1       8.444  20.320  52.706  1.00  0.00    -0.084 Cl
HETATM   11  C   UNL     1       7.770  22.927  52.912  1.00  0.00     0.040 A 
ENDROOT
BRANCH   6  12
HETATM   12  N   UNL     1       6.665  26.080  52.134  1.00  0.00    -0.323 N 
HETATM   13  C   UNL     1       5.513  25.783  51.445  1.00  0.00     0.248 C 
HETATM   14  O   UNL     1       4.668  24.945  51.733  1.00  0.00    -0.271 OA
HETATM   15  H   UNL     1       7.308  26.770  51.741  1.00  0.00     0.169 HD
BRANCH  13  16
HETATM   16  C   UNL     1       5.295  26.668  50.207  1.00  0.00     0.338 C 
BRANCH  16  17
HETATM   17  N   UNL     1       3.823  27.079  49.929  1.00  0.00    -0.059 N 
HETATM   18  H   UNL     1       3.227  26.566  50.591  1.00  0.00     0.280 HD
HETATM   19  C   UNL     1       3.607  28.586  50.103  1.00  0.00     0.190 C 
HETATM   20  C   UNL     1       2.147  28.940  49.788  1.00  0.00     0.033 C 
HETATM   21  C   UNL     1       1.747  28.496  48.391  1.00  0.00     0.004 C 
HETATM   22  C   UNL     1       1.959  27.001  48.242  1.00  0.00     0.028 C 
HETATM   23  C   UNL     1       3.396  26.601  48.537  1.00  0.00     0.236 C 
BRANCH  19  24
HETATM   24  C   UNL     1       4.009  29.096  51.499  1.00  0.00     0.059 C 
BRANCH  24  25
HETATM   25  C   UNL     1       3.051  28.765  52.636  1.00  0.00     0.166 C 
BRANCH  25  26
HETATM   26  O   UNL     1       3.285  27.439  53.076  1.00  0.00    -0.401 OA
HETATM   27  H   UNL     1       3.063  27.357  54.019  1.00  0.00     0.209 HD
ENDBRANCH  25  26
ENDBRANCH  24  25
ENDBRANCH  19  24
ENDBRANCH  16  17
ENDBRANCH  13  16
ENDBRANCH   6  12
BRANCH   1  28
HETATM   28  C   UNL     1       6.951  27.634  54.641  1.00  0.00     0.312 C 
HETATM   29  O   UNL     1       5.800  28.057  54.622  1.00  0.00    -0.258 OA
BRANCH  28  30
HETATM   30  O   UNL     1       8.078  28.367  54.832  1.00  0.00    -0.317 OA
BRANCH  30  31
HETATM   31  C   UNL     1       8.097  29.207  55.997  1.00  0.00     0.175 C 
HETATM   32  C   UNL     1       8.994  28.600  57.060  1.00  0.00     0.034 C 
ENDBRANCH  30  31
ENDBRANCH  28  30
ENDBRANCH   1  28
TORSDOF 9
ENDMDL
MODEL 2
REMARK VINA RESULT:      -7.8      1.705      1.992
REMARK  9 active torsions:
REMARK  status: ('A' for Active; 'I' for Inactive)
REMARK    1  A    between atoms: C_2  and  O_3 
REMARK    2  A    between atoms: O_3  and  C_4 
REMARK    3  A    between atoms: C_4  and  C_5 
REMARK    4  A    between atoms: C_10  and  N_11 
REMARK       I    between atoms: N_11  and  C_12 
REMARK    5  A    between atoms: C_12  and  C_13 
REMARK    6  A    between atoms: C_13  and  N_14 
REMARK    7  A    between atoms: C_16  and  C_17 
REMARK    8  A    between atoms: C_17  and  C_18 
REMARK    9  A    between atoms: C_18  and  O_19 
ROOT
HETATM    1  C   UNL     1       7.107  25.213  56.490  1.00  0.00     0.137 A 
HETATM    2  N   UNL     1       7.590  24.092  57.114  1.00  0.00    -0.349 N 
HETATM    3  H   UNL     1       7.746  24.015  58.112  1.00  0.00     0.166 HD
HETATM    4  C   UNL     1       7.832  23.095  56.204  1.00  0.00     0.045 A 
HETATM    5  C   UNL     1       7.497  23.590  54.937  1.00  0.00     0.021 A 
HETATM    6  C   UNL     1       7.044  24.942  55.126  1.00  0.00     0.080 A 
HETATM    7  C   UNL     1       8.326  21.803  56.428  1.00  0.00     0.032 A 
HETATM    8  C   UNL     1       8.485  20.964  55.326  1.00  0.00     0.026 A 
HETATM    9  C   UNL     1       8.158  21.412  54.054  1.00  0.00     0.035 A 
HETATM   10 CL   UNL     1       8.355  20.358  52.707  1.00  0.00    -0.084 Cl
HETATM   11  C   UNL     1       7.667  22.708  53.845  1.00  0.00     0.040 A 
ENDROOT
BRANCH   6  12
HETATM   12  N   UNL     1       6.596  25.939  54.258  1.00  0.00    -0.323 N 
HETATM   13  C   UNL     1       5.487  25.936  53.443  1.00  0.00     0.248 C 
HETATM   14  O   UNL     1       4.641  25.057  53.344  1.00  0.00    -0.271 OA
HETATM   15  H   UNL     1       7.248  26.723  54.194  1.00  0.00     0.169 HD
BRANCH  13  16
HETATM   16  C   UNL     1       5.325  27.226  52.624  1.00  0.00     0.338 C 
BRANCH  16  17
HETATM   17  N   UNL     1       4.382  27.123  51.394  1.00  0.00    -0.059 N 
HETATM   18  H   UNL     1       3.615  26.485  51.643  1.00  0.00     0.280 HD
HETATM   19  C   UNL     1       3.807  28.488  50.998  1.00  0.00     0.190 C 
HETATM   20  C   UNL     1       2.909  28.332  49.763  1.00  0.00     0.033 C 
HETATM   21  C   UNL     1       3.654  27.702  48.597  1.00  0.00     0.004 C 
HETATM   22  C   UNL     1       4.206  26.350  49.007  1.00  0.00     0.028 C 
HETATM   23  C   UNL     1       5.111  26.453  50.225  1.00  0.00     0.236 C 
BRANCH  19  24
HETATM   24  C   UNL     1       3.051  29.180  52.146  1.00  0.00     0.059 C 
BRANCH  24  25
HETATM   25  C   UNL     1       3.536  30.574  52.524  1.00  0.00     0.166 C 
BRANCH  25  26
HETATM   26  O   UNL     1       2.738  31.078  53.581  1.00  0.00    -0.401 OA
HETATM   27  H   UNL     1       2.150  31.778  53.249  1.00  0.00     0.209 HD
ENDBRANCH  25  26
ENDBRANCH  24  25
ENDBRANCH  19  24
ENDBRANCH  16  17
ENDBRANCH  13  16
ENDBRANCH   6  12
BRANCH   1  28
HETATM   28  C   UNL     1       6.756  26.435  57.175  1.00  0.00     0.312 C 
HETATM   29  O   UNL     1       5.643  26.947  57.116  1.00  0.00    -0.258 OA
BRANCH  28  30
HETATM   30  O   UNL     1       7.827  26.909  57.863  1.00  0.00    -0.317 OA
BRANCH  30  31
HETATM   31  C   UNL     1       8.644  27.872  57.178  1.00  0.00     0.175 C 
HETATM   32  C   UNL     1       8.520  29.228  57.849  1.00  0.00     0.034 C 
ENDBRANCH  30  31
ENDBRANCH  28  30
ENDBRANCH   1  28
TORSDOF 9
ENDMDL
MODEL 3
REMARK VINA RESULT:      -7.7      1.634      2.566
REMARK  9 active torsions:
REMARK  status: ('A' for Active; 'I' for Inactive)
REMARK    1  A    between atoms: C_2  and  O_3 
REMARK    2  A    between atoms: O_3  and  C_4 
REMARK    3  A    between atoms: C_4  and  C_5 
REMARK    4  A    between atoms: C_10  and  N_11 
REMARK       I    between atoms: N_11  and  C_12 
REMARK    5  A    between atoms: C_12  and  C_13 
REMARK    6  A    between atoms: C_13  and  N_14 
REMARK    7  A    between atoms: C_16  and  C_17 
REMARK    8  A    between atoms: C_17  and  C_18 
REMARK    9  A    between atoms: C_18  and  O_19 
ROOT
HETATM    1  C   UNL     1       6.618  25.793  55.346  1.00  0.00     0.137 A 
HETATM    2  N   UNL     1       7.463  25.106  56.180  1.00  0.00    -0.349 N 
HETATM    3  H   UNL     1       7.734  25.420  57.104  1.00  0.00     0.166 HD
HETATM    4  C   UNL     1       7.888  23.943  55.592  1.00  0.00     0.045 A 
HETATM    5  C   UNL     1       7.299  23.873  54.322  1.00  0.00     0.021 A 
HETATM    6  C   UNL     1       6.499  25.058  54.169  1.00  0.00     0.080 A 
HETATM    7  C   UNL     1       8.751  22.965  56.104  1.00  0.00     0.032 A 
HETATM    8  C   UNL     1       9.033  21.859  55.303  1.00  0.00     0.026 A 
HETATM    9  C   UNL     1       8.466  21.746  54.042  1.00  0.00     0.035 A 
HETATM   10 CL   UNL     1       8.821  20.368  53.072  1.00  0.00    -0.084 Cl
HETATM   11  C   UNL     1       7.606  22.733  53.543  1.00  0.00     0.040 A 
ENDROOT
BRANCH   6  12
HETATM   12  N   UNL     1       5.699  25.555  53.139  1.00  0.00    -0.323 N 
HETATM   13  C   UNL     1       6.003  25.694  51.805  1.00  0.00     0.248 C 
HETATM   14  O   UNL     1       7.040  25.369  51.241  1.00  0.00    -0.271 OA
HETATM   15  H   UNL     1       4.809  25.925  53.480  1.00  0.00     0.169 HD
BRANCH  13  16
HETATM   16  C   UNL     1       4.855  26.289  50.974  1.00  0.00     0.338 C 
BRANCH  16  17
HETATM   17  N   UNL     1       5.282  27.275  49.852  1.00  0.00    -0.059 N 
HETATM   18  H   UNL     1       6.231  27.014  49.553  1.00  0.00     0.280 HD
HETATM   19  C   UNL     1       4.332  27.222  48.651  1.00  0.00     0.190 C 
HETATM   20  C   UNL     1       4.783  28.234  47.589  1.00  0.00     0.033 C 
HETATM   21  C   UNL     1       4.864  29.645  48.150  1.00  0.00     0.004 C 
HETATM   22  C   UNL     1       5.816  29.677  49.331  1.00  0.00     0.028 C 
HETATM   23  C   UNL     1       5.406  28.694  50.417  1.00  0.00     0.236 C 
BRANCH  19  24
HETATM   24  C   UNL     1       4.199  25.812  48.048  1.00  0.00     0.059 C 
BRANCH  24  25
HETATM   25  C   UNL     1       2.783  25.263  47.930  1.00  0.00     0.166 C 
BRANCH  25  26
HETATM   26  O   UNL     1       2.784  23.886  48.262  1.00  0.00    -0.401 OA
HETATM   27  H   UNL     1       2.283  23.741  49.083  1.00  0.00     0.209 HD
ENDBRANCH  25  26
ENDBRANCH  24  25
ENDBRANCH  19  24
ENDBRANCH  16  17
ENDBRANCH  13  16
ENDBRANCH   6  12
BRANCH   1  28
HETATM   28  C   UNL     1       6.002  27.056  55.676  1.00  0.00     0.312 C 
HETATM   29  O   UNL     1       5.004  27.490  55.109  1.00  0.00    -0.258 OA
BRANCH  28  30
HETATM   30  O   UNL     1       6.691  27.666  56.675  1.00  0.00    -0.317 OA
BRANCH  30  31
HETATM   31  C   UNL     1       7.588  28.715  56.278  1.00  0.00     0.175 C 
HETATM   32  C   UNL     1       8.882  28.617  57.065  1.00  0.00     0.034 C 
ENDBRANCH  30  31
ENDBRANCH  28  30
ENDBRANCH   1  28
TORSDOF 9
ENDMDL
MODEL 4
REMARK VINA RESULT:      -7.7      1.958      3.069
REMARK  9 active torsions:
REMARK  status: ('A' for Active; 'I' for Inactive)
REMARK    1  A    between atoms: C_2  and  O_3 
REMARK    2  A    between atoms: O_3  and  C_4 
REMARK    3  A    between atoms: C_4  and  C_5 
REMARK    4  A    between atoms: C_10  and  N_11 
REMARK       I    between atoms: N_11  and  C_12 
REMARK    5  A    between atoms: C_12  and  C_13 
REMARK    6  A    between atoms: C_13  and  N_14 
REMARK    7  A    between atoms: C_16  and  C_17 
REMARK    8  A    between atoms: C_17  and  C_18 
REMARK    9  A    between atoms: C_18  and  O_19 
ROOT
HETATM    1  C   UNL     1       7.293  26.076  56.890  1.00  0.00     0.137 A 
HETATM    2  N   UNL     1       7.939  25.009  57.458  1.00  0.00    -0.349 N 
HETATM    3  H   UNL     1       8.336  25.010  58.390  1.00  0.00     0.166 HD
HETATM    4  C   UNL     1       7.973  23.945  56.594  1.00  0.00     0.045 A 
HETATM    5  C   UNL     1       7.327  24.338  55.414  1.00  0.00     0.021 A 
HETATM    6  C   UNL     1       6.904  25.699  55.607  1.00  0.00     0.080 A 
HETATM    7  C   UNL     1       8.536  22.676  56.786  1.00  0.00     0.032 A 
HETATM    8  C   UNL     1       8.439  21.754  55.744  1.00  0.00     0.026 A 
HETATM    9  C   UNL     1       7.801  22.100  54.562  1.00  0.00     0.035 A 
HETATM   10 CL   UNL     1       7.686  20.944  53.290  1.00  0.00    -0.084 Cl
HETATM   11  C   UNL     1       7.245  23.373  54.384  1.00  0.00     0.040 A 
ENDROOT
BRANCH   6  12
HETATM   12  N   UNL     1       6.234  26.624  54.804  1.00  0.00    -0.323 N 
HETATM   13  C   UNL     1       6.763  27.551  53.936  1.00  0.00     0.248 C 
HETATM   14  O   UNL     1       7.944  27.726  53.665  1.00  0.00    -0.271 OA
HETATM   15  H   UNL     1       5.227  26.631  54.974  1.00  0.00     0.169 HD
BRANCH  13  16
HETATM   16  C   UNL     1       5.699  28.402  53.226  1.00  0.00     0.338 C 
BRANCH  16  17
HETATM   17  N   UNL     1       5.792  28.432  51.675  1.00  0.00    -0.059 N 
HETATM   18  H   UNL     1       6.788  28.448  51.424  1.00  0.00     0.280 HD
HETATM   19  C   UNL     1       5.121  27.210  51.038  1.00  0.00     0.190 C 
HETATM   20  C   UNL     1       5.216  27.306  49.509  1.00  0.00     0.033 C 
HETATM   21  C   UNL     1       4.601  28.593  48.984  1.00  0.00     0.004 C 
HETATM   22  C   UNL     1       5.285  29.789  49.619  1.00  0.00     0.028 C 
HETATM   23  C   UNL     1       5.211  29.744  51.138  1.00  0.00     0.236 C 
BRANCH  19  24
HETATM   24  C   UNL     1       5.696  25.874  51.544  1.00  0.00     0.059 C 
BRANCH  24  25
HETATM   25  C   UNL     1       4.678  24.830  51.985  1.00  0.00     0.166 C 
BRANCH  25  26
HETATM   26  O   UNL     1       4.125  25.212  53.233  1.00  0.00    -0.401 OA
HETATM   27  H   UNL     1       4.828  25.280  53.901  1.00  0.00     0.209 HD
ENDBRANCH  25  26
ENDBRANCH  24  25
ENDBRANCH  19  24
ENDBRANCH  16  17
ENDBRANCH  13  16
ENDBRANCH   6  12
BRANCH   1  28
HETATM   28  C   UNL     1       7.093  27.347  57.546  1.00  0.00     0.312 C 
HETATM   29  O   UNL     1       7.977  27.938  58.158  1.00  0.00    -0.258 OA
BRANCH  28  30
HETATM   30  O   UNL     1       5.809  27.758  57.386  1.00  0.00    -0.317 OA
BRANCH  30  31
HETATM   31  C   UNL     1       5.596  29.179  57.370  1.00  0.00     0.175 C 
HETATM   32  C   UNL     1       4.357  29.509  56.560  1.00  0.00     0.034 C 
ENDBRANCH  30  31
ENDBRANCH  28  30
ENDBRANCH   1  28
TORSDOF 9
ENDMDL
MODEL 5
REMARK VINA RESULT:      -7.6      1.596      2.538
REMARK  9 active torsions:
REMARK  status: ('A' for Active; 'I' for Inactive)
REMARK    1  A    between atoms: C_2  and  O_3 
REMARK    2  A    between atoms: O_3  and  C_4 
REMARK    3  A    between atoms: C_4  and  C_5 
REMARK    4  A    between atoms: C_10  and  N_11 
REMARK       I    between atoms: N_11  and  C_12 
REMARK    5  A    between atoms: C_12  and  C_13 
REMARK    6  A    between atoms: C_13  and  N_14 
REMARK    7  A    between atoms: C_16  and  C_17 
REMARK    8  A    between atoms: C_17  and  C_18 
REMARK    9  A    between atoms: C_18  and  O_19 
ROOT
HETATM    1  C   UNL     1       7.317  25.917  54.892  1.00  0.00     0.137 A 
HETATM    2  N   UNL     1       7.906  25.070  55.796  1.00  0.00    -0.349 N 
HETATM    3  H   UNL     1       8.129  25.319  56.752  1.00  0.00     0.166 HD
HETATM    4  C   UNL     1       8.150  23.846  55.228  1.00  0.00     0.045 A 
HETATM    5  C   UNL     1       7.705  23.901  53.900  1.00  0.00     0.021 A 
HETATM    6  C   UNL     1       7.184  25.224  53.691  1.00  0.00     0.080 A 
HETATM    7  C   UNL     1       8.734  22.711  55.807  1.00  0.00     0.032 A 
HETATM    8  C   UNL     1       8.874  21.573  55.014  1.00  0.00     0.026 A 
HETATM    9  C   UNL     1       8.441  21.581  53.696  1.00  0.00     0.035 A 
HETATM   10 CL   UNL     1       8.616  20.163  52.736  1.00  0.00    -0.084 Cl
HETATM   11  C   UNL     1       7.860  22.725  53.131  1.00  0.00     0.040 A 
ENDROOT
BRANCH   6  12
HETATM   12  N   UNL     1       6.622  25.878  52.593  1.00  0.00    -0.323 N 
HETATM   13  C   UNL     1       5.474  25.565  51.902  1.00  0.00     0.248 C 
HETATM   14  O   UNL     1       4.686  24.659  52.140  1.00  0.00    -0.271 OA
HETATM   15  H   UNL     1       7.215  26.633  52.242  1.00  0.00     0.169 HD
BRANCH  13  16
HETATM   16  C   UNL     1       5.180  26.525  50.738  1.00  0.00     0.338 C 
BRANCH  16  17
HETATM   17  N   UNL     1       5.051  28.024  51.124  1.00  0.00    -0.059 N 
HETATM   18  H   UNL     1       5.955  28.324  51.509  1.00  0.00     0.280 HD
HETATM   19  C   UNL     1       4.692  28.897  49.916  1.00  0.00     0.190 C 
HETATM   20  C   UNL     1       4.549  30.360  50.358  1.00  0.00     0.033 C 
HETATM   21  C   UNL     1       3.517  30.518  51.463  1.00  0.00     0.004 C 
HETATM   22  C   UNL     1       3.896  29.655  52.651  1.00  0.00     0.028 C 
HETATM   23  C   UNL     1       4.042  28.191  52.264  1.00  0.00     0.236 C 
BRANCH  19  24
HETATM   24  C   UNL     1       5.698  28.767  48.757  1.00  0.00     0.059 C 
BRANCH  24  25
HETATM   25  C   UNL     1       5.154  28.186  47.458  1.00  0.00     0.166 C 
BRANCH  25  26
HETATM   26  O   UNL     1       6.053  27.207  46.969  1.00  0.00    -0.401 OA
HETATM   27  H   UNL     1       6.772  27.066  47.609  1.00  0.00     0.209 HD
ENDBRANCH  25  26
ENDBRANCH  24  25
ENDBRANCH  19  24
ENDBRANCH  16  17
ENDBRANCH  13  16
ENDBRANCH   6  12
BRANCH   1  28
HETATM   28  C   UNL     1       6.937  27.279  55.184  1.00  0.00     0.312 C 
HETATM   29  O   UNL     1       6.911  28.169  54.341  1.00  0.00    -0.258 OA
BRANCH  28  30
HETATM   30  O   UNL     1       6.631  27.406  56.501  1.00  0.00    -0.317 OA
BRANCH  30  31
HETATM   31  C   UNL     1       6.638  28.743  57.027  1.00  0.00     0.175 C 
HETATM   32  C   UNL     1       7.770  28.902  58.024  1.00  0.00     0.034 C 
ENDBRANCH  30  31
ENDBRANCH  28  30
ENDBRANCH   1  28
TORSDOF 9
ENDMDL
MODEL 6
REMARK VINA RESULT:      -7.4      2.357      5.813
REMARK  9 active torsions:
REMARK  status: ('A' for Active; 'I' for Inactive)
REMARK    1  A    between atoms: C_2  and  O_3 
REMARK    2  A    between atoms: O_3  and  C_4 
REMARK    3  A    between atoms: C_4  and  C_5 
REMARK    4  A    between atoms: C_10  and  N_11 
REMARK       I    between atoms: N_11  and  C_12 
REMARK    5  A    between atoms: C_12  and  C_13 
REMARK    6  A    between atoms: C_13  and  N_14 
REMARK    7  A    between atoms: C_16  and  C_17 
REMARK    8  A    between atoms: C_17  and  C_18 
REMARK    9  A    between atoms: C_18  and  O_19 
ROOT
HETATM    1  C   UNL     1       6.286  24.958  53.427  1.00  0.00     0.137 A 
HETATM    2  N   UNL     1       6.675  23.907  52.637  1.00  0.00    -0.349 N 
HETATM    3  H   UNL     1       6.507  23.848  51.640  1.00  0.00     0.166 HD
HETATM    4  C   UNL     1       7.319  22.952  53.381  1.00  0.00     0.045 A 
HETATM    5  C   UNL     1       7.346  23.399  54.709  1.00  0.00     0.021 A 
HETATM    6  C   UNL     1       6.679  24.672  54.732  1.00  0.00     0.080 A 
HETATM    7  C   UNL     1       7.869  21.734  52.959  1.00  0.00     0.032 A 
HETATM    8  C   UNL     1       8.481  20.926  53.917  1.00  0.00     0.026 A 
HETATM    9  C   UNL     1       8.536  21.334  55.242  1.00  0.00     0.035 A 
HETATM   10 CL   UNL     1       9.303  20.325  56.408  1.00  0.00    -0.084 Cl
HETATM   11  C   UNL     1       7.980  22.554  55.649  1.00  0.00     0.040 A 
ENDROOT
BRANCH   6  12
HETATM   12  N   UNL     1       6.382  25.587  55.744  1.00  0.00    -0.323 N 
HETATM   13  C   UNL     1       6.982  26.795  56.015  1.00  0.00     0.248 C 
HETATM   14  O   UNL     1       7.888  27.332  55.389  1.00  0.00    -0.271 OA
HETATM   15  H   UNL     1       5.672  25.237  56.390  1.00  0.00     0.169 HD
BRANCH  13  16
HETATM   16  C   UNL     1       6.375  27.523  57.224  1.00  0.00     0.338 C 
BRANCH  16  17
HETATM   17  N   UNL     1       6.567  29.065  57.242  1.00  0.00    -0.059 N 
HETATM   18  H   UNL     1       7.031  29.330  56.364  1.00  0.00     0.280 HD
HETATM   19  C   UNL     1       5.232  29.807  57.362  1.00  0.00     0.190 C 
HETATM   20  C   UNL     1       5.482  31.320  57.405  1.00  0.00     0.033 C 
HETATM   21  C   UNL     1       6.418  31.707  58.539  1.00  0.00     0.004 C 
HETATM   22  C   UNL     1       7.736  30.969  58.396  1.00  0.00     0.028 C 
HETATM   23  C   UNL     1       7.540  29.461  58.357  1.00  0.00     0.236 C 
BRANCH  19  24
HETATM   24  C   UNL     1       4.237  29.444  56.245  1.00  0.00     0.059 C 
BRANCH  24  25
HETATM   25  C   UNL     1       4.530  30.030  54.869  1.00  0.00     0.166 C 
BRANCH  25  26
HETATM   26  O   UNL     1       5.682  29.407  54.329  1.00  0.00    -0.401 OA
HETATM   27  H   UNL     1       5.837  29.722  53.422  1.00  0.00     0.209 HD
ENDBRANCH  25  26
ENDBRANCH  24  25
ENDBRANCH  19  24
ENDBRANCH  16  17
ENDBRANCH  13  16
ENDBRANCH   6  12
BRANCH   1  28
HETATM   28  C   UNL     1       5.583  26.121  52.941  1.00  0.00     0.312 C 
HETATM   29  O   UNL     1       4.680  26.674  53.562  1.00  0.00    -0.258 OA
BRANCH  28  30
HETATM   30  O   UNL     1       6.064  26.484  51.724  1.00  0.00    -0.317 OA
BRANCH  30  31
HETATM   31  C   UNL     1       5.147  27.175  50.861  1.00  0.00     0.175 C 
HETATM   32  C   UNL     1       5.480  28.655  50.829  1.00  0.00     0.034 C 
ENDBRANCH  30  31
ENDBRANCH  28  30
ENDBRANCH   1  28
TORSDOF 9
ENDMDL
MODEL 7
REMARK VINA RESULT:      -7.1      4.150      7.461
REMARK  9 active torsions:
REMARK  status: ('A' for Active; 'I' for Inactive)
REMARK    1  A    between atoms: C_2  and  O_3 
REMARK    2  A    between atoms: O_3  and  C_4 
REMARK    3  A    between atoms: C_4  and  C_5 
REMARK    4  A    between atoms: C_10  and  N_11 
REMARK       I    between atoms: N_11  and  C_12 
REMARK    5  A    between atoms: C_12  and  C_13 
REMARK    6  A    between atoms: C_13  and  N_14 
REMARK    7  A    between atoms: C_16  and  C_17 
REMARK    8  A    between atoms: C_17  and  C_18 
REMARK    9  A    between atoms: C_18  and  O_19 
ROOT
HETATM    1  C   UNL     1       6.822  30.261  57.749  1.00  0.00     0.137 A 
HETATM    2  N   UNL     1       6.066  31.234  58.351  1.00  0.00    -0.349 N 
HETATM    3  H   UNL     1       6.212  31.570  59.295  1.00  0.00     0.166 HD
HETATM    4  C   UNL     1       5.089  31.685  57.501  1.00  0.00     0.045 A 
HETATM    5  C   UNL     1       5.213  30.974  56.300  1.00  0.00     0.021 A 
HETATM    6  C   UNL     1       6.313  30.063  56.468  1.00  0.00     0.080 A 
HETATM    7  C   UNL     1       4.114  32.666  57.726  1.00  0.00     0.032 A 
HETATM    8  C   UNL     1       3.223  32.952  56.693  1.00  0.00     0.026 A 
HETATM    9  C   UNL     1       3.315  32.276  55.484  1.00  0.00     0.035 A 
HETATM   10 CL   UNL     1       2.210  32.648  54.218  1.00  0.00    -0.084 Cl
HETATM   11  C   UNL     1       4.294  31.296  55.274  1.00  0.00     0.040 A 
ENDROOT
BRANCH   6  12
HETATM   12  N   UNL     1       6.903  29.101  55.647  1.00  0.00    -0.323 N 
HETATM   13  C   UNL     1       6.344  27.962  55.117  1.00  0.00     0.248 C 
HETATM   14  O   UNL     1       5.187  27.578  55.234  1.00  0.00    -0.271 OA
HETATM   15  H   UNL     1       7.903  29.265  55.511  1.00  0.00     0.169 HD
BRANCH  13  16
HETATM   16  C   UNL     1       7.318  27.143  54.257  1.00  0.00     0.338 C 
BRANCH  16  17
HETATM   17  N   UNL     1       7.111  25.604  54.290  1.00  0.00    -0.059 N 
HETATM   18  H   UNL     1       6.149  25.427  54.607  1.00  0.00     0.280 HD
HETATM   19  C   UNL     1       7.324  24.967  52.912  1.00  0.00     0.190 C 
HETATM   20  C   UNL     1       7.136  23.447  53.010  1.00  0.00     0.033 C 
HETATM   21  C   UNL     1       8.066  22.827  54.040  1.00  0.00     0.004 C 
HETATM   22  C   UNL     1       7.833  23.464  55.397  1.00  0.00     0.028 C 
HETATM   23  C   UNL     1       8.016  24.973  55.354  1.00  0.00     0.236 C 
BRANCH  19  24
HETATM   24  C   UNL     1       6.415  25.567  51.824  1.00  0.00     0.059 C 
BRANCH  24  25
HETATM   25  C   UNL     1       4.948  25.159  51.875  1.00  0.00     0.166 C 
BRANCH  25  26
HETATM   26  O   UNL     1       4.343  25.728  53.022  1.00  0.00    -0.401 OA
HETATM   27  H   UNL     1       4.801  25.425  53.825  1.00  0.00     0.209 HD
ENDBRANCH  25  26
ENDBRANCH  24  25
ENDBRANCH  19  24
ENDBRANCH  16  17
ENDBRANCH  13  16
ENDBRANCH   6  12
BRANCH   1  28
HETATM   28  C   UNL     1       7.929  29.586  58.384  1.00  0.00     0.312 C 
HETATM   29  O   UNL     1       8.034  28.364  58.439  1.00  0.00    -0.258 OA
BRANCH  28  30
HETATM   30  O   UNL     1       8.799  30.494  58.897  1.00  0.00    -0.317 OA
BRANCH  30  31
HETATM   31  C   UNL     1       8.892  30.542  60.329  1.00  0.00     0.175 C 
HETATM   32  C   UNL     1       9.255  31.945  60.779  1.00  0.00     0.034 C 
ENDBRANCH  30  31
ENDBRANCH  28  30
ENDBRANCH   1  28
TORSDOF 9
ENDMDL
MODEL 8
REMARK VINA RESULT:      -7.0      2.889      7.611
REMARK  9 active torsions:
REMARK  status: ('A' for Active; 'I' for Inactive)
REMARK    1  A    between atoms: C_2  and  O_3 
REMARK    2  A    between atoms: O_3  and  C_4 
REMARK    3  A    between atoms: C_4  and  C_5 
REMARK    4  A    between atoms: C_10  and  N_11 
REMARK       I    between atoms: N_11  and  C_12 
REMARK    5  A    between atoms: C_12  and  C_13 
REMARK    6  A    between atoms: C_13  and  N_14 
REMARK    7  A    between atoms: C_16  and  C_17 
REMARK    8  A    between atoms: C_17  and  C_18 
REMARK    9  A    between atoms: C_18  and  O_19 
ROOT
HETATM    1  C   UNL     1       4.840  27.810  53.620  1.00  0.00     0.137 A 
HETATM    2  N   UNL     1       4.673  26.566  53.068  1.00  0.00    -0.349 N 
HETATM    3  H   UNL     1       3.942  26.326  52.409  1.00  0.00     0.166 HD
HETATM    4  C   UNL     1       5.627  25.696  53.530  1.00  0.00     0.045 A 
HETATM    5  C   UNL     1       6.445  26.403  54.422  1.00  0.00     0.021 A 
HETATM    6  C   UNL     1       5.933  27.745  54.481  1.00  0.00     0.080 A 
HETATM    7  C   UNL     1       5.806  24.343  53.216  1.00  0.00     0.032 A 
HETATM    8  C   UNL     1       6.863  23.666  53.823  1.00  0.00     0.026 A 
HETATM    9  C   UNL     1       7.702  24.329  54.707  1.00  0.00     0.035 A 
HETATM   10 CL   UNL     1       9.007  23.477  55.441  1.00  0.00    -0.084 Cl
HETATM   11  C   UNL     1       7.509  25.683  55.013  1.00  0.00     0.040 A 
ENDROOT
BRANCH   6  12
HETATM   12  N   UNL     1       6.306  28.890  55.188  1.00  0.00    -0.323 N 
HETATM   13  C   UNL     1       6.354  29.082  56.549  1.00  0.00     0.248 C 
HETATM   14  O   UNL     1       6.110  28.262  57.425  1.00  0.00    -0.271 OA
HETATM   15  H   UNL     1       6.484  29.687  54.574  1.00  0.00     0.169 HD
BRANCH  13  16
HETATM   16  C   UNL     1       6.815  30.491  56.953  1.00  0.00     0.338 C 
BRANCH  16  17
HETATM   17  N   UNL     1       7.366  30.626  58.399  1.00  0.00    -0.059 N 
HETATM   18  H   UNL     1       7.097  29.779  58.914  1.00  0.00     0.280 HD
HETATM   19  C   UNL     1       8.892  30.777  58.418  1.00  0.00     0.190 C 
HETATM   20  C   UNL     1       9.378  30.936  59.864  1.00  0.00     0.033 C 
HETATM   21  C   UNL     1       8.711  32.112  60.560  1.00  0.00     0.004 C 
HETATM   22  C   UNL     1       7.205  31.939  60.538  1.00  0.00     0.028 C 
HETATM   23  C   UNL     1       6.672  31.785  59.122  1.00  0.00     0.236 C 
BRANCH  19  24
HETATM   24  C   UNL     1       9.621  29.618  57.714  1.00  0.00     0.059 C 
BRANCH  24  25
HETATM   25  C   UNL     1      10.598  30.010  56.613  1.00  0.00     0.166 C 
BRANCH  25  26
HETATM   26  O   UNL     1      11.918  29.700  57.024  1.00  0.00    -0.401 OA
HETATM   27  H   UNL     1      12.258  28.947  56.512  1.00  0.00     0.209 HD
ENDBRANCH  25  26
ENDBRANCH  24  25
ENDBRANCH  19  24
ENDBRANCH  16  17
ENDBRANCH  13  16
ENDBRANCH   6  12
BRANCH   1  28
HETATM   28  C   UNL     1       3.995  28.945  53.335  1.00  0.00     0.312 C 
HETATM   29  O   UNL     1       4.166  30.056  53.826  1.00  0.00    -0.258 OA
BRANCH  28  30
HETATM   30  O   UNL     1       3.010  28.589  52.470  1.00  0.00    -0.317 OA
BRANCH  30  31
HETATM   31  C   UNL     1       3.194  28.986  51.102  1.00  0.00     0.175 C 
HETATM   32  C   UNL     1       2.118  29.978  50.701  1.00  0.00     0.034 C 
ENDBRANCH  30  31
ENDBRANCH  28  30
ENDBRANCH   1  28
TORSDOF 9
ENDMDL
MODEL 9
REMARK VINA RESULT:      -6.6      2.845      5.471
REMARK  9 active torsions:
REMARK  status: ('A' for Active; 'I' for Inactive)
REMARK    1  A    between atoms: C_2  and  O_3 
REMARK    2  A    between atoms: O_3  and  C_4 
REMARK    3  A    between atoms: C_4  and  C_5 
REMARK    4  A    between atoms: C_10  and  N_11 
REMARK       I    between atoms: N_11  and  C_12 
REMARK    5  A    between atoms: C_12  and  C_13 
REMARK    6  A    between atoms: C_13  and  N_14 
REMARK    7  A    between atoms: C_16  and  C_17 
REMARK    8  A    between atoms: C_17  and  C_18 
REMARK    9  A    between atoms: C_18  and  O_19 
ROOT
HETATM    1  C   UNL     1       5.566  26.528  52.149  1.00  0.00     0.137 A 
HETATM    2  N   UNL     1       6.395  25.591  51.586  1.00  0.00    -0.349 N 
HETATM    3  H   UNL     1       6.584  25.518  50.594  1.00  0.00     0.166 HD
HETATM    4  C   UNL     1       6.926  24.771  52.548  1.00  0.00     0.045 A 
HETATM    5  C   UNL     1       6.420  25.190  53.786  1.00  0.00     0.021 A 
HETATM    6  C   UNL     1       5.548  26.302  53.523  1.00  0.00     0.080 A 
HETATM    7  C   UNL     1       7.812  23.696  52.393  1.00  0.00     0.032 A 
HETATM    8  C   UNL     1       8.213  23.010  53.539  1.00  0.00     0.026 A 
HETATM    9  C   UNL     1       7.742  23.396  54.785  1.00  0.00     0.035 A 
HETATM   10 CL   UNL     1       8.255  22.540  56.189  1.00  0.00    -0.084 Cl
HETATM   11  C   UNL     1       6.855  24.472  54.924  1.00  0.00     0.040 A 
ENDROOT
BRANCH   6  12
HETATM   12  N   UNL     1       4.757  27.120  54.332  1.00  0.00    -0.323 N 
HETATM   13  C   UNL     1       5.149  28.143  55.164  1.00  0.00     0.248 C 
HETATM   14  O   UNL     1       6.284  28.570  55.335  1.00  0.00    -0.271 OA
HETATM   15  H   UNL     1       3.776  26.835  54.334  1.00  0.00     0.169 HD
BRANCH  13  16
HETATM   16  C   UNL     1       3.979  28.815  55.901  1.00  0.00     0.338 C 
BRANCH  16  17
HETATM   17  N   UNL     1       3.763  30.320  55.581  1.00  0.00    -0.059 N 
HETATM   18  H   UNL     1       2.870  30.602  56.007  1.00  0.00     0.280 HD
HETATM   19  C   UNL     1       4.895  31.192  56.135  1.00  0.00     0.190 C 
HETATM   20  C   UNL     1       4.646  32.660  55.766  1.00  0.00     0.033 C 
HETATM   21  C   UNL     1       4.505  32.850  54.265  1.00  0.00     0.004 C 
HETATM   22  C   UNL     1       3.374  31.987  53.739  1.00  0.00     0.028 C 
HETATM   23  C   UNL     1       3.580  30.517  54.073  1.00  0.00     0.236 C 
BRANCH  19  24
HETATM   24  C   UNL     1       5.093  31.030  57.654  1.00  0.00     0.059 C 
BRANCH  24  25
HETATM   25  C   UNL     1       6.522  30.786  58.122  1.00  0.00     0.166 C 
BRANCH  25  26
HETATM   26  O   UNL     1       6.778  29.393  58.142  1.00  0.00    -0.401 OA
HETATM   27  H   UNL     1       7.736  29.232  58.199  1.00  0.00     0.209 HD
ENDBRANCH  25  26
ENDBRANCH  24  25
ENDBRANCH  19  24
ENDBRANCH  16  17
ENDBRANCH  13  16
ENDBRANCH   6  12
BRANCH   1  28
HETATM   28  C   UNL     1       4.853  27.535  51.400  1.00  0.00     0.312 C 
HETATM   29  O   UNL     1       3.891  28.153  51.844  1.00  0.00    -0.258 OA
BRANCH  28  30
HETATM   30  O   UNL     1       5.401  27.675  50.165  1.00  0.00    -0.317 OA
BRANCH  30  31
HETATM   31  C   UNL     1       4.477  27.782  49.071  1.00  0.00     0.175 C 
HETATM   32  C   UNL     1       4.749  26.689  48.054  1.00  0.00     0.034 C 
ENDBRANCH  30  31
ENDBRANCH  28  30
ENDBRANCH   1  28
TORSDOF 9
ENDMDL
MODEL 10
REMARK VINA RESULT:      -6.6      9.617     13.011
REMARK  9 active torsions:
REMARK  status: ('A' for Active; 'I' for Inactive)
REMARK    1  A    between atoms: C_2  and  O_3 
REMARK    2  A    between atoms: O_3  and  C_4 
REMARK    3  A    between atoms: C_4  and  C_5 
REMARK    4  A    between atoms: C_10  and  N_11 
REMARK       I    between atoms: N_11  and  C_12 
REMARK    5  A    between atoms: C_12  and  C_13 
REMARK    6  A    between atoms: C_13  and  N_14 
REMARK    7  A    between atoms: C_16  and  C_17 
REMARK    8  A    between atoms: C_17  and  C_18 
REMARK    9  A    between atoms: C_18  and  O_19 
ROOT
HETATM    1  C   UNL     1       3.535  34.598  62.739  1.00  0.00     0.137 A 
HETATM    2  N   UNL     1       2.877  35.011  63.869  1.00  0.00    -0.349 N 
HETATM    3  H   UNL     1       1.921  35.346  63.884  1.00  0.00     0.166 HD
HETATM    4  C   UNL     1       3.689  34.910  64.969  1.00  0.00     0.045 A 
HETATM    5  C   UNL     1       4.927  34.415  64.536  1.00  0.00     0.021 A 
HETATM    6  C   UNL     1       4.824  34.227  63.115  1.00  0.00     0.080 A 
HETATM    7  C   UNL     1       3.402  35.228  66.304  1.00  0.00     0.032 A 
HETATM    8  C   UNL     1       4.407  35.034  67.251  1.00  0.00     0.026 A 
HETATM    9  C   UNL     1       5.644  34.539  66.867  1.00  0.00     0.035 A 
HETATM   10 CL   UNL     1       6.868  34.299  68.054  1.00  0.00    -0.084 Cl
HETATM   11  C   UNL     1       5.916  34.227  65.528  1.00  0.00     0.040 A 
ENDROOT
BRANCH   6  12
HETATM   12  N   UNL     1       5.711  33.779  62.134  1.00  0.00    -0.323 N 
HETATM   13  C   UNL     1       6.278  32.534  61.991  1.00  0.00     0.248 C 
HETATM   14  O   UNL     1       6.085  31.545  62.686  1.00  0.00    -0.271 OA
HETATM   15  H   UNL     1       6.012  34.529  61.508  1.00  0.00     0.169 HD
BRANCH  13  16
HETATM   16  C   UNL     1       7.216  32.424  60.778  1.00  0.00     0.338 C 
BRANCH  16  17
HETATM   17  N   UNL     1       6.948  31.221  59.832  1.00  0.00    -0.059 N 
HETATM   18  H   UNL     1       6.456  30.502  60.377  1.00  0.00     0.280 HD
HETATM   19  C   UNL     1       6.097  31.623  58.623  1.00  0.00     0.190 C 
HETATM   20  C   UNL     1       5.889  30.407  57.710  1.00  0.00     0.033 C 
HETATM   21  C   UNL     1       7.210  29.803  57.262  1.00  0.00     0.004 C 
HETATM   22  C   UNL     1       8.032  29.404  58.473  1.00  0.00     0.028 C 
HETATM   23  C   UNL     1       8.273  30.580  59.407  1.00  0.00     0.236 C 
BRANCH  19  24
HETATM   24  C   UNL     1       4.749  32.254  59.016  1.00  0.00     0.059 C 
BRANCH  24  25
HETATM   25  C   UNL     1       3.516  31.380  58.820  1.00  0.00     0.166 C 
BRANCH  25  26
HETATM   26  O   UNL     1       2.908  31.139  60.076  1.00  0.00    -0.401 OA
HETATM   27  H   UNL     1       3.554  31.274  60.790  1.00  0.00     0.209 HD
ENDBRANCH  25  26
ENDBRANCH  24  25
ENDBRANCH  19  24
ENDBRANCH  16  17
ENDBRANCH  13  16
ENDBRANCH   6  12
BRANCH   1  28
HETATM   28  C   UNL     1       2.951  34.585  61.419  1.00  0.00     0.312 C 
HETATM   29  O   UNL     1       2.031  33.842  61.094  1.00  0.00    -0.258 OA
BRANCH  28  30
HETATM   30  O   UNL     1       3.573  35.494  60.624  1.00  0.00    -0.317 OA
BRANCH  30  31
HETATM   31  C   UNL     1       3.100  36.847  60.719  1.00  0.00     0.175 C 
HETATM   32  C   UNL     1       2.108  37.129  59.607  1.00  0.00     0.034 C 
ENDBRANCH  30  31
ENDBRANCH  28  30
ENDBRANCH   1  28
TORSDOF 9
ENDMDL
