MODEL 1
REMARK VINA RESULT:      -9.3      0.000      0.000
REMARK  9 active torsions:
REMARK  status: ('A' for Active; 'I' for Inactive)
REMARK    1  A    between atoms: C_4  and  C_5 
REMARK    2  A    between atoms: C_7  and  O_8 
REMARK    3  A    between atoms: C_10  and  O_11 
REMARK    4  A    between atoms: C_16  and  C_17 
REMARK    5  A    between atoms: C_20  and  C_21 
REMARK    6  A    between atoms: C_21  and  N_22 
REMARK    7  A    between atoms: N_22  and  C_23 
REMARK    8  A    between atoms: C_23  and  N_24 
REMARK    9  A    between atoms: N_24  and  C_25 
ROOT
HETATM    1  C   UNL     1       7.117  31.586  59.518  1.00  0.00     0.035 A 
HETATM    2  C   UNL     1       7.987  31.049  58.568  1.00  0.00     0.052 A 
HETATM    3  C   UNL     1       9.375  31.181  58.706  1.00  0.00     0.046 A 
HETATM    4  C   UNL     1      10.222  30.643  57.684  1.00  0.00     0.099 C 
HETATM    5  N   UNL     1      10.829  30.209  56.796  1.00  0.00    -0.191 NA
HETATM    6  C   UNL     1       9.903  31.830  59.821  1.00  0.00     0.023 A 
HETATM    7  C   UNL     1       9.042  32.335  60.797  1.00  0.00     0.004 A 
HETATM    8  C   UNL     1       7.656  32.207  60.648  1.00  0.00     0.029 A 
ENDROOT
BRANCH   1   9
HETATM    9  N   UNL     1       5.713  31.467  59.432  1.00  0.00    -0.333 N 
HETATM   10  H   UNL     1       5.237  31.241  60.303  1.00  0.00     0.168 HD
BRANCH   9  11
HETATM   11  C   UNL     1       4.895  31.425  58.335  1.00  0.00     0.172 C 
HETATM   12  S   UNL     1       4.574  32.844  57.520  1.00  0.00    -0.041 SA
BRANCH  11  13
HETATM   13  N   UNL     1       4.446  30.182  57.963  1.00  0.00    -0.365 N 
HETATM   14  H   UNL     1       4.089  29.659  58.757  1.00  0.00     0.161 HD
BRANCH  13  15
HETATM   15  C   UNL     1       4.912  29.437  56.796  1.00  0.00     0.155 C 
BRANCH  15  16
HETATM   16  C   UNL     1       5.672  28.142  57.156  1.00  0.00     0.206 C 
HETATM   17  C   UNL     1       5.174  26.876  56.441  1.00  0.00     0.040 C 
HETATM   18  C   UNL     1       6.361  25.980  56.014  1.00  0.00     0.001 C 
HETATM   19  C   UNL     1       7.211  26.681  54.921  1.00  0.00     0.067 C 
HETATM   20  C   UNL     1       7.276  25.811  57.250  1.00  0.00     0.033 C 
HETATM   21  C   UNL     1       7.481  28.134  55.373  1.00  0.00     0.246 C 
HETATM   22  N   UNL     1       7.171  28.254  56.871  1.00  0.00    -0.065 N 
HETATM   23  C   UNL     1       7.903  27.158  57.636  1.00  0.00     0.236 C 
HETATM   24  H   UNL     1       7.513  29.166  57.203  1.00  0.00     0.280 HD
BRANCH  19  25
HETATM   25  C   UNL     1       6.645  26.604  53.531  1.00  0.00     0.038 A 
HETATM   26  N   UNL     1       6.601  25.437  52.798  1.00  0.00    -0.277 N 
HETATM   27  C   UNL     1       7.009  24.110  53.204  1.00  0.00     0.179 C 
HETATM   28  N   UNL     1       6.093  25.591  51.571  1.00  0.00    -0.172 NA
HETATM   29  C   UNL     1       5.715  26.873  51.500  1.00  0.00     0.089 A 
HETATM   30  C   UNL     1       6.033  27.538  52.714  1.00  0.00     0.061 A 
BRANCH  29  31
HETATM   31  C   UNL     1       5.061  27.423  50.310  1.00  0.00    -0.003 A 
HETATM   32  C   UNL     1       4.636  26.570  49.281  1.00  0.00     0.053 A 
HETATM   33  C   UNL     1       3.991  27.076  48.145  1.00  0.00     0.102 A 
HETATM   34  C   UNL     1       3.783  28.465  48.023  1.00  0.00     0.101 A 
HETATM   35  C   UNL     1       4.215  29.317  49.043  1.00  0.00     0.040 A 
HETATM   36  C   UNL     1       4.846  28.799  50.180  1.00  0.00     0.017 A 
BRANCH  33  37
HETATM   37  O   UNL     1       3.535  26.306  47.103  1.00  0.00    -0.353 OA
HETATM   38  C   UNL     1       2.961  25.045  47.417  1.00  0.00     0.210 C 
ENDBRANCH  33  37
BRANCH  34  39
HETATM   39  O   UNL     1       3.150  28.882  46.880  1.00  0.00    -0.353 OA
HETATM   40  C   UNL     1       2.609  30.194  46.860  1.00  0.00     0.210 C 
ENDBRANCH  34  39
ENDBRANCH  29  31
ENDBRANCH  19  25
ENDBRANCH  15  16
ENDBRANCH  13  15
ENDBRANCH  11  13
ENDBRANCH   9  11
ENDBRANCH   1   9
TORSDOF 9
ENDMDL
MODEL 2
REMARK VINA RESULT:      -8.9      3.362      6.527
REMARK  9 active torsions:
REMARK  status: ('A' for Active; 'I' for Inactive)
REMARK    1  A    between atoms: C_4  and  C_5 
REMARK    2  A    between atoms: C_7  and  O_8 
REMARK    3  A    between atoms: C_10  and  O_11 
REMARK    4  A    between atoms: C_16  and  C_17 
REMARK    5  A    between atoms: C_20  and  C_21 
REMARK    6  A    between atoms: C_21  and  N_22 
REMARK    7  A    between atoms: N_22  and  C_23 
REMARK    8  A    between atoms: C_23  and  N_24 
REMARK    9  A    between atoms: N_24  and  C_25 
ROOT
HETATM    1  C   UNL     1       7.332  29.643  56.187  1.00  0.00     0.035 A 
HETATM    2  C   UNL     1       7.131  30.292  57.406  1.00  0.00     0.052 A 
HETATM    3  C   UNL     1       8.122  30.290  58.396  1.00  0.00     0.046 A 
HETATM    4  C   UNL     1       7.850  30.940  59.643  1.00  0.00     0.099 C 
HETATM    5  N   UNL     1       7.534  31.460  60.630  1.00  0.00    -0.191 NA
HETATM    6  C   UNL     1       9.342  29.659  58.156  1.00  0.00     0.023 A 
HETATM    7  C   UNL     1       9.567  29.041  56.924  1.00  0.00     0.004 A 
HETATM    8  C   UNL     1       8.569  29.040  55.943  1.00  0.00     0.029 A 
ENDROOT
BRANCH   1   9
HETATM    9  N   UNL     1       6.371  29.629  55.153  1.00  0.00    -0.333 N 
HETATM   10  H   UNL     1       6.745  29.633  54.206  1.00  0.00     0.168 HD
BRANCH   9  11
HETATM   11  C   UNL     1       5.014  29.795  55.206  1.00  0.00     0.172 C 
HETATM   12  S   UNL     1       4.085  28.597  55.900  1.00  0.00    -0.041 SA
BRANCH  11  13
HETATM   13  N   UNL     1       4.531  30.986  54.721  1.00  0.00    -0.365 N 
HETATM   14  H   UNL     1       4.891  31.778  55.244  1.00  0.00     0.161 HD
BRANCH  13  15
HETATM   15  C   UNL     1       3.271  31.149  53.999  1.00  0.00     0.155 C 
BRANCH  15  16
HETATM   16  C   UNL     1       3.457  31.399  52.488  1.00  0.00     0.206 C 
HETATM   17  C   UNL     1       4.798  30.922  51.909  1.00  0.00     0.040 C 
HETATM   18  C   UNL     1       4.601  30.278  50.517  1.00  0.00     0.001 C 
HETATM   19  C   UNL     1       3.789  28.961  50.632  1.00  0.00     0.067 C 
HETATM   20  C   UNL     1       3.749  31.255  49.675  1.00  0.00     0.033 C 
HETATM   21  C   UNL     1       2.557  29.227  51.526  1.00  0.00     0.246 C 
HETATM   22  N   UNL     1       2.354  30.743  51.653  1.00  0.00    -0.065 N 
HETATM   23  C   UNL     1       2.338  31.378  50.268  1.00  0.00     0.236 C 
HETATM   24  H   UNL     1       1.443  30.914  52.100  1.00  0.00     0.280 HD
BRANCH  19  25
HETATM   25  C   UNL     1       4.579  27.764  51.080  1.00  0.00     0.038 A 
HETATM   26  N   UNL     1       4.759  26.643  50.299  1.00  0.00    -0.277 N 
HETATM   27  C   UNL     1       4.305  26.414  48.945  1.00  0.00     0.179 C 
HETATM   28  N   UNL     1       5.463  25.676  50.899  1.00  0.00    -0.172 NA
HETATM   29  C   UNL     1       5.832  26.184  52.080  1.00  0.00     0.089 A 
HETATM   30  C   UNL     1       5.308  27.496  52.226  1.00  0.00     0.061 A 
BRANCH  29  31
HETATM   31  C   UNL     1       6.669  25.433  53.019  1.00  0.00    -0.003 A 
HETATM   32  C   UNL     1       6.874  25.912  54.321  1.00  0.00     0.053 A 
HETATM   33  C   UNL     1       7.655  25.196  55.237  1.00  0.00     0.102 A 
HETATM   34  C   UNL     1       8.259  23.986  54.842  1.00  0.00     0.101 A 
HETATM   35  C   UNL     1       8.063  23.512  53.542  1.00  0.00     0.040 A 
HETATM   36  C   UNL     1       7.270  24.228  52.639  1.00  0.00     0.017 A 
BRANCH  33  37
HETATM   37  O   UNL     1       7.892  25.593  56.531  1.00  0.00    -0.353 OA
HETATM   38  C   UNL     1       6.789  26.072  57.286  1.00  0.00     0.210 C 
ENDBRANCH  33  37
BRANCH  34  39
HETATM   39  O   UNL     1       9.012  23.348  55.796  1.00  0.00    -0.353 OA
HETATM   40  C   UNL     1       8.483  22.166  56.378  1.00  0.00     0.210 C 
ENDBRANCH  34  39
ENDBRANCH  29  31
ENDBRANCH  19  25
ENDBRANCH  15  16
ENDBRANCH  13  15
ENDBRANCH  11  13
ENDBRANCH   9  11
ENDBRANCH   1   9
TORSDOF 9
ENDMDL
MODEL 3
REMARK VINA RESULT:      -8.8      4.209      9.453
REMARK  9 active torsions:
REMARK  status: ('A' for Active; 'I' for Inactive)
REMARK    1  A    between atoms: C_4  and  C_5 
REMARK    2  A    between atoms: C_7  and  O_8 
REMARK    3  A    between atoms: C_10  and  O_11 
REMARK    4  A    between atoms: C_16  and  C_17 
REMARK    5  A    between atoms: C_20  and  C_21 
REMARK    6  A    between atoms: C_21  and  N_22 
REMARK    7  A    between atoms: N_22  and  C_23 
REMARK    8  A    between atoms: C_23  and  N_24 
REMARK    9  A    between atoms: N_24  and  C_25 
ROOT
HETATM    1  C   UNL     1       5.248  28.690  48.758  1.00  0.00     0.035 A 
HETATM    2  C   UNL     1       4.686  29.236  47.603  1.00  0.00     0.052 A 
HETATM    3  C   UNL     1       4.554  30.623  47.453  1.00  0.00     0.046 A 
HETATM    4  C   UNL     1       3.937  31.130  46.263  1.00  0.00     0.099 C 
HETATM    5  N   UNL     1       3.398  31.451  45.288  1.00  0.00    -0.191 NA
HETATM    6  C   UNL     1       5.014  31.477  48.454  1.00  0.00     0.023 A 
HETATM    7  C   UNL     1       5.613  30.941  49.595  1.00  0.00     0.004 A 
HETATM    8  C   UNL     1       5.735  29.555  49.742  1.00  0.00     0.029 A 
ENDROOT
BRANCH   1   9
HETATM    9  N   UNL     1       5.417  27.302  48.951  1.00  0.00    -0.333 N 
HETATM   10  H   UNL     1       6.296  26.916  48.614  1.00  0.00     0.168 HD
BRANCH   9  11
HETATM   11  C   UNL     1       4.519  26.350  49.352  1.00  0.00     0.172 C 
HETATM   12  S   UNL     1       3.350  25.846  48.275  1.00  0.00    -0.041 SA
BRANCH  11  13
HETATM   13  N   UNL     1       4.699  25.843  50.616  1.00  0.00    -0.365 N 
HETATM   14  H   UNL     1       3.844  25.432  50.980  1.00  0.00     0.161 HD
BRANCH  13  15
HETATM   15  C   UNL     1       5.706  26.304  51.569  1.00  0.00     0.155 C 
BRANCH  15  16
HETATM   16  C   UNL     1       6.681  25.195  52.017  1.00  0.00     0.206 C 
HETATM   17  C   UNL     1       7.898  25.685  52.818  1.00  0.00     0.040 C 
HETATM   18  C   UNL     1       8.218  24.717  53.982  1.00  0.00     0.001 C 
HETATM   19  C   UNL     1       7.082  24.736  55.038  1.00  0.00     0.067 C 
HETATM   20  C   UNL     1       8.257  23.288  53.394  1.00  0.00     0.033 C 
HETATM   21  C   UNL     1       5.730  24.613  54.299  1.00  0.00     0.246 C 
HETATM   22  N   UNL     1       5.990  24.127  52.868  1.00  0.00    -0.065 N 
HETATM   23  C   UNL     1       6.863  22.878  52.898  1.00  0.00     0.236 C 
HETATM   24  H   UNL     1       5.087  23.882  52.438  1.00  0.00     0.280 HD
BRANCH  19  25
HETATM   25  C   UNL     1       7.117  25.900  55.988  1.00  0.00     0.038 A 
HETATM   26  N   UNL     1       7.853  25.901  57.154  1.00  0.00    -0.277 N 
HETATM   27  C   UNL     1       8.738  24.871  57.653  1.00  0.00     0.179 C 
HETATM   28  N   UNL     1       7.717  27.019  57.875  1.00  0.00    -0.172 NA
HETATM   29  C   UNL     1       6.935  27.822  57.145  1.00  0.00     0.089 A 
HETATM   30  C   UNL     1       6.548  27.161  55.948  1.00  0.00     0.061 A 
BRANCH  29  31
HETATM   31  C   UNL     1       6.591  29.176  57.584  1.00  0.00    -0.003 A 
HETATM   32  C   UNL     1       7.568  30.001  58.160  1.00  0.00     0.053 A 
HETATM   33  C   UNL     1       7.261  31.306  58.568  1.00  0.00     0.102 A 
HETATM   34  C   UNL     1       5.948  31.792  58.415  1.00  0.00     0.101 A 
HETATM   35  C   UNL     1       4.970  30.968  57.849  1.00  0.00     0.040 A 
HETATM   36  C   UNL     1       5.291  29.672  57.433  1.00  0.00     0.017 A 
BRANCH  33  37
HETATM   37  O   UNL     1       8.164  32.176  59.128  1.00  0.00    -0.353 OA
HETATM   38  C   UNL     1       9.167  31.632  59.974  1.00  0.00     0.210 C 
ENDBRANCH  33  37
BRANCH  34  39
HETATM   39  O   UNL     1       5.727  33.077  58.843  1.00  0.00    -0.353 OA
HETATM   40  C   UNL     1       4.761  33.852  58.148  1.00  0.00     0.210 C 
ENDBRANCH  34  39
ENDBRANCH  29  31
ENDBRANCH  19  25
ENDBRANCH  15  16
ENDBRANCH  13  15
ENDBRANCH  11  13
ENDBRANCH   9  11
ENDBRANCH   1   9
TORSDOF 9
ENDMDL
MODEL 4
REMARK VINA RESULT:      -8.7      2.755      6.345
REMARK  9 active torsions:
REMARK  status: ('A' for Active; 'I' for Inactive)
REMARK    1  A    between atoms: C_4  and  C_5 
REMARK    2  A    between atoms: C_7  and  O_8 
REMARK    3  A    between atoms: C_10  and  O_11 
REMARK    4  A    between atoms: C_16  and  C_17 
REMARK    5  A    between atoms: C_20  and  C_21 
REMARK    6  A    between atoms: C_21  and  N_22 
REMARK    7  A    between atoms: N_22  and  C_23 
REMARK    8  A    between atoms: C_23  and  N_24 
REMARK    9  A    between atoms: N_24  and  C_25 
ROOT
HETATM    1  C   UNL     1       6.947  24.175  54.580  1.00  0.00     0.035 A 
HETATM    2  C   UNL     1       7.532  23.229  55.423  1.00  0.00     0.052 A 
HETATM    3  C   UNL     1       8.125  22.071  54.904  1.00  0.00     0.046 A 
HETATM    4  C   UNL     1       8.679  21.115  55.815  1.00  0.00     0.099 C 
HETATM    5  N   UNL     1       9.072  20.381  56.623  1.00  0.00    -0.191 NA
HETATM    6  C   UNL     1       8.162  21.868  53.525  1.00  0.00     0.023 A 
HETATM    7  C   UNL     1       7.615  22.828  52.672  1.00  0.00     0.004 A 
HETATM    8  C   UNL     1       7.017  23.979  53.198  1.00  0.00     0.029 A 
ENDROOT
BRANCH   1   9
HETATM    9  N   UNL     1       6.350  25.364  55.052  1.00  0.00    -0.333 N 
HETATM   10  H   UNL     1       5.353  25.307  55.247  1.00  0.00     0.168 HD
BRANCH   9  11
HETATM   11  C   UNL     1       6.849  26.637  55.120  1.00  0.00     0.172 C 
HETATM   12  S   UNL     1       7.249  27.419  53.703  1.00  0.00    -0.041 SA
BRANCH  11  13
HETATM   13  N   UNL     1       6.927  27.190  56.375  1.00  0.00    -0.365 N 
HETATM   14  H   UNL     1       7.781  26.917  56.853  1.00  0.00     0.161 HD
BRANCH  13  15
HETATM   15  C   UNL     1       5.781  27.597  57.185  1.00  0.00     0.155 C 
BRANCH  15  16
HETATM   16  C   UNL     1       5.686  29.124  57.391  1.00  0.00     0.206 C 
HETATM   17  C   UNL     1       6.254  29.972  56.242  1.00  0.00     0.040 C 
HETATM   18  C   UNL     1       5.357  31.203  55.968  1.00  0.00     0.001 C 
HETATM   19  C   UNL     1       3.974  30.762  55.420  1.00  0.00     0.067 C 
HETATM   20  C   UNL     1       5.098  31.893  57.328  1.00  0.00     0.033 C 
HETATM   21  C   UNL     1       3.441  29.617  56.311  1.00  0.00     0.246 C 
HETATM   22  N   UNL     1       4.246  29.589  57.617  1.00  0.00    -0.065 N 
HETATM   23  C   UNL     1       4.267  30.980  58.239  1.00  0.00     0.236 C 
HETATM   24  H   UNL     1       3.780  28.946  58.273  1.00  0.00     0.280 HD
BRANCH  19  25
HETATM   25  C   UNL     1       3.953  30.414  53.959  1.00  0.00     0.038 A 
HETATM   26  N   UNL     1       3.978  31.361  52.957  1.00  0.00    -0.277 N 
HETATM   27  C   UNL     1       4.085  32.798  53.087  1.00  0.00     0.179 C 
HETATM   28  N   UNL     1       3.914  30.844  51.725  1.00  0.00    -0.172 NA
HETATM   29  C   UNL     1       3.923  29.516  51.895  1.00  0.00     0.089 A 
HETATM   30  C   UNL     1       3.960  29.207  53.281  1.00  0.00     0.061 A 
BRANCH  29  31
HETATM   31  C   UNL     1       3.911  28.591  50.760  1.00  0.00    -0.003 A 
HETATM   32  C   UNL     1       3.179  28.900  49.605  1.00  0.00     0.053 A 
HETATM   33  C   UNL     1       3.172  28.036  48.502  1.00  0.00     0.102 A 
HETATM   34  C   UNL     1       3.896  26.828  48.560  1.00  0.00     0.101 A 
HETATM   35  C   UNL     1       4.619  26.513  49.714  1.00  0.00     0.040 A 
HETATM   36  C   UNL     1       4.630  27.390  50.804  1.00  0.00     0.017 A 
BRANCH  33  37
HETATM   37  O   UNL     1       2.492  28.273  47.333  1.00  0.00    -0.353 OA
HETATM   38  C   UNL     1       1.160  28.757  47.433  1.00  0.00     0.210 C 
ENDBRANCH  33  37
BRANCH  34  39
HETATM   39  O   UNL     1       3.835  26.034  47.442  1.00  0.00    -0.353 OA
HETATM   40  C   UNL     1       3.109  24.818  47.529  1.00  0.00     0.210 C 
ENDBRANCH  34  39
ENDBRANCH  29  31
ENDBRANCH  19  25
ENDBRANCH  15  16
ENDBRANCH  13  15
ENDBRANCH  11  13
ENDBRANCH   9  11
ENDBRANCH   1   9
TORSDOF 9
ENDMDL
MODEL 5
REMARK VINA RESULT:      -8.7      3.736      7.681
REMARK  9 active torsions:
REMARK  status: ('A' for Active; 'I' for Inactive)
REMARK    1  A    between atoms: C_4  and  C_5 
REMARK    2  A    between atoms: C_7  and  O_8 
REMARK    3  A    between atoms: C_10  and  O_11 
REMARK    4  A    between atoms: C_16  and  C_17 
REMARK    5  A    between atoms: C_20  and  C_21 
REMARK    6  A    between atoms: C_21  and  N_22 
REMARK    7  A    between atoms: N_22  and  C_23 
REMARK    8  A    between atoms: C_23  and  N_24 
REMARK    9  A    between atoms: N_24  and  C_25 
ROOT
HETATM    1  C   UNL     1       8.784  30.726  58.875  1.00  0.00     0.035 A 
HETATM    2  C   UNL     1       8.284  29.502  58.431  1.00  0.00     0.052 A 
HETATM    3  C   UNL     1       8.918  28.796  57.400  1.00  0.00     0.046 A 
HETATM    4  C   UNL     1       8.342  27.560  56.958  1.00  0.00     0.099 C 
HETATM    5  N   UNL     1       7.792  26.590  56.641  1.00  0.00    -0.191 NA
HETATM    6  C   UNL     1      10.082  29.303  56.825  1.00  0.00     0.023 A 
HETATM    7  C   UNL     1      10.611  30.508  57.290  1.00  0.00     0.004 A 
HETATM    8  C   UNL     1       9.968  31.211  58.315  1.00  0.00     0.029 A 
ENDROOT
BRANCH   1   9
HETATM    9  N   UNL     1       8.191  31.468  59.919  1.00  0.00    -0.333 N 
HETATM   10  H   UNL     1       8.010  32.449  59.714  1.00  0.00     0.168 HD
BRANCH   9  11
HETATM   11  C   UNL     1       7.983  31.137  61.231  1.00  0.00     0.172 C 
HETATM   12  S   UNL     1       9.234  30.450  62.093  1.00  0.00    -0.041 SA
BRANCH  11  13
HETATM   13  N   UNL     1       6.751  31.458  61.748  1.00  0.00    -0.365 N 
HETATM   14  H   UNL     1       6.081  31.673  61.015  1.00  0.00     0.161 HD
BRANCH  13  15
HETATM   15  C   UNL     1       6.518  32.007  63.082  1.00  0.00     0.155 C 
BRANCH  15  16
HETATM   16  C   UNL     1       5.803  33.374  63.067  1.00  0.00     0.206 C 
HETATM   17  C   UNL     1       5.884  34.136  61.735  1.00  0.00     0.040 C 
HETATM   18  C   UNL     1       4.537  34.822  61.408  1.00  0.00     0.001 C 
HETATM   19  C   UNL     1       3.436  33.764  61.132  1.00  0.00     0.067 C 
HETATM   20  C   UNL     1       4.100  35.601  62.670  1.00  0.00     0.033 C 
HETATM   21  C   UNL     1       3.494  32.700  62.252  1.00  0.00     0.246 C 
HETATM   22  N   UNL     1       4.319  33.254  63.421  1.00  0.00    -0.065 N 
HETATM   23  C   UNL     1       3.792  34.628  63.817  1.00  0.00     0.236 C 
HETATM   24  H   UNL     1       4.211  32.620  64.225  1.00  0.00     0.280 HD
BRANCH  19  25
HETATM   25  C   UNL     1       3.467  33.158  59.758  1.00  0.00     0.038 A 
HETATM   26  N   UNL     1       3.059  33.833  58.626  1.00  0.00    -0.277 N 
HETATM   27  C   UNL     1       2.599  35.199  58.518  1.00  0.00     0.179 C 
HETATM   28  N   UNL     1       3.132  33.102  57.509  1.00  0.00    -0.172 NA
HETATM   29  C   UNL     1       3.673  31.935  57.880  1.00  0.00     0.089 A 
HETATM   30  C   UNL     1       3.909  31.937  59.280  1.00  0.00     0.061 A 
BRANCH  29  31
HETATM   31  C   UNL     1       3.960  30.873  56.913  1.00  0.00    -0.003 A 
HETATM   32  C   UNL     1       3.576  31.016  55.572  1.00  0.00     0.053 A 
HETATM   33  C   UNL     1       3.861  30.019  54.630  1.00  0.00     0.102 A 
HETATM   34  C   UNL     1       4.525  28.845  55.038  1.00  0.00     0.101 A 
HETATM   35  C   UNL     1       4.900  28.696  56.376  1.00  0.00     0.040 A 
HETATM   36  C   UNL     1       4.624  29.705  57.306  1.00  0.00     0.017 A 
BRANCH  33  37
HETATM   37  O   UNL     1       3.529  30.090  53.300  1.00  0.00    -0.353 OA
HETATM   38  C   UNL     1       3.217  31.370  52.766  1.00  0.00     0.210 C 
ENDBRANCH  33  37
BRANCH  34  39
HETATM   39  O   UNL     1       4.762  27.914  54.058  1.00  0.00    -0.353 OA
HETATM   40  C   UNL     1       6.095  27.764  53.593  1.00  0.00     0.210 C 
ENDBRANCH  34  39
ENDBRANCH  29  31
ENDBRANCH  19  25
ENDBRANCH  15  16
ENDBRANCH  13  15
ENDBRANCH  11  13
ENDBRANCH   9  11
ENDBRANCH   1   9
TORSDOF 9
ENDMDL
MODEL 6
REMARK VINA RESULT:      -8.5      5.703      9.160
REMARK  9 active torsions:
REMARK  status: ('A' for Active; 'I' for Inactive)
REMARK    1  A    between atoms: C_4  and  C_5 
REMARK    2  A    between atoms: C_7  and  O_8 
REMARK    3  A    between atoms: C_10  and  O_11 
REMARK    4  A    between atoms: C_16  and  C_17 
REMARK    5  A    between atoms: C_20  and  C_21 
REMARK    6  A    between atoms: C_21  and  N_22 
REMARK    7  A    between atoms: N_22  and  C_23 
REMARK    8  A    between atoms: C_23  and  N_24 
REMARK    9  A    between atoms: N_24  and  C_25 
ROOT
HETATM    1  C   UNL     1       7.655  24.465  53.242  1.00  0.00     0.035 A 
HETATM    2  C   UNL     1       7.870  23.122  52.929  1.00  0.00     0.052 A 
HETATM    3  C   UNL     1       8.347  22.225  53.894  1.00  0.00     0.046 A 
HETATM    4  C   UNL     1       8.586  20.866  53.511  1.00  0.00     0.099 C 
HETATM    5  N   UNL     1       8.781  19.796  53.107  1.00  0.00    -0.191 NA
HETATM    6  C   UNL     1       8.584  22.666  55.195  1.00  0.00     0.023 A 
HETATM    7  C   UNL     1       8.333  23.999  55.527  1.00  0.00     0.004 A 
HETATM    8  C   UNL     1       7.864  24.891  54.556  1.00  0.00     0.029 A 
ENDROOT
BRANCH   1   9
HETATM    9  N   UNL     1       7.162  25.404  52.310  1.00  0.00    -0.333 N 
HETATM   10  H   UNL     1       7.810  26.142  52.046  1.00  0.00     0.168 HD
BRANCH   9  11
HETATM   11  C   UNL     1       5.891  25.596  51.837  1.00  0.00     0.172 C 
HETATM   12  S   UNL     1       4.602  25.154  52.798  1.00  0.00    -0.041 SA
BRANCH  11  13
HETATM   13  N   UNL     1       5.789  26.200  50.608  1.00  0.00    -0.365 N 
HETATM   14  H   UNL     1       6.489  25.851  49.959  1.00  0.00     0.161 HD
BRANCH  13  15
HETATM   15  C   UNL     1       5.224  27.526  50.368  1.00  0.00     0.155 C 
BRANCH  15  16
HETATM   16  C   UNL     1       3.778  27.489  49.831  1.00  0.00     0.206 C 
HETATM   17  C   UNL     1       3.068  28.852  49.779  1.00  0.00     0.040 C 
HETATM   18  C   UNL     1       2.226  28.988  48.489  1.00  0.00     0.001 C 
HETATM   19  C   UNL     1       3.143  29.030  47.238  1.00  0.00     0.067 C 
HETATM   20  C   UNL     1       1.364  27.710  48.366  1.00  0.00     0.033 C 
HETATM   21  C   UNL     1       4.175  27.886  47.353  1.00  0.00     0.246 C 
HETATM   22  N   UNL     1       3.699  26.894  48.423  1.00  0.00    -0.065 N 
HETATM   23  C   UNL     1       2.259  26.483  48.139  1.00  0.00     0.236 C 
HETATM   24  H   UNL     1       4.292  26.054  48.376  1.00  0.00     0.280 HD
BRANCH  19  25
HETATM   25  C   UNL     1       3.785  30.361  46.967  1.00  0.00     0.038 A 
HETATM   26  N   UNL     1       3.204  31.333  46.180  1.00  0.00    -0.277 N 
HETATM   27  C   UNL     1       1.909  31.306  45.536  1.00  0.00     0.179 C 
HETATM   28  N   UNL     1       3.956  32.429  46.034  1.00  0.00    -0.172 NA
HETATM   29  C   UNL     1       5.034  32.226  46.801  1.00  0.00     0.089 A 
HETATM   30  C   UNL     1       4.958  30.946  47.412  1.00  0.00     0.061 A 
BRANCH  29  31
HETATM   31  C   UNL     1       6.084  33.238  46.944  1.00  0.00    -0.003 A 
HETATM   32  C   UNL     1       6.768  33.709  45.814  1.00  0.00     0.053 A 
HETATM   33  C   UNL     1       7.761  34.690  45.930  1.00  0.00     0.102 A 
HETATM   34  C   UNL     1       8.093  35.199  47.202  1.00  0.00     0.101 A 
HETATM   35  C   UNL     1       7.418  34.723  48.330  1.00  0.00     0.040 A 
HETATM   36  C   UNL     1       6.418  33.753  48.201  1.00  0.00     0.017 A 
BRANCH  33  37
HETATM   37  O   UNL     1       8.466  35.210  44.872  1.00  0.00    -0.353 OA
HETATM   38  C   UNL     1       7.772  36.064  43.974  1.00  0.00     0.210 C 
ENDBRANCH  33  37
BRANCH  34  39
HETATM   39  O   UNL     1       9.078  36.153  47.232  1.00  0.00    -0.353 OA
HETATM   40  C   UNL     1      10.076  36.047  48.236  1.00  0.00     0.210 C 
ENDBRANCH  34  39
ENDBRANCH  29  31
ENDBRANCH  19  25
ENDBRANCH  15  16
ENDBRANCH  13  15
ENDBRANCH  11  13
ENDBRANCH   9  11
ENDBRANCH   1   9
TORSDOF 9
ENDMDL
MODEL 7
REMARK VINA RESULT:      -8.3      3.191      8.618
REMARK  9 active torsions:
REMARK  status: ('A' for Active; 'I' for Inactive)
REMARK    1  A    between atoms: C_4  and  C_5 
REMARK    2  A    between atoms: C_7  and  O_8 
REMARK    3  A    between atoms: C_10  and  O_11 
REMARK    4  A    between atoms: C_16  and  C_17 
REMARK    5  A    between atoms: C_20  and  C_21 
REMARK    6  A    between atoms: C_21  and  N_22 
REMARK    7  A    between atoms: N_22  and  C_23 
REMARK    8  A    between atoms: C_23  and  N_24 
REMARK    9  A    between atoms: N_24  and  C_25 
ROOT
HETATM    1  C   UNL     1       4.176  28.577  50.253  1.00  0.00     0.035 A 
HETATM    2  C   UNL     1       3.691  27.385  49.714  1.00  0.00     0.052 A 
HETATM    3  C   UNL     1       4.082  26.960  48.437  1.00  0.00     0.046 A 
HETATM    4  C   UNL     1       3.527  25.747  47.916  1.00  0.00     0.099 C 
HETATM    5  N   UNL     1       3.004  24.774  47.560  1.00  0.00    -0.191 NA
HETATM    6  C   UNL     1       4.991  27.719  47.701  1.00  0.00     0.023 A 
HETATM    7  C   UNL     1       5.512  28.892  48.249  1.00  0.00     0.004 A 
HETATM    8  C   UNL     1       5.111  29.315  49.521  1.00  0.00     0.029 A 
ENDROOT
BRANCH   1   9
HETATM    9  N   UNL     1       3.824  29.041  51.539  1.00  0.00    -0.333 N 
HETATM   10  H   UNL     1       3.055  29.707  51.570  1.00  0.00     0.168 HD
BRANCH   9  11
HETATM   11  C   UNL     1       4.463  28.886  52.740  1.00  0.00     0.172 C 
HETATM   12  S   UNL     1       5.947  28.127  52.766  1.00  0.00    -0.041 SA
BRANCH  11  13
HETATM   13  N   UNL     1       3.835  29.430  53.833  1.00  0.00    -0.365 N 
HETATM   14  H   UNL     1       3.165  28.785  54.241  1.00  0.00     0.161 HD
BRANCH  13  15
HETATM   15  C   UNL     1       3.650  30.860  54.069  1.00  0.00     0.155 C 
BRANCH  15  16
HETATM   16  C   UNL     1       3.376  31.209  55.547  1.00  0.00     0.206 C 
HETATM   17  C   UNL     1       3.384  30.010  56.510  1.00  0.00     0.040 C 
HETATM   18  C   UNL     1       4.079  30.378  57.843  1.00  0.00     0.001 C 
HETATM   19  C   UNL     1       5.591  30.648  57.616  1.00  0.00     0.067 C 
HETATM   20  C   UNL     1       3.458  31.706  58.334  1.00  0.00     0.033 C 
HETATM   21  C   UNL     1       5.739  31.588  56.399  1.00  0.00     0.246 C 
HETATM   22  N   UNL     1       4.377  32.227  56.097  1.00  0.00    -0.065 N 
HETATM   23  C   UNL     1       3.806  32.846  57.367  1.00  0.00     0.236 C 
HETATM   24  H   UNL     1       4.515  32.976  55.404  1.00  0.00     0.280 HD
BRANCH  19  25
HETATM   25  C   UNL     1       6.445  29.417  57.503  1.00  0.00     0.038 A 
HETATM   26  N   UNL     1       7.621  29.248  58.203  1.00  0.00    -0.277 N 
HETATM   27  C   UNL     1       8.216  30.134  59.178  1.00  0.00     0.179 C 
HETATM   28  N   UNL     1       8.248  28.098  57.931  1.00  0.00    -0.172 NA
HETATM   29  C   UNL     1       7.442  27.442  57.088  1.00  0.00     0.089 A 
HETATM   30  C   UNL     1       6.295  28.231  56.806  1.00  0.00     0.061 A 
BRANCH  29  31
HETATM   31  C   UNL     1       7.766  26.103  56.592  1.00  0.00    -0.003 A 
HETATM   32  C   UNL     1       7.523  25.770  55.251  1.00  0.00     0.053 A 
HETATM   33  C   UNL     1       7.846  24.501  54.754  1.00  0.00     0.102 A 
HETATM   34  C   UNL     1       8.403  23.536  55.617  1.00  0.00     0.101 A 
HETATM   35  C   UNL     1       8.637  23.863  56.955  1.00  0.00     0.040 A 
HETATM   36  C   UNL     1       8.324  25.138  57.438  1.00  0.00     0.017 A 
BRANCH  33  37
HETATM   37  O   UNL     1       7.651  24.103  53.454  1.00  0.00    -0.353 OA
HETATM   38  C   UNL     1       6.338  24.211  52.921  1.00  0.00     0.210 C 
ENDBRANCH  33  37
BRANCH  34  39
HETATM   39  O   UNL     1       8.686  22.316  55.055  1.00  0.00    -0.353 OA
HETATM   40  C   UNL     1       7.913  21.199  55.468  1.00  0.00     0.210 C 
ENDBRANCH  34  39
ENDBRANCH  29  31
ENDBRANCH  19  25
ENDBRANCH  15  16
ENDBRANCH  13  15
ENDBRANCH  11  13
ENDBRANCH   9  11
ENDBRANCH   1   9
TORSDOF 9
ENDMDL
MODEL 8
REMARK VINA RESULT:      -8.3      1.497      2.584
REMARK  9 active torsions:
REMARK  status: ('A' for Active; 'I' for Inactive)
REMARK    1  A    between atoms: C_4  and  C_5 
REMARK    2  A    between atoms: C_7  and  O_8 
REMARK    3  A    between atoms: C_10  and  O_11 
REMARK    4  A    between atoms: C_16  and  C_17 
REMARK    5  A    between atoms: C_20  and  C_21 
REMARK    6  A    between atoms: C_21  and  N_22 
REMARK    7  A    between atoms: N_22  and  C_23 
REMARK    8  A    between atoms: C_23  and  N_24 
REMARK    9  A    between atoms: N_24  and  C_25 
ROOT
HETATM    1  C   UNL     1       6.878  31.905  59.392  1.00  0.00     0.035 A 
HETATM    2  C   UNL     1       6.906  32.375  60.705  1.00  0.00     0.052 A 
HETATM    3  C   UNL     1       7.938  32.011  61.580  1.00  0.00     0.046 A 
HETATM    4  C   UNL     1       7.899  32.492  62.928  1.00  0.00     0.099 C 
HETATM    5  N   UNL     1       7.770  32.899  64.007  1.00  0.00    -0.191 NA
HETATM    6  C   UNL     1       8.973  31.192  61.130  1.00  0.00     0.023 A 
HETATM    7  C   UNL     1       8.974  30.749  59.806  1.00  0.00     0.004 A 
HETATM    8  C   UNL     1       7.936  31.110  58.940  1.00  0.00     0.029 A 
ENDROOT
BRANCH   1   9
HETATM    9  N   UNL     1       5.869  32.254  58.468  1.00  0.00    -0.333 N 
HETATM   10  H   UNL     1       5.877  33.222  58.154  1.00  0.00     0.168 HD
BRANCH   9  11
HETATM   11  C   UNL     1       4.764  31.556  58.061  1.00  0.00     0.172 C 
HETATM   12  S   UNL     1       3.618  31.134  59.196  1.00  0.00    -0.041 SA
BRANCH  11  13
HETATM   13  N   UNL     1       4.670  31.306  56.714  1.00  0.00    -0.365 N 
HETATM   14  H   UNL     1       3.706  31.330  56.394  1.00  0.00     0.161 HD
BRANCH  13  15
HETATM   15  C   UNL     1       5.639  30.541  55.933  1.00  0.00     0.155 C 
BRANCH  15  16
HETATM   16  C   UNL     1       6.018  29.190  56.576  1.00  0.00     0.206 C 
HETATM   17  C   UNL     1       5.181  27.989  56.107  1.00  0.00     0.040 C 
HETATM   18  C   UNL     1       6.070  26.737  55.919  1.00  0.00     0.001 C 
HETATM   19  C   UNL     1       7.065  26.942  54.746  1.00  0.00     0.067 C 
HETATM   20  C   UNL     1       6.919  26.580  57.202  1.00  0.00     0.033 C 
HETATM   21  C   UNL     1       7.730  28.327  54.911  1.00  0.00     0.246 C 
HETATM   22  N   UNL     1       7.486  28.828  56.340  1.00  0.00    -0.065 N 
HETATM   23  C   UNL     1       7.898  27.754  57.340  1.00  0.00     0.236 C 
HETATM   24  H   UNL     1       8.071  29.661  56.498  1.00  0.00     0.280 HD
BRANCH  19  25
HETATM   25  C   UNL     1       6.481  26.741  53.376  1.00  0.00     0.038 A 
HETATM   26  N   UNL     1       6.657  25.586  52.643  1.00  0.00    -0.277 N 
HETATM   27  C   UNL     1       7.348  24.377  53.032  1.00  0.00     0.179 C 
HETATM   28  N   UNL     1       6.087  25.625  51.434  1.00  0.00    -0.172 NA
HETATM   29  C   UNL     1       5.447  26.798  51.378  1.00  0.00     0.089 A 
HETATM   30  C   UNL     1       5.659  27.521  52.582  1.00  0.00     0.061 A 
BRANCH  29  31
HETATM   31  C   UNL     1       4.653  27.192  50.213  1.00  0.00    -0.003 A 
HETATM   32  C   UNL     1       3.820  28.320  50.274  1.00  0.00     0.053 A 
HETATM   33  C   UNL     1       3.069  28.723  49.162  1.00  0.00     0.102 A 
HETATM   34  C   UNL     1       3.134  27.974  47.970  1.00  0.00     0.101 A 
HETATM   35  C   UNL     1       3.956  26.845  47.910  1.00  0.00     0.040 A 
HETATM   36  C   UNL     1       4.712  26.460  49.022  1.00  0.00     0.017 A 
BRANCH  33  37
HETATM   37  O   UNL     1       2.243  29.819  49.140  1.00  0.00    -0.353 OA
HETATM   38  C   UNL     1       2.640  30.959  49.890  1.00  0.00     0.210 C 
ENDBRANCH  33  37
BRANCH  34  39
HETATM   39  O   UNL     1       2.366  28.431  46.928  1.00  0.00    -0.353 OA
HETATM   40  C   UNL     1       1.096  27.829  46.725  1.00  0.00     0.210 C 
ENDBRANCH  34  39
ENDBRANCH  29  31
ENDBRANCH  19  25
ENDBRANCH  15  16
ENDBRANCH  13  15
ENDBRANCH  11  13
ENDBRANCH   9  11
ENDBRANCH   1   9
TORSDOF 9
ENDMDL
MODEL 9
REMARK VINA RESULT:      -8.2      3.425      6.109
REMARK  9 active torsions:
REMARK  status: ('A' for Active; 'I' for Inactive)
REMARK    1  A    between atoms: C_4  and  C_5 
REMARK    2  A    between atoms: C_7  and  O_8 
REMARK    3  A    between atoms: C_10  and  O_11 
REMARK    4  A    between atoms: C_16  and  C_17 
REMARK    5  A    between atoms: C_20  and  C_21 
REMARK    6  A    between atoms: C_21  and  N_22 
REMARK    7  A    between atoms: N_22  and  C_23 
REMARK    8  A    between atoms: C_23  and  N_24 
REMARK    9  A    between atoms: N_24  and  C_25 
ROOT
HETATM    1  C   UNL     1       6.399  32.073  61.179  1.00  0.00     0.035 A 
HETATM    2  C   UNL     1       7.341  32.008  60.151  1.00  0.00     0.052 A 
HETATM    3  C   UNL     1       8.714  32.026  60.430  1.00  0.00     0.046 A 
HETATM    4  C   UNL     1       9.638  31.993  59.336  1.00  0.00     0.099 C 
HETATM    5  N   UNL     1      10.313  31.996  58.392  1.00  0.00    -0.191 NA
HETATM    6  C   UNL     1       9.154  32.081  61.751  1.00  0.00     0.023 A 
HETATM    7  C   UNL     1       8.219  32.108  62.788  1.00  0.00     0.004 A 
HETATM    8  C   UNL     1       6.849  32.096  62.502  1.00  0.00     0.029 A 
ENDROOT
BRANCH   1   9
HETATM    9  N   UNL     1       5.007  32.043  60.951  1.00  0.00    -0.333 N 
HETATM   10  H   UNL     1       4.599  31.116  60.850  1.00  0.00     0.168 HD
BRANCH   9  11
HETATM   11  C   UNL     1       4.136  33.059  60.660  1.00  0.00     0.172 C 
HETATM   12  S   UNL     1       3.251  33.736  61.900  1.00  0.00    -0.041 SA
BRANCH  11  13
HETATM   13  N   UNL     1       4.109  33.476  59.352  1.00  0.00    -0.365 N 
HETATM   14  H   UNL     1       3.881  34.463  59.277  1.00  0.00     0.161 HD
BRANCH  13  15
HETATM   15  C   UNL     1       3.842  32.615  58.202  1.00  0.00     0.155 C 
BRANCH  15  16
HETATM   16  C   UNL     1       3.758  33.382  56.866  1.00  0.00     0.206 C 
HETATM   17  C   UNL     1       4.905  33.102  55.882  1.00  0.00     0.040 C 
HETATM   18  C   UNL     1       4.375  33.003  54.431  1.00  0.00     0.001 C 
HETATM   19  C   UNL     1       3.466  31.757  54.264  1.00  0.00     0.067 C 
HETATM   20  C   UNL     1       3.484  34.242  54.182  1.00  0.00     0.033 C 
HETATM   21  C   UNL     1       2.465  31.725  55.440  1.00  0.00     0.246 C 
HETATM   22  N   UNL     1       2.452  33.100  56.119  1.00  0.00    -0.065 N 
HETATM   23  C   UNL     1       2.236  34.188  55.074  1.00  0.00     0.236 C 
HETATM   24  H   UNL     1       1.667  33.129  56.785  1.00  0.00     0.280 HD
BRANCH  19  25
HETATM   25  C   UNL     1       4.198  30.456  54.092  1.00  0.00     0.038 A 
HETATM   26  N   UNL     1       4.404  29.863  52.864  1.00  0.00    -0.277 N 
HETATM   27  C   UNL     1       4.037  30.362  51.557  1.00  0.00     0.179 C 
HETATM   28  N   UNL     1       5.044  28.691  52.934  1.00  0.00    -0.172 NA
HETATM   29  C   UNL     1       5.345  28.525  54.228  1.00  0.00     0.089 A 
HETATM   30  C   UNL     1       4.842  29.617  54.984  1.00  0.00     0.061 A 
BRANCH  29  31
HETATM   31  C   UNL     1       6.099  27.363  54.704  1.00  0.00    -0.003 A 
HETATM   32  C   UNL     1       6.092  26.168  53.971  1.00  0.00     0.053 A 
HETATM   33  C   UNL     1       6.824  25.053  54.402  1.00  0.00     0.102 A 
HETATM   34  C   UNL     1       7.563  25.126  55.599  1.00  0.00     0.101 A 
HETATM   35  C   UNL     1       7.564  26.314  56.336  1.00  0.00     0.040 A 
HETATM   36  C   UNL     1       6.841  27.425  55.889  1.00  0.00     0.017 A 
BRANCH  33  37
HETATM   37  O   UNL     1       6.877  23.854  53.734  1.00  0.00    -0.353 OA
HETATM   38  C   UNL     1       7.768  23.752  52.632  1.00  0.00     0.210 C 
ENDBRANCH  33  37
BRANCH  34  39
HETATM   39  O   UNL     1       8.249  23.992  55.955  1.00  0.00    -0.353 OA
HETATM   40  C   UNL     1       8.683  23.872  57.301  1.00  0.00     0.210 C 
ENDBRANCH  34  39
ENDBRANCH  29  31
ENDBRANCH  19  25
ENDBRANCH  15  16
ENDBRANCH  13  15
ENDBRANCH  11  13
ENDBRANCH   9  11
ENDBRANCH   1   9
TORSDOF 9
ENDMDL
MODEL 10
REMARK VINA RESULT:      -8.1      4.988      8.680
REMARK  9 active torsions:
REMARK  status: ('A' for Active; 'I' for Inactive)
REMARK    1  A    between atoms: C_4  and  C_5 
REMARK    2  A    between atoms: C_7  and  O_8 
REMARK    3  A    between atoms: C_10  and  O_11 
REMARK    4  A    between atoms: C_16  and  C_17 
REMARK    5  A    between atoms: C_20  and  C_21 
REMARK    6  A    between atoms: C_21  and  N_22 
REMARK    7  A    between atoms: N_22  and  C_23 
REMARK    8  A    between atoms: C_23  and  N_24 
REMARK    9  A    between atoms: N_24  and  C_25 
ROOT
HETATM    1  C   UNL     1       6.551  24.439  54.323  1.00  0.00     0.035 A 
HETATM    2  C   UNL     1       6.993  23.595  55.343  1.00  0.00     0.052 A 
HETATM    3  C   UNL     1       7.827  22.504  55.065  1.00  0.00     0.046 A 
HETATM    4  C   UNL     1       8.222  21.648  56.144  1.00  0.00     0.099 C 
HETATM    5  N   UNL     1       8.464  20.991  57.068  1.00  0.00    -0.191 NA
HETATM    6  C   UNL     1       8.251  22.269  53.758  1.00  0.00     0.023 A 
HETATM    7  C   UNL     1       7.846  23.131  52.737  1.00  0.00     0.004 A 
HETATM    8  C   UNL     1       7.007  24.214  53.021  1.00  0.00     0.029 A 
ENDROOT
BRANCH   1   9
HETATM    9  N   UNL     1       5.723  25.559  54.553  1.00  0.00    -0.333 N 
HETATM   10  H   UNL     1       4.741  25.351  54.722  1.00  0.00     0.168 HD
BRANCH   9  11
HETATM   11  C   UNL     1       5.982  26.895  54.406  1.00  0.00     0.172 C 
HETATM   12  S   UNL     1       7.159  27.593  55.359  1.00  0.00    -0.041 SA
BRANCH  11  13
HETATM   13  N   UNL     1       5.271  27.544  53.427  1.00  0.00    -0.365 N 
HETATM   14  H   UNL     1       4.270  27.493  53.593  1.00  0.00     0.161 HD
BRANCH  13  15
HETATM   15  C   UNL     1       5.735  27.764  52.059  1.00  0.00     0.155 C 
BRANCH  15  16
HETATM   16  C   UNL     1       4.638  27.548  50.996  1.00  0.00     0.206 C 
HETATM   17  C   UNL     1       3.633  28.702  50.854  1.00  0.00     0.040 C 
HETATM   18  C   UNL     1       3.286  28.953  49.368  1.00  0.00     0.001 C 
HETATM   19  C   UNL     1       4.525  29.481  48.598  1.00  0.00     0.067 C 
HETATM   20  C   UNL     1       2.922  27.586  48.743  1.00  0.00     0.033 C 
HETATM   21  C   UNL     1       5.735  28.587  48.954  1.00  0.00     0.246 C 
HETATM   22  N   UNL     1       5.223  27.296  49.604  1.00  0.00    -0.065 N 
HETATM   23  C   UNL     1       4.151  26.666  48.723  1.00  0.00     0.236 C 
HETATM   24  H   UNL     1       6.010  26.635  49.681  1.00  0.00     0.280 HD
BRANCH  19  25
HETATM   25  C   UNL     1       4.813  30.944  48.784  1.00  0.00     0.038 A 
HETATM   26  N   UNL     1       4.279  31.927  47.978  1.00  0.00    -0.277 N 
HETATM   27  C   UNL     1       3.340  31.777  46.888  1.00  0.00     0.179 C 
HETATM   28  N   UNL     1       4.690  33.160  48.290  1.00  0.00    -0.172 NA
HETATM   29  C   UNL     1       5.458  33.017  49.377  1.00  0.00     0.089 A 
HETATM   30  C   UNL     1       5.549  31.643  49.725  1.00  0.00     0.061 A 
BRANCH  29  31
HETATM   31  C   UNL     1       6.064  34.166  50.053  1.00  0.00    -0.003 A 
HETATM   32  C   UNL     1       6.138  34.201  51.454  1.00  0.00     0.053 A 
HETATM   33  C   UNL     1       6.732  35.283  52.116  1.00  0.00     0.102 A 
HETATM   34  C   UNL     1       7.246  36.361  51.369  1.00  0.00     0.101 A 
HETATM   35  C   UNL     1       7.164  36.332  49.974  1.00  0.00     0.040 A 
HETATM   36  C   UNL     1       6.581  35.240  49.321  1.00  0.00     0.017 A 
BRANCH  33  37
HETATM   37  O   UNL     1       6.854  35.385  53.481  1.00  0.00    -0.353 OA
HETATM   38  C   UNL     1       5.669  35.286  54.258  1.00  0.00     0.210 C 
ENDBRANCH  33  37
BRANCH  34  39
HETATM   39  O   UNL     1       7.807  37.384  52.092  1.00  0.00    -0.353 OA
HETATM   40  C   UNL     1       8.959  38.020  51.559  1.00  0.00     0.210 C 
ENDBRANCH  34  39
ENDBRANCH  29  31
ENDBRANCH  19  25
ENDBRANCH  15  16
ENDBRANCH  13  15
ENDBRANCH  11  13
ENDBRANCH   9  11
ENDBRANCH   1   9
TORSDOF 9
ENDMDL
