MODEL 1
REMARK VINA RESULT:      -9.4      0.000      0.000
REMARK  2 active torsions:
REMARK  status: ('A' for Active; 'I' for Inactive)
REMARK    1  A    between atoms: C_5  and  C_6 
REMARK    2  A    between atoms: C_15  and  C_16 
ROOT
HETATM    1  C   UNL     1       6.203  26.218  55.406  1.00  0.00     0.190 A 
HETATM    2  N   UNL     1       7.009  27.379  55.680  1.00  0.00    -0.308 N 
HETATM    3  C   UNL     1       8.083  27.082  56.483  1.00  0.00     0.320 A 
HETATM    4  O   UNL     1       8.870  27.895  56.932  1.00  0.00    -0.247 OA
HETATM    5  N   UNL     1       8.137  25.726  56.701  1.00  0.00    -0.308 N 
HETATM    6  N   UNL     1       5.026  26.293  56.233  1.00  0.00    -0.308 N 
HETATM    7  C   UNL     1       5.037  25.357  57.238  1.00  0.00     0.320 A 
HETATM    8  O   UNL     1       4.181  25.237  58.095  1.00  0.00    -0.247 OA
HETATM    9  N   UNL     1       6.159  24.573  57.126  1.00  0.00    -0.308 N 
HETATM   10  C   UNL     1       7.036  25.032  56.081  1.00  0.00     0.190 A 
HETATM   11  H   UNL     1       6.740  28.331  55.493  1.00  0.00     0.167 HD
HETATM   12  H   UNL     1       8.815  25.313  57.321  1.00  0.00     0.167 HD
HETATM   13  H   UNL     1       4.317  27.008  56.179  1.00  0.00     0.167 HD
HETATM   14  H   UNL     1       6.402  23.898  57.834  1.00  0.00     0.167 HD
ENDROOT
BRANCH   1  15
HETATM   15  C   UNL     1       5.861  26.087  53.928  1.00  0.00    -0.005 A 
HETATM   16  C   UNL     1       5.011  25.065  53.468  1.00  0.00     0.012 A 
HETATM   17  C   UNL     1       4.652  24.975  52.119  1.00  0.00     0.007 A 
HETATM   18  C   UNL     1       5.135  25.901  51.192  1.00  0.00    -0.062 A 
HETATM   19  C   UNL     1       4.723  25.836  49.752  1.00  0.00     0.048 C 
HETATM   20  C   UNL     1       5.972  26.928  51.636  1.00  0.00     0.007 A 
HETATM   21  C   UNL     1       6.329  27.020  52.985  1.00  0.00     0.012 A 
ENDBRANCH   1  15
BRANCH  10  22
HETATM   22  C   UNL     1       7.507  23.899  55.181  1.00  0.00    -0.005 A 
HETATM   23  C   UNL     1       8.071  24.155  53.917  1.00  0.00     0.012 A 
HETATM   24  C   UNL     1       8.455  23.113  53.069  1.00  0.00     0.007 A 
HETATM   25  C   UNL     1       8.282  21.782  53.458  1.00  0.00    -0.062 A 
HETATM   26  C   UNL     1       8.668  20.655  52.547  1.00  0.00     0.048 C 
HETATM   27  C   UNL     1       7.718  21.511  54.708  1.00  0.00     0.007 A 
HETATM   28  C   UNL     1       7.336  22.553  55.556  1.00  0.00     0.012 A 
ENDBRANCH  10  22
TORSDOF 2
ENDMDL
MODEL 2
REMARK VINA RESULT:      -9.2     11.335     14.283
REMARK  2 active torsions:
REMARK  status: ('A' for Active; 'I' for Inactive)
REMARK    1  A    between atoms: C_5  and  C_6 
REMARK    2  A    between atoms: C_15  and  C_16 
ROOT
HETATM    1  C   UNL     1       4.051  34.110  63.745  1.00  0.00     0.190 A 
HETATM    2  N   UNL     1       2.971  33.538  62.983  1.00  0.00    -0.308 N 
HETATM    3  C   UNL     1       2.032  34.478  62.635  1.00  0.00     0.320 A 
HETATM    4  O   UNL     1       0.983  34.245  62.065  1.00  0.00    -0.247 OA
HETATM    5  N   UNL     1       2.460  35.724  63.024  1.00  0.00    -0.308 N 
HETATM    6  N   UNL     1       3.850  33.759  65.128  1.00  0.00    -0.308 N 
HETATM    7  C   UNL     1       3.481  34.842  65.889  1.00  0.00     0.320 A 
HETATM    8  O   UNL     1       3.214  34.806  67.076  1.00  0.00    -0.247 OA
HETATM    9  N   UNL     1       3.468  35.972  65.109  1.00  0.00    -0.308 N 
HETATM   10  C   UNL     1       3.720  35.674  63.723  1.00  0.00     0.190 A 
HETATM   11  H   UNL     1       2.792  32.552  62.877  1.00  0.00     0.167 HD
HETATM   12  H   UNL     1       1.883  36.543  62.918  1.00  0.00     0.167 HD
HETATM   13  H   UNL     1       3.855  32.823  65.502  1.00  0.00     0.167 HD
HETATM   14  H   UNL     1       3.120  36.850  65.461  1.00  0.00     0.167 HD
ENDROOT
BRANCH   1  15
HETATM   15  C   UNL     1       5.416  33.670  63.233  1.00  0.00    -0.005 A 
HETATM   16  C   UNL     1       6.494  33.477  64.116  1.00  0.00     0.012 A 
HETATM   17  C   UNL     1       7.733  33.021  63.656  1.00  0.00     0.007 A 
HETATM   18  C   UNL     1       7.932  32.750  62.300  1.00  0.00    -0.062 A 
HETATM   19  C   UNL     1       9.245  32.224  61.803  1.00  0.00     0.048 C 
HETATM   20  C   UNL     1       6.867  32.928  61.413  1.00  0.00     0.007 A 
HETATM   21  C   UNL     1       5.627  33.381  61.873  1.00  0.00     0.012 A 
ENDBRANCH   1  15
BRANCH  10  22
HETATM   22  C   UNL     1       4.755  36.606  63.109  1.00  0.00    -0.005 A 
HETATM   23  C   UNL     1       5.616  37.373  63.914  1.00  0.00     0.012 A 
HETATM   24  C   UNL     1       6.530  38.268  63.351  1.00  0.00     0.007 A 
HETATM   25  C   UNL     1       6.607  38.425  61.964  1.00  0.00    -0.062 A 
HETATM   26  C   UNL     1       7.567  39.398  61.348  1.00  0.00     0.048 C 
HETATM   27  C   UNL     1       5.754  37.672  61.151  1.00  0.00     0.007 A 
HETATM   28  C   UNL     1       4.841  36.777  61.715  1.00  0.00     0.012 A 
ENDBRANCH  10  22
TORSDOF 2
ENDMDL
MODEL 3
REMARK VINA RESULT:      -9.2     11.327     13.751
REMARK  2 active torsions:
REMARK  status: ('A' for Active; 'I' for Inactive)
REMARK    1  A    between atoms: C_5  and  C_6 
REMARK    2  A    between atoms: C_15  and  C_16 
ROOT
HETATM    1  C   UNL     1       3.713  35.674  63.707  1.00  0.00     0.190 A 
HETATM    2  N   UNL     1       3.464  35.971  65.094  1.00  0.00    -0.308 N 
HETATM    3  C   UNL     1       3.480  34.840  65.873  1.00  0.00     0.320 A 
HETATM    4  O   UNL     1       3.216  34.802  67.061  1.00  0.00    -0.247 OA
HETATM    5  N   UNL     1       3.844  33.757  65.109  1.00  0.00    -0.308 N 
HETATM    6  N   UNL     1       2.452  35.727  63.011  1.00  0.00    -0.308 N 
HETATM    7  C   UNL     1       2.021  34.482  62.623  1.00  0.00     0.320 A 
HETATM    8  O   UNL     1       0.969  34.249  62.055  1.00  0.00    -0.247 OA
HETATM    9  N   UNL     1       2.960  33.540  62.966  1.00  0.00    -0.308 N 
HETATM   10  C   UNL     1       4.042  34.109  63.726  1.00  0.00     0.190 A 
HETATM   11  H   UNL     1       3.119  36.848  65.449  1.00  0.00     0.167 HD
HETATM   12  H   UNL     1       3.850  32.821  65.481  1.00  0.00     0.167 HD
HETATM   13  H   UNL     1       1.874  36.546  62.909  1.00  0.00     0.167 HD
HETATM   14  H   UNL     1       2.779  32.554  62.860  1.00  0.00     0.167 HD
ENDROOT
BRANCH   1  15
HETATM   15  C   UNL     1       4.748  36.606  63.093  1.00  0.00    -0.005 A 
HETATM   16  C   UNL     1       4.824  36.789  61.700  1.00  0.00     0.012 A 
HETATM   17  C   UNL     1       5.738  37.685  61.137  1.00  0.00     0.007 A 
HETATM   18  C   UNL     1       6.605  38.420  61.949  1.00  0.00    -0.062 A 
HETATM   19  C   UNL     1       7.560  39.412  61.357  1.00  0.00     0.048 C 
HETATM   20  C   UNL     1       6.534  38.256  63.335  1.00  0.00     0.007 A 
HETATM   21  C   UNL     1       5.618  37.363  63.899  1.00  0.00     0.012 A 
ENDBRANCH   1  15
BRANCH  10  22
HETATM   22  C   UNL     1       5.405  33.669  63.212  1.00  0.00    -0.005 A 
HETATM   23  C   UNL     1       5.614  33.378  61.851  1.00  0.00     0.012 A 
HETATM   24  C   UNL     1       6.852  32.923  61.388  1.00  0.00     0.007 A 
HETATM   25  C   UNL     1       7.918  32.742  62.274  1.00  0.00    -0.062 A 
HETATM   26  C   UNL     1       9.244  32.233  61.794  1.00  0.00     0.048 C 
HETATM   27  C   UNL     1       7.724  33.022  63.630  1.00  0.00     0.007 A 
HETATM   28  C   UNL     1       6.487  33.478  64.092  1.00  0.00     0.012 A 
ENDBRANCH  10  22
TORSDOF 2
ENDMDL
MODEL 4
REMARK VINA RESULT:      -8.7      3.503      6.854
REMARK  2 active torsions:
REMARK  status: ('A' for Active; 'I' for Inactive)
REMARK    1  A    between atoms: C_5  and  C_6 
REMARK    2  A    between atoms: C_15  and  C_16 
ROOT
HETATM    1  C   UNL     1       6.339  27.115  55.655  1.00  0.00     0.190 A 
HETATM    2  N   UNL     1       6.402  26.700  54.278  1.00  0.00    -0.308 N 
HETATM    3  C   UNL     1       5.219  26.930  53.617  1.00  0.00     0.320 A 
HETATM    4  O   UNL     1       4.979  26.596  52.472  1.00  0.00    -0.247 OA
HETATM    5  N   UNL     1       4.350  27.599  54.444  1.00  0.00    -0.308 N 
HETATM    6  N   UNL     1       6.183  25.934  56.465  1.00  0.00    -0.308 N 
HETATM    7  C   UNL     1       4.929  25.845  57.017  1.00  0.00     0.320 A 
HETATM    8  O   UNL     1       4.529  24.925  57.708  1.00  0.00    -0.247 OA
HETATM    9  N   UNL     1       4.194  26.955  56.676  1.00  0.00    -0.308 N 
HETATM   10  C   UNL     1       4.902  27.809  55.759  1.00  0.00     0.190 A 
HETATM   11  H   UNL     1       7.127  26.130  53.874  1.00  0.00     0.167 HD
HETATM   12  H   UNL     1       3.403  27.803  54.169  1.00  0.00     0.167 HD
HETATM   13  H   UNL     1       6.854  25.185  56.543  1.00  0.00     0.167 HD
HETATM   14  H   UNL     1       3.214  27.025  56.897  1.00  0.00     0.167 HD
ENDROOT
BRANCH   1  15
HETATM   15  C   UNL     1       7.552  27.939  56.067  1.00  0.00    -0.005 A 
HETATM   16  C   UNL     1       8.331  28.612  55.108  1.00  0.00     0.012 A 
HETATM   17  C   UNL     1       9.412  29.413  55.488  1.00  0.00     0.007 A 
HETATM   18  C   UNL     1       9.750  29.559  56.835  1.00  0.00    -0.062 A 
HETATM   19  C   UNL     1      10.883  30.447  57.254  1.00  0.00     0.048 C 
HETATM   20  C   UNL     1       8.979  28.905  57.799  1.00  0.00     0.007 A 
HETATM   21  C   UNL     1       7.896  28.106  57.421  1.00  0.00     0.012 A 
ENDBRANCH   1  15
BRANCH  10  22
HETATM   22  C   UNL     1       4.854  29.272  56.175  1.00  0.00    -0.005 A 
HETATM   23  C   UNL     1       4.929  30.305  55.222  1.00  0.00     0.012 A 
HETATM   24  C   UNL     1       4.938  31.649  55.609  1.00  0.00     0.007 A 
HETATM   25  C   UNL     1       4.876  31.999  56.960  1.00  0.00    -0.062 A 
HETATM   26  C   UNL     1       4.908  33.435  57.389  1.00  0.00     0.048 C 
HETATM   27  C   UNL     1       4.806  30.983  57.918  1.00  0.00     0.007 A 
HETATM   28  C   UNL     1       4.796  29.641  57.532  1.00  0.00     0.012 A 
ENDBRANCH  10  22
TORSDOF 2
ENDMDL
MODEL 5
REMARK VINA RESULT:      -8.6      3.508      6.128
REMARK  2 active torsions:
REMARK  status: ('A' for Active; 'I' for Inactive)
REMARK    1  A    between atoms: C_5  and  C_6 
REMARK    2  A    between atoms: C_15  and  C_16 
ROOT
HETATM    1  C   UNL     1       4.907  27.812  55.756  1.00  0.00     0.190 A 
HETATM    2  N   UNL     1       4.196  26.954  56.668  1.00  0.00    -0.308 N 
HETATM    3  C   UNL     1       4.932  25.846  57.012  1.00  0.00     0.320 A 
HETATM    4  O   UNL     1       4.533  24.924  57.699  1.00  0.00    -0.247 OA
HETATM    5  N   UNL     1       6.189  25.939  56.466  1.00  0.00    -0.308 N 
HETATM    6  N   UNL     1       4.362  27.603  54.439  1.00  0.00    -0.308 N 
HETATM    7  C   UNL     1       5.236  26.937  53.615  1.00  0.00     0.320 A 
HETATM    8  O   UNL     1       5.004  26.603  52.467  1.00  0.00    -0.247 OA
HETATM    9  N   UNL     1       6.417  26.711  54.281  1.00  0.00    -0.308 N 
HETATM   10  C   UNL     1       6.346  27.123  55.658  1.00  0.00     0.190 A 
HETATM   11  H   UNL     1       3.215  27.021  56.886  1.00  0.00     0.167 HD
HETATM   12  H   UNL     1       6.862  25.193  56.546  1.00  0.00     0.167 HD
HETATM   13  H   UNL     1       3.414  27.804  54.158  1.00  0.00     0.167 HD
HETATM   14  H   UNL     1       7.145  26.141  53.880  1.00  0.00     0.167 HD
ENDROOT
BRANCH   1  15
HETATM   15  C   UNL     1       4.851  29.274  56.176  1.00  0.00    -0.005 A 
HETATM   16  C   UNL     1       4.781  29.637  57.533  1.00  0.00     0.012 A 
HETATM   17  C   UNL     1       4.785  30.980  57.924  1.00  0.00     0.007 A 
HETATM   18  C   UNL     1       4.854  31.998  56.970  1.00  0.00    -0.062 A 
HETATM   19  C   UNL     1       4.899  33.438  57.382  1.00  0.00     0.048 C 
HETATM   20  C   UNL     1       4.935  31.652  55.619  1.00  0.00     0.007 A 
HETATM   21  C   UNL     1       4.934  30.310  55.227  1.00  0.00     0.012 A 
ENDBRANCH   1  15
BRANCH  10  22
HETATM   22  C   UNL     1       7.553  27.948  56.079  1.00  0.00    -0.005 A 
HETATM   23  C   UNL     1       7.883  28.122  57.436  1.00  0.00     0.012 A 
HETATM   24  C   UNL     1       8.960  28.923  57.823  1.00  0.00     0.007 A 
HETATM   25  C   UNL     1       9.739  29.579  56.865  1.00  0.00    -0.062 A 
HETATM   26  C   UNL     1      10.883  30.459  57.269  1.00  0.00     0.048 C 
HETATM   27  C   UNL     1       9.420  29.420  55.513  1.00  0.00     0.007 A 
HETATM   28  C   UNL     1       8.343  28.618  55.126  1.00  0.00     0.012 A 
ENDBRANCH  10  22
TORSDOF 2
ENDMDL
MODEL 6
REMARK VINA RESULT:      -8.4     11.504     14.795
REMARK  2 active torsions:
REMARK  status: ('A' for Active; 'I' for Inactive)
REMARK    1  A    between atoms: C_5  and  C_6 
REMARK    2  A    between atoms: C_15  and  C_16 
ROOT
HETATM    1  C   UNL     1       3.983  33.815  63.072  1.00  0.00     0.190 A 
HETATM    2  N   UNL     1       4.527  32.790  62.219  1.00  0.00    -0.308 N 
HETATM    3  C   UNL     1       4.739  33.244  60.940  1.00  0.00     0.320 A 
HETATM    4  O   UNL     1       5.112  32.560  60.005  1.00  0.00    -0.247 OA
HETATM    5  N   UNL     1       4.473  34.591  60.878  1.00  0.00    -0.308 N 
HETATM    6  N   UNL     1       2.575  33.555  63.232  1.00  0.00    -0.308 N 
HETATM    7  C   UNL     1       1.799  34.475  62.571  1.00  0.00     0.320 A 
HETATM    8  O   UNL     1       0.583  34.456  62.515  1.00  0.00    -0.247 OA
HETATM    9  N   UNL     1       2.603  35.424  61.987  1.00  0.00    -0.308 N 
HETATM   10  C   UNL     1       4.000  35.111  62.136  1.00  0.00     0.190 A 
HETATM   11  H   UNL     1       4.567  31.808  62.441  1.00  0.00     0.167 HD
HETATM   12  H   UNL     1       4.505  35.100  60.009  1.00  0.00     0.167 HD
HETATM   13  H   UNL     1       2.176  32.739  63.670  1.00  0.00     0.167 HD
HETATM   14  H   UNL     1       2.226  36.124  61.368  1.00  0.00     0.167 HD
ENDROOT
BRANCH   1  15
HETATM   15  C   UNL     1       4.708  33.899  64.408  1.00  0.00    -0.005 A 
HETATM   16  C   UNL     1       6.103  33.739  64.489  1.00  0.00     0.012 A 
HETATM   17  C   UNL     1       6.777  33.870  65.707  1.00  0.00     0.007 A 
HETATM   18  C   UNL     1       6.077  34.160  66.879  1.00  0.00    -0.062 A 
HETATM   19  C   UNL     1       6.796  34.341  68.182  1.00  0.00     0.048 C 
HETATM   20  C   UNL     1       4.691  34.332  66.813  1.00  0.00     0.007 A 
HETATM   21  C   UNL     1       4.017  34.204  65.596  1.00  0.00     0.012 A 
ENDBRANCH   1  15
BRANCH  10  22
HETATM   22  C   UNL     1       4.816  36.308  62.604  1.00  0.00    -0.005 A 
HETATM   23  C   UNL     1       4.545  36.942  63.831  1.00  0.00     0.012 A 
HETATM   24  C   UNL     1       5.258  38.074  64.235  1.00  0.00     0.007 A 
HETATM   25  C   UNL     1       6.263  38.607  63.423  1.00  0.00    -0.062 A 
HETATM   26  C   UNL     1       7.020  39.834  63.835  1.00  0.00     0.048 C 
HETATM   27  C   UNL     1       6.539  37.991  62.199  1.00  0.00     0.007 A 
HETATM   28  C   UNL     1       5.827  36.859  61.795  1.00  0.00     0.012 A 
ENDBRANCH  10  22
TORSDOF 2
ENDMDL
MODEL 7
REMARK VINA RESULT:      -8.2     10.292     13.321
REMARK  2 active torsions:
REMARK  status: ('A' for Active; 'I' for Inactive)
REMARK    1  A    between atoms: C_5  and  C_6 
REMARK    2  A    between atoms: C_15  and  C_16 
ROOT
HETATM    1  C   UNL     1       5.188  33.153  61.751  1.00  0.00     0.190 A 
HETATM    2  N   UNL     1       4.005  32.450  61.325  1.00  0.00    -0.308 N 
HETATM    3  C   UNL     1       3.782  31.319  62.072  1.00  0.00     0.320 A 
HETATM    4  O   UNL     1       2.902  30.504  61.866  1.00  0.00    -0.247 OA
HETATM    5  N   UNL     1       4.700  31.250  63.091  1.00  0.00    -0.308 N 
HETATM    6  N   UNL     1       6.235  32.870  60.802  1.00  0.00    -0.308 N 
HETATM    7  C   UNL     1       7.207  32.055  61.330  1.00  0.00     0.320 A 
HETATM    8  O   UNL     1       8.177  31.637  60.725  1.00  0.00    -0.247 OA
HETATM    9  N   UNL     1       6.921  31.790  62.648  1.00  0.00    -0.308 N 
HETATM   10  C   UNL     1       5.649  32.334  63.044  1.00  0.00     0.190 A 
HETATM   11  H   UNL     1       3.501  32.623  60.470  1.00  0.00     0.167 HD
HETATM   12  H   UNL     1       4.747  30.459  63.714  1.00  0.00     0.167 HD
HETATM   13  H   UNL     1       6.227  33.125  59.827  1.00  0.00     0.167 HD
HETATM   14  H   UNL     1       7.460  31.124  63.179  1.00  0.00     0.167 HD
ENDROOT
BRANCH   1  15
HETATM   15  C   UNL     1       4.946  34.647  61.911  1.00  0.00    -0.005 A 
HETATM   16  C   UNL     1       6.006  35.529  62.188  1.00  0.00     0.012 A 
HETATM   17  C   UNL     1       5.796  36.908  62.282  1.00  0.00     0.007 A 
HETATM   18  C   UNL     1       4.518  37.445  62.107  1.00  0.00    -0.062 A 
HETATM   19  C   UNL     1       4.290  38.926  62.166  1.00  0.00     0.048 C 
HETATM   20  C   UNL     1       3.456  36.583  61.820  1.00  0.00     0.007 A 
HETATM   21  C   UNL     1       3.667  35.205  61.723  1.00  0.00     0.012 A 
ENDBRANCH   1  15
BRANCH  10  22
HETATM   22  C   UNL     1       5.726  33.087  64.365  1.00  0.00    -0.005 A 
HETATM   23  C   UNL     1       6.963  33.369  64.973  1.00  0.00     0.012 A 
HETATM   24  C   UNL     1       7.031  34.013  66.212  1.00  0.00     0.007 A 
HETATM   25  C   UNL     1       5.864  34.391  66.881  1.00  0.00    -0.062 A 
HETATM   26  C   UNL     1       5.923  35.061  68.221  1.00  0.00     0.048 C 
HETATM   27  C   UNL     1       4.628  34.111  66.291  1.00  0.00     0.007 A 
HETATM   28  C   UNL     1       4.559  33.468  65.053  1.00  0.00     0.012 A 
ENDBRANCH  10  22
TORSDOF 2
ENDMDL
MODEL 8
REMARK VINA RESULT:      -7.8      8.578     10.766
REMARK  2 active torsions:
REMARK  status: ('A' for Active; 'I' for Inactive)
REMARK    1  A    between atoms: C_5  and  C_6 
REMARK    2  A    between atoms: C_15  and  C_16 
ROOT
HETATM    1  C   UNL     1       3.757  34.135  60.946  1.00  0.00     0.190 A 
HETATM    2  N   UNL     1       3.813  35.498  60.484  1.00  0.00    -0.308 N 
HETATM    3  C   UNL     1       4.637  36.272  61.264  1.00  0.00     0.320 A 
HETATM    4  O   UNL     1       4.795  37.473  61.142  1.00  0.00    -0.247 OA
HETATM    5  N   UNL     1       5.263  35.484  62.200  1.00  0.00    -0.308 N 
HETATM    6  N   UNL     1       2.510  33.957  61.645  1.00  0.00    -0.308 N 
HETATM    7  C   UNL     1       2.689  33.821  63.000  1.00  0.00     0.320 A 
HETATM    8  O   UNL     1       1.795  33.698  63.818  1.00  0.00    -0.247 OA
HETATM    9  N   UNL     1       4.031  33.838  63.293  1.00  0.00    -0.308 N 
HETATM   10  C   UNL     1       4.833  34.110  62.129  1.00  0.00     0.190 A 
HETATM   11  H   UNL     1       3.188  35.910  59.810  1.00  0.00     0.167 HD
HETATM   12  H   UNL     1       5.860  35.874  62.912  1.00  0.00     0.167 HD
HETATM   13  H   UNL     1       1.592  34.035  61.235  1.00  0.00     0.167 HD
HETATM   14  H   UNL     1       4.361  33.858  64.245  1.00  0.00     0.167 HD
ENDROOT
BRANCH   1  15
HETATM   15  C   UNL     1       3.930  33.133  59.814  1.00  0.00    -0.005 A 
HETATM   16  C   UNL     1       3.374  31.844  59.894  1.00  0.00     0.012 A 
HETATM   17  C   UNL     1       3.484  30.940  58.833  1.00  0.00     0.007 A 
HETATM   18  C   UNL     1       4.158  31.297  57.663  1.00  0.00    -0.062 A 
HETATM   19  C   UNL     1       4.248  30.349  56.505  1.00  0.00     0.048 C 
HETATM   20  C   UNL     1       4.707  32.578  57.564  1.00  0.00     0.007 A 
HETATM   21  C   UNL     1       4.594  33.483  58.624  1.00  0.00     0.012 A 
ENDBRANCH   1  15
BRANCH  10  22
HETATM   22  C   UNL     1       6.005  33.149  61.995  1.00  0.00    -0.005 A 
HETATM   23  C   UNL     1       6.064  31.960  62.745  1.00  0.00     0.012 A 
HETATM   24  C   UNL     1       7.166  31.104  62.662  1.00  0.00     0.007 A 
HETATM   25  C   UNL     1       8.244  31.414  61.828  1.00  0.00    -0.062 A 
HETATM   26  C   UNL     1       9.442  30.516  61.747  1.00  0.00     0.048 C 
HETATM   27  C   UNL     1       8.202  32.594  61.081  1.00  0.00     0.007 A 
HETATM   28  C   UNL     1       7.100  33.450  61.164  1.00  0.00     0.012 A 
ENDBRANCH  10  22
TORSDOF 2
ENDMDL
MODEL 9
REMARK VINA RESULT:      -7.8      8.579     11.407
REMARK  2 active torsions:
REMARK  status: ('A' for Active; 'I' for Inactive)
REMARK    1  A    between atoms: C_5  and  C_6 
REMARK    2  A    between atoms: C_15  and  C_16 
ROOT
HETATM    1  C   UNL     1       4.831  34.114  62.123  1.00  0.00     0.190 A 
HETATM    2  N   UNL     1       4.033  33.842  63.291  1.00  0.00    -0.308 N 
HETATM    3  C   UNL     1       2.690  33.824  63.003  1.00  0.00     0.320 A 
HETATM    4  O   UNL     1       1.799  33.702  63.823  1.00  0.00    -0.247 OA
HETATM    5  N   UNL     1       2.505  33.961  61.649  1.00  0.00    -0.308 N 
HETATM    6  N   UNL     1       5.262  35.487  62.192  1.00  0.00    -0.308 N 
HETATM    7  C   UNL     1       4.633  36.275  61.260  1.00  0.00     0.320 A 
HETATM    8  O   UNL     1       4.789  37.476  61.136  1.00  0.00    -0.247 OA
HETATM    9  N   UNL     1       3.806  35.501  60.482  1.00  0.00    -0.308 N 
HETATM   10  C   UNL     1       3.751  34.139  60.945  1.00  0.00     0.190 A 
HETATM   11  H   UNL     1       4.367  33.860  64.241  1.00  0.00     0.167 HD
HETATM   12  H   UNL     1       1.587  34.039  61.241  1.00  0.00     0.167 HD
HETATM   13  H   UNL     1       5.861  35.878  62.903  1.00  0.00     0.167 HD
HETATM   14  H   UNL     1       3.177  35.914  59.811  1.00  0.00     0.167 HD
ENDROOT
BRANCH   1  15
HETATM   15  C   UNL     1       6.002  33.150  61.986  1.00  0.00    -0.005 A 
HETATM   16  C   UNL     1       7.099  33.454  61.159  1.00  0.00     0.012 A 
HETATM   17  C   UNL     1       8.200  32.597  61.074  1.00  0.00     0.007 A 
HETATM   18  C   UNL     1       8.235  31.409  61.807  1.00  0.00    -0.062 A 
HETATM   19  C   UNL     1       9.428  30.503  61.752  1.00  0.00     0.048 C 
HETATM   20  C   UNL     1       7.157  31.098  62.641  1.00  0.00     0.007 A 
HETATM   21  C   UNL     1       6.057  31.957  62.729  1.00  0.00     0.012 A 
ENDBRANCH   1  15
BRANCH  10  22
HETATM   22  C   UNL     1       3.918  33.136  59.813  1.00  0.00    -0.005 A 
HETATM   23  C   UNL     1       4.563  33.488  58.613  1.00  0.00     0.012 A 
HETATM   24  C   UNL     1       4.669  32.583  57.553  1.00  0.00     0.007 A 
HETATM   25  C   UNL     1       4.129  31.298  57.661  1.00  0.00    -0.062 A 
HETATM   26  C   UNL     1       4.216  30.326  56.523  1.00  0.00     0.048 C 
HETATM   27  C   UNL     1       3.481  30.935  58.845  1.00  0.00     0.007 A 
HETATM   28  C   UNL     1       3.376  31.840  59.904  1.00  0.00     0.012 A 
ENDBRANCH  10  22
TORSDOF 2
ENDMDL
MODEL 10
REMARK VINA RESULT:      -7.7      3.829      5.914
REMARK  2 active torsions:
REMARK  status: ('A' for Active; 'I' for Inactive)
REMARK    1  A    between atoms: C_5  and  C_6 
REMARK    2  A    between atoms: C_15  and  C_16 
ROOT
HETATM    1  C   UNL     1       4.787  29.058  52.487  1.00  0.00     0.190 A 
HETATM    2  N   UNL     1       3.373  29.327  52.544  1.00  0.00    -0.308 N 
HETATM    3  C   UNL     1       2.673  28.601  51.612  1.00  0.00     0.320 A 
HETATM    4  O   UNL     1       1.480  28.704  51.394  1.00  0.00    -0.247 OA
HETATM    5  N   UNL     1       3.523  27.736  50.967  1.00  0.00    -0.308 N 
HETATM    6  N   UNL     1       5.420  30.164  51.816  1.00  0.00    -0.308 N 
HETATM    7  C   UNL     1       5.872  29.822  50.565  1.00  0.00     0.320 A 
HETATM    8  O   UNL     1       6.406  30.584  49.779  1.00  0.00    -0.247 OA
HETATM    9  N   UNL     1       5.634  28.489  50.337  1.00  0.00    -0.308 N 
HETATM   10  C   UNL     1       4.888  27.883  51.408  1.00  0.00     0.190 A 
HETATM   11  H   UNL     1       2.946  30.089  53.046  1.00  0.00     0.167 HD
HETATM   12  H   UNL     1       3.216  27.160  50.199  1.00  0.00     0.167 HD
HETATM   13  H   UNL     1       5.442  31.116  52.148  1.00  0.00     0.167 HD
HETATM   14  H   UNL     1       5.798  28.073  49.433  1.00  0.00     0.167 HD
ENDROOT
BRANCH   1  15
HETATM   15  C   UNL     1       5.383  28.804  53.865  1.00  0.00    -0.005 A 
HETATM   16  C   UNL     1       4.560  28.662  54.997  1.00  0.00     0.012 A 
HETATM   17  C   UNL     1       5.101  28.375  56.254  1.00  0.00     0.007 A 
HETATM   18  C   UNL     1       6.480  28.225  56.417  1.00  0.00    -0.062 A 
HETATM   19  C   UNL     1       7.066  27.878  57.752  1.00  0.00     0.048 C 
HETATM   20  C   UNL     1       7.310  28.353  55.299  1.00  0.00     0.007 A 
HETATM   21  C   UNL     1       6.769  28.637  54.042  1.00  0.00     0.012 A 
ENDBRANCH   1  15
BRANCH  10  22
HETATM   22  C   UNL     1       5.490  26.560  51.859  1.00  0.00    -0.005 A 
HETATM   23  C   UNL     1       4.791  25.694  52.719  1.00  0.00     0.012 A 
HETATM   24  C   UNL     1       5.366  24.505  53.176  1.00  0.00     0.007 A 
HETATM   25  C   UNL     1       6.660  24.148  52.787  1.00  0.00    -0.062 A 
HETATM   26  C   UNL     1       7.297  22.886  53.288  1.00  0.00     0.048 C 
HETATM   27  C   UNL     1       7.369  25.001  51.937  1.00  0.00     0.007 A 
HETATM   28  C   UNL     1       6.794  26.189  51.480  1.00  0.00     0.012 A 
ENDBRANCH  10  22
TORSDOF 2
ENDMDL
