MODEL 1
REMARK VINA RESULT:      -8.8      0.000      0.000
REMARK  4 active torsions:
REMARK  status: ('A' for Active; 'I' for Inactive)
REMARK    1  A    between atoms: C_2  and  O_3 
REMARK    2  A    between atoms: O_3  and  C_4 
REMARK    3  A    between atoms: C_11  and  C_12 
REMARK    4  A    between atoms: C_16  and  N_17 
ROOT
HETATM    1  C   UNL     1       6.389  29.184  55.080  1.00  0.00     0.108 C 
HETATM    2  C   UNL     1       4.914  29.384  55.431  1.00  0.00     0.067 C 
HETATM    3  C   UNL     1       3.974  29.714  54.283  1.00  0.00     0.020 C 
HETATM    4  N   UNL     1       3.194  29.987  53.331  1.00  0.00    -0.096 N 
HETATM    5  C   UNL     1       4.449  29.455  56.709  1.00  0.00     0.139 C 
HETATM    6  O   UNL     1       5.311  29.354  57.818  1.00  0.00    -0.279 OA
HETATM    7  C   UNL     1       6.611  29.365  57.546  1.00  0.00     0.175 A 
HETATM    8  C   UNL     1       7.217  29.303  56.317  1.00  0.00     0.034 A 
HETATM    9  N   UNL     1       7.600  29.464  58.470  1.00  0.00    -0.256 N 
HETATM   10  H   UNL     1       7.518  29.536  59.478  1.00  0.00     0.191 HD
HETATM   11  N   UNL     1       8.828  29.491  57.913  1.00  0.00    -0.177 NA
HETATM   12  C   UNL     1       8.600  29.406  56.592  1.00  0.00     0.062 A 
HETATM   13  C   UNL     1       9.732  29.421  55.633  1.00  0.00     0.073 C 
ENDROOT
BRANCH   1  14
HETATM   14  C   UNL     1       6.690  27.800  54.538  1.00  0.00    -0.003 A 
HETATM   15  C   UNL     1       6.603  27.483  53.186  1.00  0.00     0.134 A 
HETATM   16  N   UNL     1       6.914  26.280  52.650  1.00  0.00    -0.235 NA
HETATM   17 CL   UNL     1       6.096  28.608  51.987  1.00  0.00    -0.062 Cl
HETATM   18  C   UNL     1       7.348  25.311  53.471  1.00  0.00     0.069 A 
HETATM   19  C   UNL     1       7.463  25.502  54.858  1.00  0.00    -0.004 A 
HETATM   20  C   UNL     1       7.708  24.076  52.952  1.00  0.00     0.035 A 
HETATM   21  C   UNL     1       7.937  24.466  55.680  1.00  0.00     0.050 A 
HETATM   22  C   UNL     1       7.113  26.754  55.380  1.00  0.00     0.025 A 
HETATM   23  C   UNL     1       8.310  23.236  55.138  1.00  0.00     0.069 A 
HETATM   24  C   UNL     1       8.188  23.041  53.767  1.00  0.00     0.039 A 
BRANCH  23  25
HETATM   25  O   UNL     1       8.771  22.328  56.048  1.00  0.00    -0.351 OA
BRANCH  25  26
HETATM   26  C   UNL     1       9.213  21.069  55.544  1.00  0.00     0.171 C 
HETATM   27  C   UNL     1       8.165  20.030  55.899  1.00  0.00     0.034 C 
ENDBRANCH  25  26
ENDBRANCH  23  25
ENDBRANCH   1  14
BRANCH   5  28
HETATM   28  N   UNL     1       3.139  29.663  57.072  1.00  0.00    -0.282 NA
HETATM   29  H   UNL     1       2.441  29.479  56.355  1.00  0.00     0.126 HD
HETATM   30  H   UNL     1       2.912  29.246  57.971  1.00  0.00     0.126 HD
ENDBRANCH   5  28
TORSDOF 4
ENDMDL
MODEL 2
REMARK VINA RESULT:      -8.1      9.829     13.902
REMARK  4 active torsions:
REMARK  status: ('A' for Active; 'I' for Inactive)
REMARK    1  A    between atoms: C_2  and  O_3 
REMARK    2  A    between atoms: O_3  and  C_4 
REMARK    3  A    between atoms: C_11  and  C_12 
REMARK    4  A    between atoms: C_16  and  N_17 
ROOT
HETATM    1  C   UNL     1       4.983  33.960  63.655  1.00  0.00     0.108 C 
HETATM    2  C   UNL     1       6.087  33.216  62.902  1.00  0.00     0.067 C 
HETATM    3  C   UNL     1       5.703  32.575  61.579  1.00  0.00     0.020 C 
HETATM    4  N   UNL     1       5.384  32.042  60.481  1.00  0.00    -0.096 N 
HETATM    5  C   UNL     1       7.315  32.957  63.432  1.00  0.00     0.139 C 
HETATM    6  O   UNL     1       7.658  33.358  64.738  1.00  0.00    -0.279 OA
HETATM    7  C   UNL     1       6.665  33.840  65.477  1.00  0.00     0.175 A 
HETATM    8  C   UNL     1       5.387  34.143  65.081  1.00  0.00     0.034 A 
HETATM    9  N   UNL     1       6.741  34.105  66.806  1.00  0.00    -0.256 N 
HETATM   10  H   UNL     1       7.534  33.994  67.428  1.00  0.00     0.191 HD
HETATM   11  N   UNL     1       5.572  34.550  67.312  1.00  0.00    -0.177 NA
HETATM   12  C   UNL     1       4.735  34.562  66.263  1.00  0.00     0.062 A 
HETATM   13  C   UNL     1       3.324  34.988  66.436  1.00  0.00     0.073 C 
ENDROOT
BRANCH   1  14
HETATM   14  C   UNL     1       4.747  35.365  63.131  1.00  0.00    -0.003 A 
HETATM   15  C   UNL     1       3.524  35.782  62.615  1.00  0.00     0.134 A 
HETATM   16  N   UNL     1       3.251  37.036  62.189  1.00  0.00    -0.235 NA
HETATM   17 CL   UNL     1       2.162  34.742  62.466  1.00  0.00    -0.062 Cl
HETATM   18  C   UNL     1       4.220  37.961  62.270  1.00  0.00     0.069 A 
HETATM   19  C   UNL     1       5.503  37.659  62.757  1.00  0.00    -0.004 A 
HETATM   20  C   UNL     1       3.965  39.266  61.873  1.00  0.00     0.035 A 
HETATM   21  C   UNL     1       6.484  38.662  62.840  1.00  0.00     0.050 A 
HETATM   22  C   UNL     1       5.755  36.345  63.171  1.00  0.00     0.025 A 
HETATM   23  C   UNL     1       6.204  39.972  62.452  1.00  0.00     0.069 A 
HETATM   24  C   UNL     1       4.939  40.271  61.960  1.00  0.00     0.039 A 
BRANCH  23  25
HETATM   25  O   UNL     1       7.242  40.846  62.604  1.00  0.00    -0.351 OA
BRANCH  25  26
HETATM   26  C   UNL     1       7.927  40.830  63.856  1.00  0.00     0.171 C 
HETATM   27  C   UNL     1       7.194  41.764  64.801  1.00  0.00     0.034 C 
ENDBRANCH  25  26
ENDBRANCH  23  25
ENDBRANCH   1  14
BRANCH   5  28
HETATM   28  N   UNL     1       8.325  32.268  62.805  1.00  0.00    -0.282 NA
HETATM   29  H   UNL     1       9.274  32.560  63.030  1.00  0.00     0.126 HD
HETATM   30  H   UNL     1       8.195  31.260  62.846  1.00  0.00     0.126 HD
ENDBRANCH   5  28
TORSDOF 4
ENDMDL
MODEL 3
REMARK VINA RESULT:      -8.1      4.952      9.241
REMARK  4 active torsions:
REMARK  status: ('A' for Active; 'I' for Inactive)
REMARK    1  A    between atoms: C_2  and  O_3 
REMARK    2  A    between atoms: O_3  and  C_4 
REMARK    3  A    between atoms: C_11  and  C_12 
REMARK    4  A    between atoms: C_16  and  N_17 
ROOT
HETATM    1  C   UNL     1       6.924  31.083  57.917  1.00  0.00     0.108 C 
HETATM    2  C   UNL     1       7.242  29.611  57.650  1.00  0.00     0.067 C 
HETATM    3  C   UNL     1       8.694  29.263  57.368  1.00  0.00     0.020 C 
HETATM    4  N   UNL     1       9.899  28.974  57.134  1.00  0.00    -0.096 N 
HETATM    5  C   UNL     1       6.287  28.655  57.480  1.00  0.00     0.139 C 
HETATM    6  O   UNL     1       4.913  28.962  57.535  1.00  0.00    -0.279 OA
HETATM    7  C   UNL     1       4.608  30.254  57.581  1.00  0.00     0.175 A 
HETATM    8  C   UNL     1       5.460  31.317  57.742  1.00  0.00     0.034 A 
HETATM    9  N   UNL     1       3.358  30.764  57.451  1.00  0.00    -0.256 N 
HETATM   10  H   UNL     1       2.485  30.268  57.312  1.00  0.00     0.191 HD
HETATM   11  N   UNL     1       3.341  32.112  57.499  1.00  0.00    -0.177 NA
HETATM   12  C   UNL     1       4.629  32.458  57.664  1.00  0.00     0.062 A 
HETATM   13  C   UNL     1       5.015  33.888  57.747  1.00  0.00     0.073 C 
ENDROOT
BRANCH   1  14
HETATM   14  C   UNL     1       7.222  31.508  59.343  1.00  0.00    -0.003 A 
HETATM   15  C   UNL     1       8.492  31.885  59.769  1.00  0.00     0.134 A 
HETATM   16  N   UNL     1       8.793  32.323  61.012  1.00  0.00    -0.235 NA
HETATM   17 CL   UNL     1       9.873  31.864  58.743  1.00  0.00    -0.062 Cl
HETATM   18  C   UNL     1       7.803  32.412  61.913  1.00  0.00     0.069 A 
HETATM   19  C   UNL     1       6.481  32.044  61.610  1.00  0.00    -0.004 A 
HETATM   20  C   UNL     1       8.069  32.889  63.189  1.00  0.00     0.035 A 
HETATM   21  C   UNL     1       5.470  32.168  62.579  1.00  0.00     0.050 A 
HETATM   22  C   UNL     1       6.209  31.577  60.318  1.00  0.00     0.025 A 
HETATM   23  C   UNL     1       5.754  32.665  63.851  1.00  0.00     0.069 A 
HETATM   24  C   UNL     1       7.063  33.020  64.157  1.00  0.00     0.039 A 
BRANCH  23  25
HETATM   25  O   UNL     1       4.675  32.751  64.683  1.00  0.00    -0.351 OA
BRANCH  25  26
HETATM   26  C   UNL     1       4.568  33.922  65.491  1.00  0.00     0.171 C 
HETATM   27  C   UNL     1       3.917  35.008  64.656  1.00  0.00     0.034 C 
ENDBRANCH  25  26
ENDBRANCH  23  25
ENDBRANCH   1  14
BRANCH   5  28
HETATM   28  N   UNL     1       6.525  27.328  57.210  1.00  0.00    -0.282 NA
HETATM   29  H   UNL     1       7.155  26.847  57.847  1.00  0.00     0.126 HD
HETATM   30  H   UNL     1       5.671  26.809  57.020  1.00  0.00     0.126 HD
ENDBRANCH   5  28
TORSDOF 4
ENDMDL
MODEL 4
REMARK VINA RESULT:      -7.9      7.989     11.144
REMARK  4 active torsions:
REMARK  status: ('A' for Active; 'I' for Inactive)
REMARK    1  A    between atoms: C_2  and  O_3 
REMARK    2  A    between atoms: O_3  and  C_4 
REMARK    3  A    between atoms: C_11  and  C_12 
REMARK    4  A    between atoms: C_16  and  N_17 
ROOT
HETATM    1  C   UNL     1       4.527  36.290  62.884  1.00  0.00     0.108 C 
HETATM    2  C   UNL     1       5.154  37.511  62.208  1.00  0.00     0.067 C 
HETATM    3  C   UNL     1       6.020  38.407  63.078  1.00  0.00     0.020 C 
HETATM    4  N   UNL     1       6.739  39.151  63.799  1.00  0.00    -0.096 N 
HETATM    5  C   UNL     1       4.835  37.918  60.948  1.00  0.00     0.139 C 
HETATM    6  O   UNL     1       3.884  37.233  60.167  1.00  0.00    -0.279 OA
HETATM    7  C   UNL     1       3.194  36.285  60.790  1.00  0.00     0.175 A 
HETATM    8  C   UNL     1       3.398  35.783  62.050  1.00  0.00     0.034 A 
HETATM    9  N   UNL     1       2.115  35.642  60.277  1.00  0.00    -0.256 N 
HETATM   10  H   UNL     1       1.679  35.765  59.370  1.00  0.00     0.191 HD
HETATM   11  N   UNL     1       1.583  34.753  61.141  1.00  0.00    -0.177 NA
HETATM   12  C   UNL     1       2.357  34.844  62.235  1.00  0.00     0.062 A 
HETATM   13  C   UNL     1       2.067  34.011  63.429  1.00  0.00     0.073 C 
ENDROOT
BRANCH   1  14
HETATM   14  C   UNL     1       5.484  35.119  63.004  1.00  0.00    -0.003 A 
HETATM   15  C   UNL     1       5.843  34.558  64.226  1.00  0.00     0.134 A 
HETATM   16  N   UNL     1       6.647  33.481  64.378  1.00  0.00    -0.235 NA
HETATM   17 CL   UNL     1       5.283  35.160  65.737  1.00  0.00    -0.062 Cl
HETATM   18  C   UNL     1       7.138  32.893  63.276  1.00  0.00     0.069 A 
HETATM   19  C   UNL     1       6.864  33.376  61.986  1.00  0.00    -0.004 A 
HETATM   20  C   UNL     1       7.940  31.766  63.393  1.00  0.00     0.035 A 
HETATM   21  C   UNL     1       7.386  32.721  60.857  1.00  0.00     0.050 A 
HETATM   22  C   UNL     1       6.043  34.505  61.867  1.00  0.00     0.025 A 
HETATM   23  C   UNL     1       8.176  31.579  60.994  1.00  0.00     0.069 A 
HETATM   24  C   UNL     1       8.458  31.106  62.270  1.00  0.00     0.039 A 
BRANCH  23  25
HETATM   25  O   UNL     1       8.598  31.034  59.816  1.00  0.00    -0.351 OA
BRANCH  25  26
HETATM   26  C   UNL     1       9.599  31.748  59.090  1.00  0.00     0.171 C 
HETATM   27  C   UNL     1      10.151  30.822  58.023  1.00  0.00     0.034 C 
ENDBRANCH  25  26
ENDBRANCH  23  25
ENDBRANCH   1  14
BRANCH   5  28
HETATM   28  N   UNL     1       5.349  39.023  60.313  1.00  0.00    -0.282 NA
HETATM   29  H   UNL     1       4.728  39.826  60.236  1.00  0.00     0.126 HD
HETATM   30  H   UNL     1       6.280  39.265  60.642  1.00  0.00     0.126 HD
ENDBRANCH   5  28
TORSDOF 4
ENDMDL
MODEL 5
REMARK VINA RESULT:      -7.8      9.556     13.505
REMARK  4 active torsions:
REMARK  status: ('A' for Active; 'I' for Inactive)
REMARK    1  A    between atoms: C_2  and  O_3 
REMARK    2  A    between atoms: O_3  and  C_4 
REMARK    3  A    between atoms: C_11  and  C_12 
REMARK    4  A    between atoms: C_16  and  N_17 
ROOT
HETATM    1  C   UNL     1       4.708  34.307  63.045  1.00  0.00     0.108 C 
HETATM    2  C   UNL     1       3.926  34.081  61.750  1.00  0.00     0.067 C 
HETATM    3  C   UNL     1       2.430  34.344  61.796  1.00  0.00     0.020 C 
HETATM    4  N   UNL     1       1.188  34.562  61.834  1.00  0.00    -0.096 N 
HETATM    5  C   UNL     1       4.463  33.502  60.640  1.00  0.00     0.139 C 
HETATM    6  O   UNL     1       5.799  33.056  60.609  1.00  0.00    -0.279 OA
HETATM    7  C   UNL     1       6.442  33.070  61.771  1.00  0.00     0.175 A 
HETATM    8  C   UNL     1       6.025  33.610  62.961  1.00  0.00     0.034 A 
HETATM    9  N   UNL     1       7.660  32.514  61.994  1.00  0.00    -0.256 N 
HETATM   10  H   UNL     1       8.259  32.023  61.340  1.00  0.00     0.191 HD
HETATM   11  N   UNL     1       8.060  32.641  63.276  1.00  0.00    -0.177 NA
HETATM   12  C   UNL     1       7.057  33.300  63.877  1.00  0.00     0.062 A 
HETATM   13  C   UNL     1       7.130  33.617  65.325  1.00  0.00     0.073 C 
ENDROOT
BRANCH   1  14
HETATM   14  C   UNL     1       5.049  35.764  63.289  1.00  0.00    -0.003 A 
HETATM   15  C   UNL     1       4.874  36.385  64.522  1.00  0.00     0.134 A 
HETATM   16  N   UNL     1       5.215  37.664  64.801  1.00  0.00    -0.235 NA
HETATM   17 CL   UNL     1       4.205  35.586  65.891  1.00  0.00    -0.062 Cl
HETATM   18  C   UNL     1       5.772  38.401  63.828  1.00  0.00     0.069 A 
HETATM   19  C   UNL     1       5.985  37.893  62.535  1.00  0.00    -0.004 A 
HETATM   20  C   UNL     1       6.165  39.706  64.088  1.00  0.00     0.035 A 
HETATM   21  C   UNL     1       6.586  38.694  61.549  1.00  0.00     0.050 A 
HETATM   22  C   UNL     1       5.602  36.571  62.277  1.00  0.00     0.025 A 
HETATM   23  C   UNL     1       6.990  39.999  61.834  1.00  0.00     0.069 A 
HETATM   24  C   UNL     1       6.771  40.507  63.110  1.00  0.00     0.039 A 
BRANCH  23  25
HETATM   25  O   UNL     1       7.577  40.654  60.790  1.00  0.00    -0.351 OA
BRANCH  25  26
HETATM   26  C   UNL     1       7.102  41.967  60.496  1.00  0.00     0.171 C 
HETATM   27  C   UNL     1       5.841  41.832  59.663  1.00  0.00     0.034 C 
ENDBRANCH  25  26
ENDBRANCH  23  25
ENDBRANCH   1  14
BRANCH   5  28
HETATM   28  N   UNL     1       3.793  33.253  59.466  1.00  0.00    -0.282 NA
HETATM   29  H   UNL     1       3.373  34.060  59.010  1.00  0.00     0.126 HD
HETATM   30  H   UNL     1       4.324  32.663  58.830  1.00  0.00     0.126 HD
ENDBRANCH   5  28
TORSDOF 4
ENDMDL
MODEL 6
REMARK VINA RESULT:      -7.4      8.546     12.726
REMARK  4 active torsions:
REMARK  status: ('A' for Active; 'I' for Inactive)
REMARK    1  A    between atoms: C_2  and  O_3 
REMARK    2  A    between atoms: O_3  and  C_4 
REMARK    3  A    between atoms: C_11  and  C_12 
REMARK    4  A    between atoms: C_16  and  N_17 
ROOT
HETATM    1  C   UNL     1       5.072  33.326  61.837  1.00  0.00     0.108 C 
HETATM    2  C   UNL     1       5.756  32.795  60.576  1.00  0.00     0.067 C 
HETATM    3  C   UNL     1       4.851  32.392  59.423  1.00  0.00     0.020 C 
HETATM    4  N   UNL     1       4.101  32.058  58.466  1.00  0.00    -0.096 N 
HETATM    5  C   UNL     1       7.085  32.506  60.507  1.00  0.00     0.139 C 
HETATM    6  O   UNL     1       7.938  32.674  61.615  1.00  0.00    -0.279 OA
HETATM    7  C   UNL     1       7.343  32.956  62.768  1.00  0.00     0.175 A 
HETATM    8  C   UNL     1       6.023  33.260  62.985  1.00  0.00     0.034 A 
HETATM    9  N   UNL     1       7.957  32.973  63.978  1.00  0.00    -0.256 N 
HETATM   10  H   UNL     1       8.931  32.789  64.195  1.00  0.00     0.191 HD
HETATM   11  N   UNL     1       7.107  33.253  64.987  1.00  0.00    -0.177 NA
HETATM   12  C   UNL     1       5.916  33.417  64.387  1.00  0.00     0.062 A 
HETATM   13  C   UNL     1       4.709  33.727  65.190  1.00  0.00     0.073 C 
ENDROOT
BRANCH   1  14
HETATM   14  C   UNL     1       4.683  34.788  61.733  1.00  0.00    -0.003 A 
HETATM   15  C   UNL     1       3.381  35.207  61.480  1.00  0.00     0.134 A 
HETATM   16  N   UNL     1       2.977  36.497  61.433  1.00  0.00    -0.235 NA
HETATM   17 CL   UNL     1       2.078  34.117  61.208  1.00  0.00    -0.062 Cl
HETATM   18  C   UNL     1       3.888  37.458  61.652  1.00  0.00     0.069 A 
HETATM   19  C   UNL     1       5.240  37.163  61.900  1.00  0.00    -0.004 A 
HETATM   20  C   UNL     1       3.504  38.791  61.645  1.00  0.00     0.035 A 
HETATM   21  C   UNL     1       6.159  38.199  62.140  1.00  0.00     0.050 A 
HETATM   22  C   UNL     1       5.625  35.817  61.922  1.00  0.00     0.025 A 
HETATM   23  C   UNL     1       5.750  39.533  62.145  1.00  0.00     0.069 A 
HETATM   24  C   UNL     1       4.416  39.827  61.889  1.00  0.00     0.039 A 
BRANCH  23  25
HETATM   25  O   UNL     1       6.742  40.432  62.412  1.00  0.00    -0.351 OA
BRANCH  25  26
HETATM   26  C   UNL     1       7.562  40.178  63.551  1.00  0.00     0.171 C 
HETATM   27  C   UNL     1       7.504  41.399  64.450  1.00  0.00     0.034 C 
ENDBRANCH  25  26
ENDBRANCH  23  25
ENDBRANCH   1  14
BRANCH   5  28
HETATM   28  N   UNL     1       7.736  32.000  59.407  1.00  0.00    -0.282 NA
HETATM   29  H   UNL     1       7.145  31.602  58.680  1.00  0.00     0.126 HD
HETATM   30  H   UNL     1       8.445  32.635  59.046  1.00  0.00     0.126 HD
ENDBRANCH   5  28
TORSDOF 4
ENDMDL
MODEL 7
REMARK VINA RESULT:      -7.4      3.120      6.734
REMARK  4 active torsions:
REMARK  status: ('A' for Active; 'I' for Inactive)
REMARK    1  A    between atoms: C_2  and  O_3 
REMARK    2  A    between atoms: O_3  and  C_4 
REMARK    3  A    between atoms: C_11  and  C_12 
REMARK    4  A    between atoms: C_16  and  N_17 
ROOT
HETATM    1  C   UNL     1       7.767  26.487  54.904  1.00  0.00     0.108 C 
HETATM    2  C   UNL     1       7.893  26.621  56.423  1.00  0.00     0.067 C 
HETATM    3  C   UNL     1       8.510  27.907  56.948  1.00  0.00     0.020 C 
HETATM    4  N   UNL     1       9.022  28.974  57.384  1.00  0.00    -0.096 N 
HETATM    5  C   UNL     1       7.652  25.600  57.290  1.00  0.00     0.139 C 
HETATM    6  O   UNL     1       7.267  24.321  56.841  1.00  0.00    -0.279 OA
HETATM    7  C   UNL     1       7.328  24.124  55.529  1.00  0.00     0.175 A 
HETATM    8  C   UNL     1       7.564  25.052  54.546  1.00  0.00     0.034 A 
HETATM    9  N   UNL     1       7.182  22.924  54.913  1.00  0.00    -0.256 N 
HETATM   10  H   UNL     1       7.002  22.018  55.332  1.00  0.00     0.191 HD
HETATM   11  N   UNL     1       7.328  23.007  53.575  1.00  0.00    -0.177 NA
HETATM   12  C   UNL     1       7.577  24.306  53.344  1.00  0.00     0.062 A 
HETATM   13  C   UNL     1       7.813  24.789  51.962  1.00  0.00     0.073 C 
ENDROOT
BRANCH   1  14
HETATM   14  C   UNL     1       6.556  27.206  54.341  1.00  0.00    -0.003 A 
HETATM   15  C   UNL     1       5.351  27.311  55.030  1.00  0.00     0.134 A 
HETATM   16  N   UNL     1       4.266  27.988  54.593  1.00  0.00    -0.235 NA
HETATM   17 CL   UNL     1       5.084  26.595  56.571  1.00  0.00    -0.062 Cl
HETATM   18  C   UNL     1       4.342  28.619  53.411  1.00  0.00     0.069 A 
HETATM   19  C   UNL     1       5.497  28.573  52.612  1.00  0.00    -0.004 A 
HETATM   20  C   UNL     1       3.258  29.351  52.946  1.00  0.00     0.035 A 
HETATM   21  C   UNL     1       5.541  29.261  51.388  1.00  0.00     0.050 A 
HETATM   22  C   UNL     1       6.596  27.846  53.088  1.00  0.00     0.025 A 
HETATM   23  C   UNL     1       4.447  30.006  50.945  1.00  0.00     0.069 A 
HETATM   24  C   UNL     1       3.299  30.044  51.728  1.00  0.00     0.039 A 
BRANCH  23  25
HETATM   25  O   UNL     1       4.634  30.638  49.750  1.00  0.00    -0.351 OA
BRANCH  25  26
HETATM   26  C   UNL     1       5.092  29.842  48.657  1.00  0.00     0.171 C 
HETATM   27  C   UNL     1       3.883  29.172  48.030  1.00  0.00     0.034 C 
ENDBRANCH  25  26
ENDBRANCH  23  25
ENDBRANCH   1  14
BRANCH   5  28
HETATM   28  N   UNL     1       7.781  25.666  58.657  1.00  0.00    -0.282 NA
HETATM   29  H   UNL     1       7.978  24.787  59.132  1.00  0.00     0.126 HD
HETATM   30  H   UNL     1       8.385  26.428  58.956  1.00  0.00     0.126 HD
ENDBRANCH   5  28
TORSDOF 4
ENDMDL
MODEL 8
REMARK VINA RESULT:      -7.3      7.466     10.628
REMARK  4 active torsions:
REMARK  status: ('A' for Active; 'I' for Inactive)
REMARK    1  A    between atoms: C_2  and  O_3 
REMARK    2  A    between atoms: O_3  and  C_4 
REMARK    3  A    between atoms: C_11  and  C_12 
REMARK    4  A    between atoms: C_16  and  N_17 
ROOT
HETATM    1  C   UNL     1       2.316  28.334  48.796  1.00  0.00     0.108 C 
HETATM    2  C   UNL     1       2.043  27.416  47.603  1.00  0.00     0.067 C 
HETATM    3  C   UNL     1       0.655  27.485  46.988  1.00  0.00     0.020 C 
HETATM    4  N   UNL     1      -0.497  27.542  46.477  1.00  0.00    -0.096 N 
HETATM    5  C   UNL     1       2.902  26.441  47.193  1.00  0.00     0.139 C 
HETATM    6  O   UNL     1       4.121  26.201  47.856  1.00  0.00    -0.279 OA
HETATM    7  C   UNL     1       4.299  26.855  48.999  1.00  0.00     0.175 A 
HETATM    8  C   UNL     1       3.520  27.848  49.533  1.00  0.00     0.034 A 
HETATM    9  N   UNL     1       5.309  26.628  49.876  1.00  0.00    -0.256 N 
HETATM   10  H   UNL     1       6.067  25.959  49.807  1.00  0.00     0.191 HD
HETATM   11  N   UNL     1       5.226  27.409  50.974  1.00  0.00    -0.177 NA
HETATM   12  C   UNL     1       4.124  28.149  50.776  1.00  0.00     0.062 A 
HETATM   13  C   UNL     1       3.691  29.135  51.797  1.00  0.00     0.073 C 
ENDROOT
BRANCH   1  14
HETATM   14  C   UNL     1       2.651  29.756  48.389  1.00  0.00    -0.003 A 
HETATM   15  C   UNL     1       2.004  30.867  48.921  1.00  0.00     0.134 A 
HETATM   16  N   UNL     1       2.306  32.152  48.631  1.00  0.00    -0.235 NA
HETATM   17 CL   UNL     1       0.719  30.750  50.061  1.00  0.00    -0.062 Cl
HETATM   18  C   UNL     1       3.307  32.392  47.771  1.00  0.00     0.069 A 
HETATM   19  C   UNL     1       4.026  31.355  47.153  1.00  0.00    -0.004 A 
HETATM   20  C   UNL     1       3.667  33.700  47.475  1.00  0.00     0.035 A 
HETATM   21  C   UNL     1       5.079  31.651  46.270  1.00  0.00     0.050 A 
HETATM   22  C   UNL     1       3.673  30.036  47.463  1.00  0.00     0.025 A 
HETATM   23  C   UNL     1       5.437  32.971  45.998  1.00  0.00     0.069 A 
HETATM   24  C   UNL     1       4.720  33.999  46.600  1.00  0.00     0.039 A 
BRANCH  23  25
HETATM   25  O   UNL     1       6.489  33.111  45.139  1.00  0.00    -0.351 OA
BRANCH  25  26
HETATM   26  C   UNL     1       7.567  33.946  45.561  1.00  0.00     0.171 C 
HETATM   27  C   UNL     1       7.663  35.110  44.593  1.00  0.00     0.034 C 
ENDBRANCH  25  26
ENDBRANCH  23  25
ENDBRANCH   1  14
BRANCH   5  28
HETATM   28  N   UNL     1       2.686  25.575  46.148  1.00  0.00    -0.282 NA
HETATM   29  H   UNL     1       3.467  25.440  45.509  1.00  0.00     0.126 HD
HETATM   30  H   UNL     1       2.254  24.704  46.445  1.00  0.00     0.126 HD
ENDBRANCH   5  28
TORSDOF 4
ENDMDL
MODEL 9
REMARK VINA RESULT:      -7.2      2.823      6.278
REMARK  4 active torsions:
REMARK  status: ('A' for Active; 'I' for Inactive)
REMARK    1  A    between atoms: C_2  and  O_3 
REMARK    2  A    between atoms: O_3  and  C_4 
REMARK    3  A    between atoms: C_11  and  C_12 
REMARK    4  A    between atoms: C_16  and  N_17 
ROOT
HETATM    1  C   UNL     1       5.420  27.537  55.547  1.00  0.00     0.108 C 
HETATM    2  C   UNL     1       4.711  28.183  54.355  1.00  0.00     0.067 C 
HETATM    3  C   UNL     1       3.899  29.436  54.636  1.00  0.00     0.020 C 
HETATM    4  N   UNL     1       3.225  30.476  54.868  1.00  0.00    -0.096 N 
HETATM    5  C   UNL     1       4.631  27.603  53.125  1.00  0.00     0.139 C 
HETATM    6  O   UNL     1       5.199  26.341  52.862  1.00  0.00    -0.279 OA
HETATM    7  C   UNL     1       5.657  25.679  53.918  1.00  0.00     0.175 A 
HETATM    8  C   UNL     1       5.790  26.132  55.206  1.00  0.00     0.034 A 
HETATM    9  N   UNL     1       6.068  24.386  53.909  1.00  0.00    -0.256 N 
HETATM   10  H   UNL     1       6.101  23.739  53.129  1.00  0.00     0.191 HD
HETATM   11  N   UNL     1       6.448  23.955  55.129  1.00  0.00    -0.177 NA
HETATM   12  C   UNL     1       6.267  25.016  55.932  1.00  0.00     0.062 A 
HETATM   13  C   UNL     1       6.569  24.919  57.381  1.00  0.00     0.073 C 
ENDROOT
BRANCH   1  14
HETATM   14  C   UNL     1       6.731  28.215  55.899  1.00  0.00    -0.003 A 
HETATM   15  C   UNL     1       7.765  28.380  54.983  1.00  0.00     0.134 A 
HETATM   16  N   UNL     1       8.927  29.025  55.235  1.00  0.00    -0.235 NA
HETATM   17 CL   UNL     1       7.695  27.792  53.368  1.00  0.00    -0.062 Cl
HETATM   18  C   UNL     1       9.108  29.557  56.454  1.00  0.00     0.069 A 
HETATM   19  C   UNL     1       8.146  29.442  57.470  1.00  0.00    -0.004 A 
HETATM   20  C   UNL     1      10.274  30.254  56.737  1.00  0.00     0.035 A 
HETATM   21  C   UNL     1       8.369  30.028  58.728  1.00  0.00     0.050 A 
HETATM   22  C   UNL     1       6.963  28.751  57.179  1.00  0.00     0.025 A 
HETATM   23  C   UNL     1       9.540  30.740  58.989  1.00  0.00     0.069 A 
HETATM   24  C   UNL     1      10.499  30.846  57.988  1.00  0.00     0.039 A 
BRANCH  23  25
HETATM   25  O   UNL     1       9.615  31.273  60.244  1.00  0.00    -0.351 OA
BRANCH  25  26
HETATM   26  C   UNL     1       8.704  32.324  60.561  1.00  0.00     0.171 C 
HETATM   27  C   UNL     1       8.370  32.223  62.037  1.00  0.00     0.034 C 
ENDBRANCH  25  26
ENDBRANCH  23  25
ENDBRANCH   1  14
BRANCH   5  28
HETATM   28  N   UNL     1       3.981  28.130  52.035  1.00  0.00    -0.282 NA
HETATM   29  H   UNL     1       3.131  28.656  52.230  1.00  0.00     0.126 HD
HETATM   30  H   UNL     1       4.612  28.609  51.397  1.00  0.00     0.126 HD
ENDBRANCH   5  28
TORSDOF 4
ENDMDL
MODEL 10
REMARK VINA RESULT:      -6.9      3.307      5.973
REMARK  4 active torsions:
REMARK  status: ('A' for Active; 'I' for Inactive)
REMARK    1  A    between atoms: C_2  and  O_3 
REMARK    2  A    between atoms: O_3  and  C_4 
REMARK    3  A    between atoms: C_11  and  C_12 
REMARK    4  A    between atoms: C_16  and  N_17 
ROOT
HETATM    1  C   UNL     1       7.305  26.993  55.307  1.00  0.00     0.108 C 
HETATM    2  C   UNL     1       7.557  28.422  55.790  1.00  0.00     0.067 C 
HETATM    3  C   UNL     1       8.867  29.068  55.370  1.00  0.00     0.020 C 
HETATM    4  N   UNL     1       9.954  29.604  55.021  1.00  0.00    -0.096 N 
HETATM    5  C   UNL     1       6.767  29.058  56.700  1.00  0.00     0.139 C 
HETATM    6  O   UNL     1       5.646  28.429  57.275  1.00  0.00    -0.279 OA
HETATM    7  C   UNL     1       5.510  27.134  57.015  1.00  0.00     0.175 A 
HETATM    8  C   UNL     1       6.231  26.369  56.134  1.00  0.00     0.034 A 
HETATM    9  N   UNL     1       4.615  26.308  57.615  1.00  0.00    -0.256 N 
HETATM   10  H   UNL     1       3.925  26.533  58.324  1.00  0.00     0.191 HD
HETATM   11  N   UNL     1       4.720  25.033  57.189  1.00  0.00    -0.177 NA
HETATM   12  C   UNL     1       5.719  25.060  56.292  1.00  0.00     0.062 A 
HETATM   13  C   UNL     1       6.143  23.815  55.605  1.00  0.00     0.073 C 
ENDROOT
BRANCH   1  14
HETATM   14  C   UNL     1       6.791  26.928  53.881  1.00  0.00    -0.003 A 
HETATM   15  C   UNL     1       7.148  25.916  52.995  1.00  0.00     0.134 A 
HETATM   16  N   UNL     1       6.672  25.786  51.736  1.00  0.00    -0.235 NA
HETATM   17 CL   UNL     1       8.249  24.657  53.398  1.00  0.00    -0.062 Cl
HETATM   18  C   UNL     1       5.783  26.690  51.295  1.00  0.00     0.069 A 
HETATM   19  C   UNL     1       5.357  27.768  52.088  1.00  0.00    -0.004 A 
HETATM   20  C   UNL     1       5.249  26.569  50.019  1.00  0.00     0.035 A 
HETATM   21  C   UNL     1       4.412  28.683  51.593  1.00  0.00     0.050 A 
HETATM   22  C   UNL     1       5.885  27.881  53.380  1.00  0.00     0.025 A 
HETATM   23  C   UNL     1       3.873  28.535  50.315  1.00  0.00     0.069 A 
HETATM   24  C   UNL     1       4.301  27.475  49.524  1.00  0.00     0.039 A 
BRANCH  23  25
HETATM   25  O   UNL     1       2.952  29.483  49.972  1.00  0.00    -0.351 OA
BRANCH  25  26
HETATM   26  C   UNL     1       1.595  29.058  49.852  1.00  0.00     0.171 C 
HETATM   27  C   UNL     1       1.312  28.810  48.382  1.00  0.00     0.034 C 
ENDBRANCH  25  26
ENDBRANCH  23  25
ENDBRANCH   1  14
BRANCH   5  28
HETATM   28  N   UNL     1       6.971  30.328  57.184  1.00  0.00    -0.282 NA
HETATM   29  H   UNL     1       6.157  30.938  57.199  1.00  0.00     0.126 HD
HETATM   30  H   UNL     1       7.494  30.334  58.057  1.00  0.00     0.126 HD
ENDBRANCH   5  28
TORSDOF 4
ENDMDL
