MODEL 1
REMARK VINA RESULT:      -9.1      0.000      0.000
REMARK  6 active torsions:
REMARK  status: ('A' for Active; 'I' for Inactive)
REMARK    1  A    between atoms: C_2  and  O_3 
REMARK    2  A    between atoms: C_2  and  C_4 
REMARK    3  A    between atoms: C_7  and  N_8 
REMARK       I    between atoms: N_8  and  C_9 
REMARK    4  A    between atoms: C_9  and  C_10 
REMARK    5  A    between atoms: C_13  and  C_14 
REMARK    6  A    between atoms: C_19  and  C_20 
ROOT
HETATM    1  C   UNL     1       5.318  27.407  52.696  1.00  0.00     0.096 C 
HETATM    2  C   UNL     1       5.145  27.936  51.431  1.00  0.00     0.138 C 
HETATM    3  N   UNL     1       4.040  28.754  51.516  1.00  0.00    -0.240 N 
HETATM    4  C   UNL     1       3.481  29.504  50.404  1.00  0.00     0.221 C 
HETATM    5  C   UNL     1       4.477  29.545  49.231  1.00  0.00     0.067 C 
HETATM    6  C   UNL     1       5.133  28.175  48.998  1.00  0.00     0.125 C 
HETATM    7  N   UNL     1       5.801  27.761  50.248  1.00  0.00    -0.365 N 
HETATM    8  N   UNL     1       3.387  28.646  52.683  1.00  0.00    -0.181 NA
HETATM    9  C   UNL     1       4.181  27.854  53.409  1.00  0.00     0.160 C 
HETATM   10  H   UNL     1       6.316  26.887  50.117  1.00  0.00     0.162 HD
ENDROOT
BRANCH   1  11
HETATM   11  C   UNL     1       6.373  26.550  53.213  1.00  0.00     0.261 C 
HETATM   12  N   UNL     1       6.012  25.216  53.281  1.00  0.00    -0.323 N 
HETATM   13  H   UNL     1       5.100  24.992  52.896  1.00  0.00     0.169 HD
HETATM   14  O   UNL     1       7.470  27.018  53.490  1.00  0.00    -0.267 OA
BRANCH  12  15
HETATM   15  C   UNL     1       6.814  24.129  53.678  1.00  0.00     0.035 A 
HETATM   16  C   UNL     1       7.521  23.317  52.791  1.00  0.00     0.030 A 
HETATM   17  C   UNL     1       8.271  22.229  53.258  1.00  0.00     0.012 A 
HETATM   18  C   UNL     1       8.331  21.923  54.623  1.00  0.00    -0.030 A 
HETATM   19  C   UNL     1       7.641  22.765  55.511  1.00  0.00     0.012 A 
HETATM   20  C   UNL     1       6.896  23.854  55.045  1.00  0.00     0.030 A 
BRANCH  18  21
HETATM   21  C   UNL     1       9.091  20.739  55.181  1.00  0.00     0.147 C 
HETATM   22  C   UNL     1       8.817  20.383  56.640  1.00  0.00     0.044 C 
BRANCH  21  23
HETATM   23  O   UNL     1       8.795  19.606  54.367  1.00  0.00    -0.391 OA
HETATM   24  H   UNL     1       9.232  19.743  53.511  1.00  0.00     0.210 HD
ENDBRANCH  21  23
ENDBRANCH  18  21
ENDBRANCH  12  15
ENDBRANCH   1  11
BRANCH   4  25
HETATM   25  C   UNL     1       3.122  30.917  50.811  1.00  0.00     0.409 C 
HETATM   26  F   UNL     1       4.012  31.439  51.685  1.00  0.00    -0.169 F 
HETATM   27  F   UNL     1       3.141  31.724  49.715  1.00  0.00    -0.169 F 
HETATM   28  F   UNL     1       1.888  31.034  51.341  1.00  0.00    -0.169 F 
ENDBRANCH   4  25
BRANCH   6  29
HETATM   29  C   UNL     1       4.159  27.165  48.425  1.00  0.00     0.005 A 
HETATM   30  S   UNL     1       3.021  27.662  47.233  1.00  0.00    -0.104 SA
HETATM   31  C   UNL     1       2.336  26.101  47.134  1.00  0.00     0.050 A 
HETATM   32  C   UNL     1       2.966  25.207  47.966  1.00  0.00     0.008 A 
HETATM   33  C   UNL     1       4.019  25.817  48.707  1.00  0.00     0.017 A 
ENDBRANCH   6  29
TORSDOF 6
ENDMDL
MODEL 2
REMARK VINA RESULT:      -9.1      1.669      2.155
REMARK  6 active torsions:
REMARK  status: ('A' for Active; 'I' for Inactive)
REMARK    1  A    between atoms: C_2  and  O_3 
REMARK    2  A    between atoms: C_2  and  C_4 
REMARK    3  A    between atoms: C_7  and  N_8 
REMARK       I    between atoms: N_8  and  C_9 
REMARK    4  A    between atoms: C_9  and  C_10 
REMARK    5  A    between atoms: C_13  and  C_14 
REMARK    6  A    between atoms: C_19  and  C_20 
ROOT
HETATM    1  C   UNL     1       5.128  27.086  51.334  1.00  0.00     0.096 C 
HETATM    2  C   UNL     1       5.027  27.600  50.056  1.00  0.00     0.138 C 
HETATM    3  N   UNL     1       4.865  28.959  50.211  1.00  0.00    -0.240 N 
HETATM    4  C   UNL     1       4.695  29.900  49.117  1.00  0.00     0.221 C 
HETATM    5  C   UNL     1       5.075  29.240  47.779  1.00  0.00     0.067 C 
HETATM    6  C   UNL     1       4.515  27.812  47.675  1.00  0.00     0.125 C 
HETATM    7  N   UNL     1       5.025  27.028  48.817  1.00  0.00    -0.365 N 
HETATM    8  N   UNL     1       4.669  29.329  51.485  1.00  0.00    -0.181 NA
HETATM    9  C   UNL     1       4.862  28.198  52.169  1.00  0.00     0.160 C 
HETATM   10  H   UNL     1       4.739  26.049  48.748  1.00  0.00     0.162 HD
ENDROOT
BRANCH   1  11
HETATM   11  C   UNL     1       5.395  25.726  51.775  1.00  0.00     0.261 C 
HETATM   12  N   UNL     1       6.497  25.626  52.606  1.00  0.00    -0.323 N 
HETATM   13  H   UNL     1       6.929  26.507  52.864  1.00  0.00     0.169 HD
HETATM   14  O   UNL     1       4.646  24.813  51.452  1.00  0.00    -0.267 OA
BRANCH  12  15
HETATM   15  C   UNL     1       6.986  24.471  53.247  1.00  0.00     0.035 A 
HETATM   16  C   UNL     1       6.774  24.179  54.594  1.00  0.00     0.030 A 
HETATM   17  C   UNL     1       7.324  23.026  55.172  1.00  0.00     0.012 A 
HETATM   18  C   UNL     1       8.102  22.139  54.419  1.00  0.00    -0.030 A 
HETATM   19  C   UNL     1       8.283  22.426  53.056  1.00  0.00     0.012 A 
HETATM   20  C   UNL     1       7.731  23.574  52.478  1.00  0.00     0.030 A 
BRANCH  18  21
HETATM   21  C   UNL     1       8.753  20.901  54.997  1.00  0.00     0.147 C 
HETATM   22  C   UNL     1       8.137  20.345  56.279  1.00  0.00     0.044 C 
BRANCH  21  23
HETATM   23  O   UNL     1       8.727  19.885  53.996  1.00  0.00    -0.391 OA
HETATM   24  H   UNL     1       9.059  20.281  53.174  1.00  0.00     0.210 HD
ENDBRANCH  21  23
ENDBRANCH  18  21
ENDBRANCH  12  15
ENDBRANCH   1  11
BRANCH   4  25
HETATM   25  C   UNL     1       5.532  31.145  49.320  1.00  0.00     0.409 C 
HETATM   26  F   UNL     1       6.795  30.855  49.708  1.00  0.00    -0.169 F 
HETATM   27  F   UNL     1       5.638  31.819  48.142  1.00  0.00    -0.169 F 
HETATM   28  F   UNL     1       5.007  32.016  50.204  1.00  0.00    -0.169 F 
ENDBRANCH   4  25
BRANCH   6  29
HETATM   29  C   UNL     1       3.009  27.800  47.507  1.00  0.00     0.005 A 
HETATM   30  S   UNL     1       2.213  29.177  46.851  1.00  0.00    -0.104 SA
HETATM   31  C   UNL     1       0.676  28.451  47.004  1.00  0.00     0.050 A 
HETATM   32  C   UNL     1       0.754  27.178  47.519  1.00  0.00     0.008 A 
HETATM   33  C   UNL     1       2.098  26.800  47.805  1.00  0.00     0.017 A 
ENDBRANCH   6  29
TORSDOF 6
ENDMDL
MODEL 3
REMARK VINA RESULT:      -9.0      8.262     10.421
REMARK  6 active torsions:
REMARK  status: ('A' for Active; 'I' for Inactive)
REMARK    1  A    between atoms: C_2  and  O_3 
REMARK    2  A    between atoms: C_2  and  C_4 
REMARK    3  A    between atoms: C_7  and  N_8 
REMARK       I    between atoms: N_8  and  C_9 
REMARK    4  A    between atoms: C_9  and  C_10 
REMARK    5  A    between atoms: C_13  and  C_14 
REMARK    6  A    between atoms: C_19  and  C_20 
ROOT
HETATM    1  C   UNL     1       8.131  30.060  58.277  1.00  0.00     0.096 C 
HETATM    2  C   UNL     1       7.104  29.260  57.816  1.00  0.00     0.138 C 
HETATM    3  N   UNL     1       7.701  28.301  57.028  1.00  0.00    -0.240 N 
HETATM    4  C   UNL     1       6.986  27.254  56.318  1.00  0.00     0.221 C 
HETATM    5  C   UNL     1       5.541  27.143  56.840  1.00  0.00     0.067 C 
HETATM    6  C   UNL     1       4.905  28.527  57.039  1.00  0.00     0.125 C 
HETATM    7  N   UNL     1       5.749  29.298  57.974  1.00  0.00    -0.365 N 
HETATM    8  N   UNL     1       9.002  28.534  56.802  1.00  0.00    -0.181 NA
HETATM    9  C   UNL     1       9.270  29.582  57.586  1.00  0.00     0.160 C 
HETATM   10  H   UNL     1       5.323  30.201  58.195  1.00  0.00     0.162 HD
ENDROOT
BRANCH   1  11
HETATM   11  C   UNL     1       8.101  31.173  59.214  1.00  0.00     0.261 C 
HETATM   12  N   UNL     1       7.405  30.892  60.375  1.00  0.00    -0.323 N 
HETATM   13  H   UNL     1       7.073  29.938  60.465  1.00  0.00     0.169 HD
HETATM   14  O   UNL     1       8.701  32.209  58.961  1.00  0.00    -0.267 OA
BRANCH  12  15
HETATM   15  C   UNL     1       7.238  31.726  61.498  1.00  0.00     0.035 A 
HETATM   16  C   UNL     1       8.186  31.866  62.512  1.00  0.00     0.030 A 
HETATM   17  C   UNL     1       7.934  32.688  63.619  1.00  0.00     0.012 A 
HETATM   18  C   UNL     1       6.728  33.388  63.742  1.00  0.00    -0.030 A 
HETATM   19  C   UNL     1       5.794  33.265  62.701  1.00  0.00     0.012 A 
HETATM   20  C   UNL     1       6.046  32.448  61.594  1.00  0.00     0.030 A 
BRANCH  18  21
HETATM   21  C   UNL     1       6.385  34.258  64.932  1.00  0.00     0.147 C 
HETATM   22  C   UNL     1       5.122  33.885  65.705  1.00  0.00     0.044 C 
BRANCH  21  23
HETATM   23  O   UNL     1       7.496  34.233  65.826  1.00  0.00    -0.391 OA
HETATM   24  H   UNL     1       7.270  33.630  66.552  1.00  0.00     0.210 HD
ENDBRANCH  21  23
ENDBRANCH  18  21
ENDBRANCH  12  15
ENDBRANCH   1  11
BRANCH   4  25
HETATM   25  C   UNL     1       7.677  25.915  56.459  1.00  0.00     0.409 C 
HETATM   26  F   UNL     1       6.845  24.956  56.926  1.00  0.00    -0.169 F 
HETATM   27  F   UNL     1       8.102  25.492  55.237  1.00  0.00    -0.169 F 
HETATM   28  F   UNL     1       8.771  25.947  57.246  1.00  0.00    -0.169 F 
ENDBRANCH   4  25
BRANCH   6  29
HETATM   29  C   UNL     1       4.610  29.216  55.721  1.00  0.00     0.005 A 
HETATM   30  S   UNL     1       4.600  30.935  55.642  1.00  0.00    -0.104 SA
HETATM   31  C   UNL     1       4.196  30.927  53.983  1.00  0.00     0.050 A 
HETATM   32  C   UNL     1       4.093  29.650  53.483  1.00  0.00     0.008 A 
HETATM   33  C   UNL     1       4.335  28.664  54.482  1.00  0.00     0.017 A 
ENDBRANCH   6  29
TORSDOF 6
ENDMDL
MODEL 4
REMARK VINA RESULT:      -8.8      4.194      6.135
REMARK  6 active torsions:
REMARK  status: ('A' for Active; 'I' for Inactive)
REMARK    1  A    between atoms: C_2  and  O_3 
REMARK    2  A    between atoms: C_2  and  C_4 
REMARK    3  A    between atoms: C_7  and  N_8 
REMARK       I    between atoms: N_8  and  C_9 
REMARK    4  A    between atoms: C_9  and  C_10 
REMARK    5  A    between atoms: C_13  and  C_14 
REMARK    6  A    between atoms: C_19  and  C_20 
ROOT
HETATM    1  C   UNL     1       5.256  27.902  54.145  1.00  0.00     0.096 C 
HETATM    2  C   UNL     1       5.231  28.502  55.389  1.00  0.00     0.138 C 
HETATM    3  N   UNL     1       4.864  29.811  55.167  1.00  0.00    -0.240 N 
HETATM    4  C   UNL     1       4.731  30.819  56.205  1.00  0.00     0.221 C 
HETATM    5  C   UNL     1       4.705  30.156  57.594  1.00  0.00     0.067 C 
HETATM    6  C   UNL     1       5.763  29.048  57.712  1.00  0.00     0.125 C 
HETATM    7  N   UNL     1       5.518  28.056  56.646  1.00  0.00    -0.365 N 
HETATM    8  N   UNL     1       4.832  30.140  53.867  1.00  0.00    -0.181 NA
HETATM    9  C   UNL     1       5.037  28.975  53.247  1.00  0.00     0.160 C 
HETATM   10  H   UNL     1       6.154  27.260  56.732  1.00  0.00     0.162 HD
ENDROOT
BRANCH   1  11
HETATM   11  C   UNL     1       5.492  26.514  53.781  1.00  0.00     0.261 C 
HETATM   12  N   UNL     1       6.749  26.061  54.137  1.00  0.00    -0.323 N 
HETATM   13  H   UNL     1       7.315  26.716  54.668  1.00  0.00     0.169 HD
HETATM   14  O   UNL     1       4.602  25.851  53.264  1.00  0.00    -0.267 OA
BRANCH  12  15
HETATM   15  C   UNL     1       7.269  24.761  53.982  1.00  0.00     0.035 A 
HETATM   16  C   UNL     1       7.654  24.217  52.757  1.00  0.00     0.030 A 
HETATM   17  C   UNL     1       8.130  22.901  52.675  1.00  0.00     0.012 A 
HETATM   18  C   UNL     1       8.227  22.094  53.816  1.00  0.00    -0.030 A 
HETATM   19  C   UNL     1       7.866  22.661  55.049  1.00  0.00     0.012 A 
HETATM   20  C   UNL     1       7.396  23.977  55.131  1.00  0.00     0.030 A 
BRANCH  18  21
HETATM   21  C   UNL     1       8.695  20.655  53.783  1.00  0.00     0.147 C 
HETATM   22  C   UNL     1       8.512  19.852  55.069  1.00  0.00     0.044 C 
BRANCH  21  23
HETATM   23  O   UNL     1       8.003  19.995  52.725  1.00  0.00    -0.391 OA
HETATM   24  H   UNL     1       7.183  19.633  53.098  1.00  0.00     0.210 HD
ENDBRANCH  21  23
ENDBRANCH  18  21
ENDBRANCH  12  15
ENDBRANCH   1  11
BRANCH   4  25
HETATM   25  C   UNL     1       3.479  31.648  56.018  1.00  0.00     0.409 C 
HETATM   26  F   UNL     1       2.401  30.887  55.722  1.00  0.00    -0.169 F 
HETATM   27  F   UNL     1       3.185  32.295  57.179  1.00  0.00    -0.169 F 
HETATM   28  F   UNL     1       3.595  32.604  55.075  1.00  0.00    -0.169 F 
ENDBRANCH   4  25
BRANCH   6  29
HETATM   29  C   UNL     1       7.172  29.606  57.760  1.00  0.00     0.005 A 
HETATM   30  S   UNL     1       7.530  30.923  58.808  1.00  0.00    -0.104 SA
HETATM   31  C   UNL     1       9.160  30.975  58.302  1.00  0.00     0.050 A 
HETATM   32  C   UNL     1       9.444  30.000  57.374  1.00  0.00     0.008 A 
HETATM   33  C   UNL     1       8.301  29.208  57.065  1.00  0.00     0.017 A 
ENDBRANCH   6  29
TORSDOF 6
ENDMDL
MODEL 5
REMARK VINA RESULT:      -8.3      1.674      2.308
REMARK  6 active torsions:
REMARK  status: ('A' for Active; 'I' for Inactive)
REMARK    1  A    between atoms: C_2  and  O_3 
REMARK    2  A    between atoms: C_2  and  C_4 
REMARK    3  A    between atoms: C_7  and  N_8 
REMARK       I    between atoms: N_8  and  C_9 
REMARK    4  A    between atoms: C_9  and  C_10 
REMARK    5  A    between atoms: C_13  and  C_14 
REMARK    6  A    between atoms: C_19  and  C_20 
ROOT
HETATM    1  C   UNL     1       5.408  28.101  54.014  1.00  0.00     0.096 C 
HETATM    2  C   UNL     1       5.218  28.978  52.963  1.00  0.00     0.138 C 
HETATM    3  N   UNL     1       4.226  29.841  53.372  1.00  0.00    -0.240 N 
HETATM    4  C   UNL     1       3.689  30.923  52.563  1.00  0.00     0.221 C 
HETATM    5  C   UNL     1       4.606  31.196  51.357  1.00  0.00     0.067 C 
HETATM    6  C   UNL     1       5.079  29.890  50.700  1.00  0.00     0.125 C 
HETATM    7  N   UNL     1       5.772  29.079  51.721  1.00  0.00    -0.365 N 
HETATM    8  N   UNL     1       3.641  29.473  54.521  1.00  0.00    -0.181 NA
HETATM    9  C   UNL     1       4.380  28.437  54.926  1.00  0.00     0.160 C 
HETATM   10  H   UNL     1       6.170  28.232  51.309  1.00  0.00     0.162 HD
ENDROOT
BRANCH   1  11
HETATM   11  C   UNL     1       6.385  27.036  54.176  1.00  0.00     0.261 C 
HETATM   12  N   UNL     1       5.847  25.771  54.026  1.00  0.00    -0.323 N 
HETATM   13  H   UNL     1       4.871  25.742  53.750  1.00  0.00     0.169 HD
HETATM   14  O   UNL     1       7.564  27.303  54.370  1.00  0.00    -0.267 OA
BRANCH  12  15
HETATM   15  C   UNL     1       6.528  24.538  54.065  1.00  0.00     0.035 A 
HETATM   16  C   UNL     1       6.874  23.875  55.242  1.00  0.00     0.030 A 
HETATM   17  C   UNL     1       7.583  22.667  55.202  1.00  0.00     0.012 A 
HETATM   18  C   UNL     1       7.970  22.095  53.984  1.00  0.00    -0.030 A 
HETATM   19  C   UNL     1       7.590  22.754  52.804  1.00  0.00     0.012 A 
HETATM   20  C   UNL     1       6.877  23.957  52.843  1.00  0.00     0.030 A 
BRANCH  18  21
HETATM   21  C   UNL     1       8.771  20.815  53.880  1.00  0.00     0.147 C 
HETATM   22  C   UNL     1       8.800  19.929  55.124  1.00  0.00     0.044 C 
BRANCH  21  23
HETATM   23  O   UNL     1       8.249  20.059  52.789  1.00  0.00    -0.391 OA
HETATM   24  H   UNL     1       8.155  20.666  52.036  1.00  0.00     0.210 HD
ENDBRANCH  21  23
ENDBRANCH  18  21
ENDBRANCH  12  15
ENDBRANCH   1  11
BRANCH   4  25
HETATM   25  C   UNL     1       3.527  32.192  53.371  1.00  0.00     0.409 C 
HETATM   26  F   UNL     1       4.562  32.397  54.216  1.00  0.00    -0.169 F 
HETATM   27  F   UNL     1       3.498  33.265  52.533  1.00  0.00    -0.169 F 
HETATM   28  F   UNL     1       2.383  32.243  54.083  1.00  0.00    -0.169 F 
ENDBRANCH   4  25
BRANCH   6  29
HETATM   29  C   UNL     1       3.957  29.181  49.967  1.00  0.00     0.005 A 
HETATM   30  S   UNL     1       4.152  27.537  49.498  1.00  0.00    -0.104 SA
HETATM   31  C   UNL     1       2.609  27.486  48.770  1.00  0.00     0.050 A 
HETATM   32  C   UNL     1       1.939  28.681  48.897  1.00  0.00     0.008 A 
HETATM   33  C   UNL     1       2.712  29.656  49.590  1.00  0.00     0.017 A 
ENDBRANCH   6  29
TORSDOF 6
ENDMDL
MODEL 6
REMARK VINA RESULT:      -8.2      2.756      4.116
REMARK  6 active torsions:
REMARK  status: ('A' for Active; 'I' for Inactive)
REMARK    1  A    between atoms: C_2  and  O_3 
REMARK    2  A    between atoms: C_2  and  C_4 
REMARK    3  A    between atoms: C_7  and  N_8 
REMARK       I    between atoms: N_8  and  C_9 
REMARK    4  A    between atoms: C_9  and  C_10 
REMARK    5  A    between atoms: C_13  and  C_14 
REMARK    6  A    between atoms: C_19  and  C_20 
ROOT
HETATM    1  C   UNL     1       4.469  27.187  50.008  1.00  0.00     0.096 C 
HETATM    2  C   UNL     1       3.612  28.238  49.743  1.00  0.00     0.138 C 
HETATM    3  N   UNL     1       3.027  27.947  48.531  1.00  0.00    -0.240 N 
HETATM    4  C   UNL     1       2.065  28.800  47.853  1.00  0.00     0.221 C 
HETATM    5  C   UNL     1       1.526  29.872  48.818  1.00  0.00     0.067 C 
HETATM    6  C   UNL     1       2.652  30.485  49.666  1.00  0.00     0.125 C 
HETATM    7  N   UNL     1       3.324  29.396  50.404  1.00  0.00    -0.365 N 
HETATM    8  N   UNL     1       3.577  26.890  47.915  1.00  0.00    -0.181 NA
HETATM    9  C   UNL     1       4.428  26.410  48.826  1.00  0.00     0.160 C 
HETATM   10  H   UNL     1       4.033  29.767  51.041  1.00  0.00     0.162 HD
ENDROOT
BRANCH   1  11
HETATM   11  C   UNL     1       5.280  26.917  51.185  1.00  0.00     0.261 C 
HETATM   12  N   UNL     1       5.449  25.568  51.436  1.00  0.00    -0.323 N 
HETATM   13  H   UNL     1       5.059  24.942  50.739  1.00  0.00     0.169 HD
HETATM   14  O   UNL     1       5.782  27.840  51.814  1.00  0.00    -0.267 OA
BRANCH  12  15
HETATM   15  C   UNL     1       6.220  24.974  52.454  1.00  0.00     0.035 A 
HETATM   16  C   UNL     1       5.781  24.806  53.767  1.00  0.00     0.030 A 
HETATM   17  C   UNL     1       6.619  24.238  54.736  1.00  0.00     0.012 A 
HETATM   18  C   UNL     1       7.920  23.829  54.418  1.00  0.00    -0.030 A 
HETATM   19  C   UNL     1       8.342  23.974  53.086  1.00  0.00     0.012 A 
HETATM   20  C   UNL     1       7.504  24.536  52.118  1.00  0.00     0.030 A 
BRANCH  18  21
HETATM   21  C   UNL     1       8.884  23.247  55.430  1.00  0.00     0.147 C 
HETATM   22  C   UNL     1       8.465  23.336  56.895  1.00  0.00     0.044 C 
BRANCH  21  23
HETATM   23  O   UNL     1       9.095  21.877  55.094  1.00  0.00    -0.391 OA
HETATM   24  H   UNL     1       9.616  21.480  55.811  1.00  0.00     0.210 HD
ENDBRANCH  21  23
ENDBRANCH  18  21
ENDBRANCH  12  15
ENDBRANCH   1  11
BRANCH   4  25
HETATM   25  C   UNL     1       0.909  27.999  47.294  1.00  0.00     0.409 C 
HETATM   26  F   UNL     1       0.457  27.073  48.171  1.00  0.00    -0.169 F 
HETATM   27  F   UNL     1      -0.139  28.829  47.039  1.00  0.00    -0.169 F 
HETATM   28  F   UNL     1       1.188  27.379  46.130  1.00  0.00    -0.169 F 
ENDBRANCH   4  25
BRANCH   6  29
HETATM   29  C   UNL     1       3.570  31.368  48.845  1.00  0.00     0.005 A 
HETATM   30  S   UNL     1       2.918  32.323  47.571  1.00  0.00    -0.104 SA
HETATM   31  C   UNL     1       4.452  32.946  47.156  1.00  0.00     0.050 A 
HETATM   32  C   UNL     1       5.444  32.465  47.978  1.00  0.00     0.008 A 
HETATM   33  C   UNL     1       4.937  31.560  48.954  1.00  0.00     0.017 A 
ENDBRANCH   6  29
TORSDOF 6
ENDMDL
MODEL 7
REMARK VINA RESULT:      -7.8      4.658      9.111
REMARK  6 active torsions:
REMARK  status: ('A' for Active; 'I' for Inactive)
REMARK    1  A    between atoms: C_2  and  O_3 
REMARK    2  A    between atoms: C_2  and  C_4 
REMARK    3  A    between atoms: C_7  and  N_8 
REMARK       I    between atoms: N_8  and  C_9 
REMARK    4  A    between atoms: C_9  and  C_10 
REMARK    5  A    between atoms: C_13  and  C_14 
REMARK    6  A    between atoms: C_19  and  C_20 
ROOT
HETATM    1  C   UNL     1       5.035  26.500  51.009  1.00  0.00     0.096 C 
HETATM    2  C   UNL     1       5.893  26.816  52.045  1.00  0.00     0.138 C 
HETATM    3  N   UNL     1       6.058  25.651  52.762  1.00  0.00    -0.240 N 
HETATM    4  C   UNL     1       6.871  25.528  53.960  1.00  0.00     0.221 C 
HETATM    5  C   UNL     1       7.791  26.754  54.111  1.00  0.00     0.067 C 
HETATM    6  C   UNL     1       7.043  28.061  53.806  1.00  0.00     0.125 C 
HETATM    7  N   UNL     1       6.495  27.975  52.438  1.00  0.00    -0.365 N 
HETATM    8  N   UNL     1       5.233  24.668  52.375  1.00  0.00    -0.181 NA
HETATM    9  C   UNL     1       4.636  25.172  51.292  1.00  0.00     0.160 C 
HETATM   10  H   UNL     1       6.052  28.855  52.163  1.00  0.00     0.162 HD
ENDROOT
BRANCH   1  11
HETATM   11  C   UNL     1       4.579  27.314  49.893  1.00  0.00     0.261 C 
HETATM   12  N   UNL     1       3.241  27.131  49.593  1.00  0.00    -0.323 N 
HETATM   13  H   UNL     1       2.732  26.522  50.225  1.00  0.00     0.169 HD
HETATM   14  O   UNL     1       5.341  28.104  49.352  1.00  0.00    -0.267 OA
BRANCH  12  15
HETATM   15  C   UNL     1       2.481  27.804  48.616  1.00  0.00     0.035 A 
HETATM   16  C   UNL     1       2.421  29.192  48.494  1.00  0.00     0.030 A 
HETATM   17  C   UNL     1       1.614  29.791  47.518  1.00  0.00     0.012 A 
HETATM   18  C   UNL     1       0.843  29.018  46.642  1.00  0.00    -0.030 A 
HETATM   19  C   UNL     1       0.934  27.621  46.751  1.00  0.00     0.012 A 
HETATM   20  C   UNL     1       1.744  27.022  47.723  1.00  0.00     0.030 A 
BRANCH  18  21
HETATM   21  C   UNL     1      -0.077  29.609  45.595  1.00  0.00     0.147 C 
HETATM   22  C   UNL     1      -1.401  30.178  46.099  1.00  0.00     0.044 C 
BRANCH  21  23
HETATM   23  O   UNL     1       0.639  30.639  44.916  1.00  0.00    -0.391 OA
HETATM   24  H   UNL     1       1.572  30.560  45.172  1.00  0.00     0.210 HD
ENDBRANCH  21  23
ENDBRANCH  18  21
ENDBRANCH  12  15
ENDBRANCH   1  11
BRANCH   4  25
HETATM   25  C   UNL     1       7.711  24.269  53.934  1.00  0.00     0.409 C 
HETATM   26  F   UNL     1       6.962  23.151  54.074  1.00  0.00    -0.169 F 
HETATM   27  F   UNL     1       8.336  24.164  52.729  1.00  0.00    -0.169 F 
HETATM   28  F   UNL     1       8.686  24.245  54.865  1.00  0.00    -0.169 F 
ENDBRANCH   4  25
BRANCH   6  29
HETATM   29  C   UNL     1       6.034  28.408  54.883  1.00  0.00     0.005 A 
HETATM   30  S   UNL     1       6.577  28.761  56.477  1.00  0.00    -0.104 SA
HETATM   31  C   UNL     1       4.984  28.997  57.045  1.00  0.00     0.050 A 
HETATM   32  C   UNL     1       4.052  28.837  56.046  1.00  0.00     0.008 A 
HETATM   33  C   UNL     1       4.655  28.503  54.800  1.00  0.00     0.017 A 
ENDBRANCH   6  29
TORSDOF 6
ENDMDL
MODEL 8
REMARK VINA RESULT:      -7.8      8.237     10.262
REMARK  6 active torsions:
REMARK  status: ('A' for Active; 'I' for Inactive)
REMARK    1  A    between atoms: C_2  and  O_3 
REMARK    2  A    between atoms: C_2  and  C_4 
REMARK    3  A    between atoms: C_7  and  N_8 
REMARK       I    between atoms: N_8  and  C_9 
REMARK    4  A    between atoms: C_9  and  C_10 
REMARK    5  A    between atoms: C_13  and  C_14 
REMARK    6  A    between atoms: C_19  and  C_20 
ROOT
HETATM    1  C   UNL     1       4.728  31.758  58.232  1.00  0.00     0.096 C 
HETATM    2  C   UNL     1       4.482  32.216  59.513  1.00  0.00     0.138 C 
HETATM    3  N   UNL     1       4.593  33.587  59.448  1.00  0.00    -0.240 N 
HETATM    4  C   UNL     1       4.432  34.483  60.581  1.00  0.00     0.221 C 
HETATM    5  C   UNL     1       3.780  33.740  61.762  1.00  0.00     0.067 C 
HETATM    6  C   UNL     1       4.385  32.341  61.952  1.00  0.00     0.125 C 
HETATM    7  N   UNL     1       4.218  31.586  60.694  1.00  0.00    -0.365 N 
HETATM    8  N   UNL     1       5.069  34.027  58.274  1.00  0.00    -0.181 NA
HETATM    9  C   UNL     1       5.119  32.921  57.526  1.00  0.00     0.160 C 
HETATM   10  H   UNL     1       4.540  30.621  60.799  1.00  0.00     0.162 HD
ENDROOT
BRANCH   1  11
HETATM   11  C   UNL     1       4.661  30.409  57.694  1.00  0.00     0.261 C 
HETATM   12  N   UNL     1       5.865  29.731  57.764  1.00  0.00    -0.323 N 
HETATM   13  H   UNL     1       6.613  30.220  58.244  1.00  0.00     0.169 HD
HETATM   14  O   UNL     1       3.599  29.958  57.285  1.00  0.00    -0.267 OA
BRANCH  12  15
HETATM   15  C   UNL     1       6.123  28.399  57.385  1.00  0.00     0.035 A 
HETATM   16  C   UNL     1       5.215  27.595  56.697  1.00  0.00     0.030 A 
HETATM   17  C   UNL     1       5.529  26.265  56.385  1.00  0.00     0.012 A 
HETATM   18  C   UNL     1       6.757  25.705  56.758  1.00  0.00    -0.030 A 
HETATM   19  C   UNL     1       7.677  26.532  57.423  1.00  0.00     0.012 A 
HETATM   20  C   UNL     1       7.365  27.861  57.730  1.00  0.00     0.030 A 
BRANCH  18  21
HETATM   21  C   UNL     1       7.136  24.265  56.484  1.00  0.00     0.147 C 
HETATM   22  C   UNL     1       7.740  23.971  55.113  1.00  0.00     0.044 C 
BRANCH  21  23
HETATM   23  O   UNL     1       8.059  23.857  57.492  1.00  0.00    -0.391 OA
HETATM   24  H   UNL     1       7.549  23.684  58.299  1.00  0.00     0.210 HD
ENDBRANCH  21  23
ENDBRANCH  18  21
ENDBRANCH  12  15
ENDBRANCH   1  11
BRANCH   4  25
HETATM   25  C   UNL     1       3.593  35.690  60.220  1.00  0.00     0.409 C 
HETATM   26  F   UNL     1       2.574  35.375  59.388  1.00  0.00    -0.169 F 
HETATM   27  F   UNL     1       3.025  36.202  61.346  1.00  0.00    -0.169 F 
HETATM   28  F   UNL     1       4.298  36.696  59.665  1.00  0.00    -0.169 F 
ENDBRANCH   4  25
BRANCH   6  29
HETATM   29  C   UNL     1       5.803  32.399  62.484  1.00  0.00     0.005 A 
HETATM   30  S   UNL     1       6.115  33.158  63.997  1.00  0.00    -0.104 SA
HETATM   31  C   UNL     1       7.792  32.862  63.881  1.00  0.00     0.050 A 
HETATM   32  C   UNL     1       8.118  32.178  62.732  1.00  0.00     0.008 A 
HETATM   33  C   UNL     1       6.973  31.907  61.930  1.00  0.00     0.017 A 
ENDBRANCH   6  29
TORSDOF 6
ENDMDL
MODEL 9
REMARK VINA RESULT:      -7.8     11.448     13.502
REMARK  6 active torsions:
REMARK  status: ('A' for Active; 'I' for Inactive)
REMARK    1  A    between atoms: C_2  and  O_3 
REMARK    2  A    between atoms: C_2  and  C_4 
REMARK    3  A    between atoms: C_7  and  N_8 
REMARK       I    between atoms: N_8  and  C_9 
REMARK    4  A    between atoms: C_9  and  C_10 
REMARK    5  A    between atoms: C_13  and  C_14 
REMARK    6  A    between atoms: C_19  and  C_20 
ROOT
HETATM    1  C   UNL     1       4.995  33.348  61.555  1.00  0.00     0.096 C 
HETATM    2  C   UNL     1       5.203  34.508  62.277  1.00  0.00     0.138 C 
HETATM    3  N   UNL     1       4.266  34.494  63.286  1.00  0.00    -0.240 N 
HETATM    4  C   UNL     1       4.109  35.542  64.280  1.00  0.00     0.221 C 
HETATM    5  C   UNL     1       5.334  36.475  64.274  1.00  0.00     0.067 C 
HETATM    6  C   UNL     1       5.777  36.816  62.842  1.00  0.00     0.125 C 
HETATM    7  N   UNL     1       6.067  35.554  62.132  1.00  0.00    -0.365 N 
HETATM    8  N   UNL     1       3.361  33.513  63.157  1.00  0.00    -0.181 NA
HETATM    9  C   UNL     1       3.822  32.799  62.127  1.00  0.00     0.160 C 
HETATM   10  H   UNL     1       6.438  35.736  61.196  1.00  0.00     0.162 HD
ENDROOT
BRANCH   1  11
HETATM   11  C   UNL     1       5.742  32.797  60.436  1.00  0.00     0.261 C 
HETATM   12  N   UNL     1       7.006  32.358  60.784  1.00  0.00    -0.323 N 
HETATM   13  H   UNL     1       7.225  32.401  61.773  1.00  0.00     0.169 HD
HETATM   14  O   UNL     1       5.223  32.708  59.330  1.00  0.00    -0.267 OA
BRANCH  12  15
HETATM   15  C   UNL     1       7.953  31.726  59.955  1.00  0.00     0.035 A 
HETATM   16  C   UNL     1       9.232  32.226  59.709  1.00  0.00     0.030 A 
HETATM   17  C   UNL     1      10.108  31.559  58.843  1.00  0.00     0.012 A 
HETATM   18  C   UNL     1       9.727  30.377  58.197  1.00  0.00    -0.030 A 
HETATM   19  C   UNL     1       8.450  29.864  58.474  1.00  0.00     0.012 A 
HETATM   20  C   UNL     1       7.576  30.528  59.343  1.00  0.00     0.030 A 
BRANCH  18  21
HETATM   21  C   UNL     1      10.616  29.635  57.221  1.00  0.00     0.147 C 
HETATM   22  C   UNL     1      10.190  29.667  55.755  1.00  0.00     0.044 C 
BRANCH  21  23
HETATM   23  O   UNL     1      11.931  30.175  57.331  1.00  0.00    -0.391 OA
HETATM   24  H   UNL     1      11.857  31.024  57.794  1.00  0.00     0.210 HD
ENDBRANCH  21  23
ENDBRANCH  18  21
ENDBRANCH  12  15
ENDBRANCH   1  11
BRANCH   4  25
HETATM   25  C   UNL     1       3.920  34.968  65.668  1.00  0.00     0.409 C 
HETATM   26  F   UNL     1       2.640  34.594  65.897  1.00  0.00    -0.169 F 
HETATM   27  F   UNL     1       4.678  33.846  65.803  1.00  0.00    -0.169 F 
HETATM   28  F   UNL     1       4.302  35.800  66.658  1.00  0.00    -0.169 F 
ENDBRANCH   4  25
BRANCH   6  29
HETATM   29  C   UNL     1       4.796  37.736  62.145  1.00  0.00     0.005 A 
HETATM   30  S   UNL     1       5.000  39.441  62.257  1.00  0.00    -0.104 SA
HETATM   31  C   UNL     1       3.606  39.742  61.318  1.00  0.00     0.050 A 
HETATM   32  C   UNL     1       3.003  38.578  60.901  1.00  0.00     0.008 A 
HETATM   33  C   UNL     1       3.690  37.423  61.373  1.00  0.00     0.017 A 
ENDBRANCH   6  29
TORSDOF 6
ENDMDL
MODEL 10
REMARK VINA RESULT:      -7.7      6.611      9.901
REMARK  6 active torsions:
REMARK  status: ('A' for Active; 'I' for Inactive)
REMARK    1  A    between atoms: C_2  and  O_3 
REMARK    2  A    between atoms: C_2  and  C_4 
REMARK    3  A    between atoms: C_7  and  N_8 
REMARK       I    between atoms: N_8  and  C_9 
REMARK    4  A    between atoms: C_9  and  C_10 
REMARK    5  A    between atoms: C_13  and  C_14 
REMARK    6  A    between atoms: C_19  and  C_20 
ROOT
HETATM    1  C   UNL     1       6.578  28.549  57.255  1.00  0.00     0.096 C 
HETATM    2  C   UNL     1       6.363  27.275  56.764  1.00  0.00     0.138 C 
HETATM    3  N   UNL     1       7.584  26.639  56.825  1.00  0.00    -0.240 N 
HETATM    4  C   UNL     1       7.827  25.276  56.386  1.00  0.00     0.221 C 
HETATM    5  C   UNL     1       6.494  24.532  56.184  1.00  0.00     0.067 C 
HETATM    6  C   UNL     1       5.460  25.412  55.464  1.00  0.00     0.125 C 
HETATM    7  N   UNL     1       5.266  26.644  56.254  1.00  0.00    -0.365 N 
HETATM    8  N   UNL     1       8.595  27.461  57.142  1.00  0.00    -0.181 NA
HETATM    9  C   UNL     1       7.981  28.610  57.435  1.00  0.00     0.160 C 
HETATM   10  H   UNL     1       4.529  27.228  55.851  1.00  0.00     0.162 HD
ENDROOT
BRANCH   1  11
HETATM   11  C   UNL     1       5.633  29.626  57.503  1.00  0.00     0.261 C 
HETATM   12  N   UNL     1       6.186  30.693  58.187  1.00  0.00    -0.323 N 
HETATM   13  H   UNL     1       7.184  30.629  58.361  1.00  0.00     0.169 HD
HETATM   14  O   UNL     1       4.489  29.556  57.073  1.00  0.00    -0.267 OA
BRANCH  12  15
HETATM   15  C   UNL     1       5.562  31.908  58.531  1.00  0.00     0.035 A 
HETATM   16  C   UNL     1       5.262  32.287  59.839  1.00  0.00     0.030 A 
HETATM   17  C   UNL     1       4.607  33.498  60.101  1.00  0.00     0.012 A 
HETATM   18  C   UNL     1       4.232  34.358  59.062  1.00  0.00    -0.030 A 
HETATM   19  C   UNL     1       4.566  33.982  57.751  1.00  0.00     0.012 A 
HETATM   20  C   UNL     1       5.224  32.776  57.489  1.00  0.00     0.030 A 
BRANCH  18  21
HETATM   21  C   UNL     1       3.488  35.658  59.282  1.00  0.00     0.147 C 
HETATM   22  C   UNL     1       1.998  35.543  59.596  1.00  0.00     0.044 C 
BRANCH  21  23
HETATM   23  O   UNL     1       4.131  36.356  60.347  1.00  0.00    -0.391 OA
HETATM   24  H   UNL     1       3.435  36.726  60.912  1.00  0.00     0.210 HD
ENDBRANCH  21  23
ENDBRANCH  18  21
ENDBRANCH  12  15
ENDBRANCH   1  11
BRANCH   4  25
HETATM   25  C   UNL     1       8.681  24.517  57.378  1.00  0.00     0.409 C 
HETATM   26  F   UNL     1       8.516  24.964  58.644  1.00  0.00    -0.169 F 
HETATM   27  F   UNL     1       8.316  23.205  57.384  1.00  0.00    -0.169 F 
HETATM   28  F   UNL     1       9.999  24.537  57.090  1.00  0.00    -0.169 F 
ENDBRANCH   4  25
BRANCH   6  29
HETATM   29  C   UNL     1       5.813  25.632  54.006  1.00  0.00     0.005 A 
HETATM   30  S   UNL     1       5.207  27.015  53.182  1.00  0.00    -0.104 SA
HETATM   31  C   UNL     1       5.958  26.562  51.718  1.00  0.00     0.050 A 
HETATM   32  C   UNL     1       6.678  25.397  51.847  1.00  0.00     0.008 A 
HETATM   33  C   UNL     1       6.600  24.863  53.165  1.00  0.00     0.017 A 
ENDBRANCH   6  29
TORSDOF 6
ENDMDL
