MODEL 1
REMARK VINA RESULT:      -8.5      0.000      0.000
REMARK  2 active torsions:
REMARK  status: ('A' for Active; 'I' for Inactive)
REMARK    1  A    between atoms: C_12  and  C_13 
REMARK    2  A    between atoms: C_16  and  O_17 
ROOT
HETATM    1  C   UNL     1       8.348  27.699  57.370  1.00  0.00     0.002 A 
HETATM    2  C   UNL     1       7.261  26.925  56.971  1.00  0.00     0.026 A 
HETATM    3  C   UNL     1       6.629  27.146  55.738  1.00  0.00     0.036 A 
HETATM    4  C   UNL     1       7.103  28.167  54.883  1.00  0.00     0.053 A 
HETATM    5  N   UNL     1       6.558  28.443  53.608  1.00  0.00    -0.356 N 
HETATM    6  C   UNL     1       5.975  27.530  52.759  1.00  0.00     0.041 A 
HETATM    7  C   UNL     1       5.579  26.273  53.015  1.00  0.00     0.056 A 
HETATM    8  C   UNL     1       5.039  25.725  51.764  1.00  0.00     0.251 A 
HETATM    9  O   UNL     1       4.540  24.628  51.612  1.00  0.00    -0.268 OA
HETATM   10  N   UNL     1       5.182  26.688  50.800  1.00  0.00    -0.351 N 
HETATM   11  C   UNL     1       5.746  27.890  51.315  1.00  0.00     0.180 A 
HETATM   12  C   UNL     1       5.547  25.487  54.273  1.00  0.00     0.134 C 
HETATM   13  N   UNL     1       5.481  26.366  55.460  1.00  0.00    -0.278 NA
HETATM   14  C   UNL     1       8.191  28.949  55.315  1.00  0.00     0.031 A 
HETATM   15  C   UNL     1       8.810  28.717  56.545  1.00  0.00     0.002 A 
HETATM   16  H   UNL     1       6.956  29.261  53.156  1.00  0.00     0.166 HD
HETATM   17  H   UNL     1       4.854  26.536  49.857  1.00  0.00     0.163 HD
HETATM   18  H   UNL     1       4.727  27.034  55.300  1.00  0.00     0.128 HD
ENDROOT
BRANCH  12  19
HETATM   19  C   UNL     1       6.622  24.415  54.425  1.00  0.00    -0.035 A 
HETATM   20  C   UNL     1       7.528  24.098  53.398  1.00  0.00     0.012 A 
HETATM   21  C   UNL     1       8.506  23.116  53.580  1.00  0.00     0.037 A 
HETATM   22  C   UNL     1       8.590  22.449  54.796  1.00  0.00     0.065 A 
HETATM   23  C   UNL     1       7.720  22.754  55.834  1.00  0.00     0.037 A 
HETATM   24  C   UNL     1       6.744  23.735  55.652  1.00  0.00     0.012 A 
BRANCH  22  25
HETATM   25  O   UNL     1       9.528  21.483  55.014  1.00  0.00    -0.361 OA
HETATM   26  H   UNL     1       9.072  20.635  55.129  1.00  0.00     0.217 HD
ENDBRANCH  22  25
ENDBRANCH  12  19
TORSDOF 2
ENDMDL
MODEL 2
REMARK VINA RESULT:      -8.4     11.678     14.616
REMARK  2 active torsions:
REMARK  status: ('A' for Active; 'I' for Inactive)
REMARK    1  A    between atoms: C_12  and  C_13 
REMARK    2  A    between atoms: C_16  and  O_17 
ROOT
HETATM    1  C   UNL     1       7.040  32.632  61.460  1.00  0.00     0.002 A 
HETATM    2  C   UNL     1       5.788  32.899  62.010  1.00  0.00     0.026 A 
HETATM    3  C   UNL     1       5.629  33.094  63.390  1.00  0.00     0.036 A 
HETATM    4  C   UNL     1       6.757  33.022  64.239  1.00  0.00     0.053 A 
HETATM    5  N   UNL     1       6.707  33.239  65.636  1.00  0.00    -0.356 N 
HETATM    6  C   UNL     1       5.833  34.073  66.297  1.00  0.00     0.041 A 
HETATM    7  C   UNL     1       4.718  34.662  65.836  1.00  0.00     0.056 A 
HETATM    8  C   UNL     1       4.165  35.462  66.937  1.00  0.00     0.251 A 
HETATM    9  O   UNL     1       3.133  36.102  66.918  1.00  0.00    -0.268 OA
HETATM   10  N   UNL     1       5.018  35.338  68.002  1.00  0.00    -0.351 N 
HETATM   11  C   UNL     1       6.107  34.462  67.725  1.00  0.00     0.180 A 
HETATM   12  C   UNL     1       4.013  34.557  64.536  1.00  0.00     0.134 C 
HETATM   13  N   UNL     1       4.307  33.275  63.862  1.00  0.00    -0.278 NA
HETATM   14  C   UNL     1       8.010  32.733  63.665  1.00  0.00     0.031 A 
HETATM   15  C   UNL     1       8.152  32.542  62.289  1.00  0.00     0.002 A 
HETATM   16  H   UNL     1       7.587  33.069  66.113  1.00  0.00     0.166 HD
HETATM   17  H   UNL     1       4.822  35.789  68.885  1.00  0.00     0.163 HD
HETATM   18  H   UNL     1       4.155  32.532  64.544  1.00  0.00     0.128 HD
ENDROOT
BRANCH  12  19
HETATM   19  C   UNL     1       4.169  35.741  63.587  1.00  0.00    -0.035 A 
HETATM   20  C   UNL     1       3.171  36.111  62.667  1.00  0.00     0.012 A 
HETATM   21  C   UNL     1       3.347  37.210  61.821  1.00  0.00     0.037 A 
HETATM   22  C   UNL     1       4.519  37.953  61.896  1.00  0.00     0.065 A 
HETATM   23  C   UNL     1       5.513  37.621  62.806  1.00  0.00     0.037 A 
HETATM   24  C   UNL     1       5.336  36.524  63.651  1.00  0.00     0.012 A 
BRANCH  22  25
HETATM   25  O   UNL     1       4.731  39.031  61.087  1.00  0.00    -0.361 OA
HETATM   26  H   UNL     1       5.688  39.170  61.007  1.00  0.00     0.217 HD
ENDBRANCH  22  25
ENDBRANCH  12  19
TORSDOF 2
ENDMDL
MODEL 3
REMARK VINA RESULT:      -8.3      2.920      4.787
REMARK  2 active torsions:
REMARK  status: ('A' for Active; 'I' for Inactive)
REMARK    1  A    between atoms: C_12  and  C_13 
REMARK    2  A    between atoms: C_16  and  O_17 
ROOT
HETATM    1  C   UNL     1       3.702  30.846  54.959  1.00  0.00     0.002 A 
HETATM    2  C   UNL     1       4.046  29.777  55.784  1.00  0.00     0.026 A 
HETATM    3  C   UNL     1       4.175  28.478  55.270  1.00  0.00     0.036 A 
HETATM    4  C   UNL     1       3.957  28.248  53.892  1.00  0.00     0.053 A 
HETATM    5  N   UNL     1       4.098  26.984  53.273  1.00  0.00    -0.356 N 
HETATM    6  C   UNL     1       4.966  25.985  53.654  1.00  0.00     0.041 A 
HETATM    7  C   UNL     1       5.675  25.872  54.788  1.00  0.00     0.056 A 
HETATM    8  C   UNL     1       6.456  24.632  54.688  1.00  0.00     0.251 A 
HETATM    9  O   UNL     1       7.185  24.165  55.541  1.00  0.00    -0.268 OA
HETATM   10  N   UNL     1       6.197  24.084  53.459  1.00  0.00    -0.351 N 
HETATM   11  C   UNL     1       5.247  24.841  52.717  1.00  0.00     0.180 A 
HETATM   12  C   UNL     1       5.706  26.700  56.018  1.00  0.00     0.134 C 
HETATM   13  N   UNL     1       4.443  27.447  56.201  1.00  0.00    -0.278 NA
HETATM   14  C   UNL     1       3.592  29.339  53.081  1.00  0.00     0.031 A 
HETATM   15  C   UNL     1       3.468  30.626  53.607  1.00  0.00     0.002 A 
HETATM   16  H   UNL     1       3.824  26.970  52.295  1.00  0.00     0.166 HD
HETATM   17  H   UNL     1       6.613  23.205  53.180  1.00  0.00     0.163 HD
HETATM   18  H   UNL     1       3.679  26.779  56.099  1.00  0.00     0.128 HD
ENDROOT
BRANCH  12  19
HETATM   19  C   UNL     1       6.924  27.601  56.194  1.00  0.00    -0.035 A 
HETATM   20  C   UNL     1       7.443  27.938  57.457  1.00  0.00     0.012 A 
HETATM   21  C   UNL     1       8.568  28.758  57.576  1.00  0.00     0.037 A 
HETATM   22  C   UNL     1       9.189  29.241  56.430  1.00  0.00     0.065 A 
HETATM   23  C   UNL     1       8.709  28.911  55.170  1.00  0.00     0.037 A 
HETATM   24  C   UNL     1       7.586  28.091  55.052  1.00  0.00     0.012 A 
BRANCH  22  25
HETATM   25  O   UNL     1      10.288  30.047  56.503  1.00  0.00    -0.361 OA
HETATM   26  H   UNL     1      10.087  30.785  57.099  1.00  0.00     0.217 HD
ENDBRANCH  22  25
ENDBRANCH  12  19
TORSDOF 2
ENDMDL
MODEL 4
REMARK VINA RESULT:      -7.9      2.513      5.092
REMARK  2 active torsions:
REMARK  status: ('A' for Active; 'I' for Inactive)
REMARK    1  A    between atoms: C_12  and  C_13 
REMARK    2  A    between atoms: C_16  and  O_17 
ROOT
HETATM    1  C   UNL     1       4.263  28.195  52.521  1.00  0.00     0.002 A 
HETATM    2  C   UNL     1       4.356  27.468  53.706  1.00  0.00     0.026 A 
HETATM    3  C   UNL     1       5.019  26.232  53.748  1.00  0.00     0.036 A 
HETATM    4  C   UNL     1       5.606  25.716  52.571  1.00  0.00     0.053 A 
HETATM    5  N   UNL     1       6.326  24.499  52.518  1.00  0.00    -0.356 N 
HETATM    6  C   UNL     1       7.066  23.949  53.540  1.00  0.00     0.041 A 
HETATM    7  C   UNL     1       7.087  24.282  54.841  1.00  0.00     0.056 A 
HETATM    8  C   UNL     1       8.060  23.399  55.498  1.00  0.00     0.251 A 
HETATM    9  O   UNL     1       8.321  23.368  56.685  1.00  0.00    -0.268 OA
HETATM   10  N   UNL     1       8.607  22.599  54.530  1.00  0.00    -0.351 N 
HETATM   11  C   UNL     1       8.040  22.839  53.245  1.00  0.00     0.180 A 
HETATM   12  C   UNL     1       6.289  25.259  55.620  1.00  0.00     0.134 C 
HETATM   13  N   UNL     1       4.986  25.532  54.977  1.00  0.00    -0.278 NA
HETATM   14  C   UNL     1       5.484  26.457  51.381  1.00  0.00     0.031 A 
HETATM   15  C   UNL     1       4.822  27.686  51.355  1.00  0.00     0.002 A 
HETATM   16  H   UNL     1       6.611  24.227  51.583  1.00  0.00     0.166 HD
HETATM   17  H   UNL     1       9.290  21.891  54.760  1.00  0.00     0.163 HD
HETATM   18  H   UNL     1       4.558  24.630  54.768  1.00  0.00     0.128 HD
ENDROOT
BRANCH  12  19
HETATM   19  C   UNL     1       7.002  26.548  56.017  1.00  0.00    -0.035 A 
HETATM   20  C   UNL     1       7.620  27.393  55.078  1.00  0.00     0.012 A 
HETATM   21  C   UNL     1       8.254  28.572  55.481  1.00  0.00     0.037 A 
HETATM   22  C   UNL     1       8.267  28.919  56.826  1.00  0.00     0.065 A 
HETATM   23  C   UNL     1       7.650  28.113  57.773  1.00  0.00     0.037 A 
HETATM   24  C   UNL     1       7.017  26.936  57.370  1.00  0.00     0.012 A 
BRANCH  22  25
HETATM   25  O   UNL     1       8.877  30.059  57.261  1.00  0.00    -0.361 OA
HETATM   26  H   UNL     1       8.898  30.693  56.527  1.00  0.00     0.217 HD
ENDBRANCH  22  25
ENDBRANCH  12  19
TORSDOF 2
ENDMDL
MODEL 5
REMARK VINA RESULT:      -7.3      2.254      2.701
REMARK  2 active torsions:
REMARK  status: ('A' for Active; 'I' for Inactive)
REMARK    1  A    between atoms: C_12  and  C_13 
REMARK    2  A    between atoms: C_16  and  O_17 
ROOT
HETATM    1  C   UNL     1       5.011  28.607  56.861  1.00  0.00     0.002 A 
HETATM    2  C   UNL     1       4.439  27.824  55.860  1.00  0.00     0.026 A 
HETATM    3  C   UNL     1       4.369  28.279  54.535  1.00  0.00     0.036 A 
HETATM    4  C   UNL     1       4.890  29.552  54.207  1.00  0.00     0.053 A 
HETATM    5  N   UNL     1       4.899  30.085  52.896  1.00  0.00    -0.356 N 
HETATM    6  C   UNL     1       4.994  29.363  51.728  1.00  0.00     0.041 A 
HETATM    7  C   UNL     1       4.860  28.041  51.539  1.00  0.00     0.056 A 
HETATM    8  C   UNL     1       5.073  27.783  50.109  1.00  0.00     0.251 A 
HETATM    9  O   UNL     1       4.985  26.710  49.547  1.00  0.00    -0.268 OA
HETATM   10  N   UNL     1       5.368  28.983  49.517  1.00  0.00    -0.351 N 
HETATM   11  C   UNL     1       5.328  30.067  50.439  1.00  0.00     0.180 A 
HETATM   12  C   UNL     1       4.489  26.946  52.468  1.00  0.00     0.134 C 
HETATM   13  N   UNL     1       3.695  27.449  53.609  1.00  0.00    -0.278 NA
HETATM   14  C   UNL     1       5.446  30.334  55.236  1.00  0.00     0.031 A 
HETATM   15  C   UNL     1       5.509  29.866  56.551  1.00  0.00     0.002 A 
HETATM   16  H   UNL     1       5.231  31.043  52.842  1.00  0.00     0.166 HD
HETATM   17  H   UNL     1       5.531  29.049  48.521  1.00  0.00     0.163 HD
HETATM   18  H   UNL     1       2.941  28.020  53.226  1.00  0.00     0.128 HD
ENDROOT
BRANCH  12  19
HETATM   19  C   UNL     1       5.625  26.038  52.929  1.00  0.00    -0.035 A 
HETATM   20  C   UNL     1       6.972  26.288  52.609  1.00  0.00     0.012 A 
HETATM   21  C   UNL     1       7.986  25.437  53.060  1.00  0.00     0.037 A 
HETATM   22  C   UNL     1       7.660  24.336  53.841  1.00  0.00     0.065 A 
HETATM   23  C   UNL     1       6.342  24.075  54.186  1.00  0.00     0.037 A 
HETATM   24  C   UNL     1       5.329  24.925  53.737  1.00  0.00     0.012 A 
BRANCH  22  25
HETATM   25  O   UNL     1       8.619  23.480  54.299  1.00  0.00    -0.361 OA
HETATM   26  H   UNL     1       8.948  22.960  53.549  1.00  0.00     0.217 HD
ENDBRANCH  22  25
ENDBRANCH  12  19
TORSDOF 2
ENDMDL
MODEL 6
REMARK VINA RESULT:      -7.1      9.140     11.761
REMARK  2 active torsions:
REMARK  status: ('A' for Active; 'I' for Inactive)
REMARK    1  A    between atoms: C_12  and  C_13 
REMARK    2  A    between atoms: C_16  and  O_17 
ROOT
HETATM    1  C   UNL     1       2.360  34.510  59.775  1.00  0.00     0.002 A 
HETATM    2  C   UNL     1       2.825  33.566  60.688  1.00  0.00     0.026 A 
HETATM    3  C   UNL     1       4.051  32.912  60.495  1.00  0.00     0.036 A 
HETATM    4  C   UNL     1       4.831  33.217  59.356  1.00  0.00     0.053 A 
HETATM    5  N   UNL     1       6.095  32.640  59.091  1.00  0.00    -0.356 N 
HETATM    6  C   UNL     1       7.009  32.220  60.030  1.00  0.00     0.041 A 
HETATM    7  C   UNL     1       6.839  32.034  61.349  1.00  0.00     0.056 A 
HETATM    8  C   UNL     1       8.130  31.597  61.895  1.00  0.00     0.251 A 
HETATM    9  O   UNL     1       8.359  31.285  63.047  1.00  0.00    -0.268 OA
HETATM   10  N   UNL     1       9.029  31.585  60.861  1.00  0.00    -0.351 N 
HETATM   11  C   UNL     1       8.431  31.942  59.619  1.00  0.00     0.180 A 
HETATM   12  C   UNL     1       5.634  32.125  62.209  1.00  0.00     0.134 C 
HETATM   13  N   UNL     1       4.395  31.909  61.432  1.00  0.00    -0.278 NA
HETATM   14  C   UNL     1       4.335  34.160  58.437  1.00  0.00     0.031 A 
HETATM   15  C   UNL     1       3.112  34.803  58.644  1.00  0.00     0.002 A 
HETATM   16  H   UNL     1       6.488  32.901  58.191  1.00  0.00     0.166 HD
HETATM   17  H   UNL     1       9.985  31.290  61.003  1.00  0.00     0.163 HD
HETATM   18  H   UNL     1       4.524  31.057  60.887  1.00  0.00     0.128 HD
ENDROOT
BRANCH  12  19
HETATM   19  C   UNL     1       5.533  33.360  63.099  1.00  0.00    -0.035 A 
HETATM   20  C   UNL     1       5.963  34.632  62.682  1.00  0.00     0.012 A 
HETATM   21  C   UNL     1       5.844  35.742  63.524  1.00  0.00     0.037 A 
HETATM   22  C   UNL     1       5.284  35.589  64.786  1.00  0.00     0.065 A 
HETATM   23  C   UNL     1       4.835  34.348  65.217  1.00  0.00     0.037 A 
HETATM   24  C   UNL     1       4.954  33.240  64.376  1.00  0.00     0.012 A 
BRANCH  22  25
HETATM   25  O   UNL     1       5.152  36.645  65.638  1.00  0.00    -0.361 OA
HETATM   26  H   UNL     1       5.529  36.395  66.497  1.00  0.00     0.217 HD
ENDBRANCH  22  25
ENDBRANCH  12  19
TORSDOF 2
ENDMDL
MODEL 7
REMARK VINA RESULT:      -7.1      3.726      7.408
REMARK  2 active torsions:
REMARK  status: ('A' for Active; 'I' for Inactive)
REMARK    1  A    between atoms: C_12  and  C_13 
REMARK    2  A    between atoms: C_16  and  O_17 
ROOT
HETATM    1  C   UNL     1       4.798  31.965  48.319  1.00  0.00     0.002 A 
HETATM    2  C   UNL     1       5.181  30.633  48.181  1.00  0.00     0.026 A 
HETATM    3  C   UNL     1       5.492  29.849  49.302  1.00  0.00     0.036 A 
HETATM    4  C   UNL     1       5.414  30.418  50.594  1.00  0.00     0.053 A 
HETATM    5  N   UNL     1       5.672  29.702  51.787  1.00  0.00    -0.356 N 
HETATM    6  C   UNL     1       5.455  28.358  51.990  1.00  0.00     0.041 A 
HETATM    7  C   UNL     1       5.193  27.400  51.086  1.00  0.00     0.056 A 
HETATM    8  C   UNL     1       5.027  26.141  51.826  1.00  0.00     0.251 A 
HETATM    9  O   UNL     1       4.827  25.043  51.347  1.00  0.00    -0.268 OA
HETATM   10  N   UNL     1       5.161  26.429  53.159  1.00  0.00    -0.351 N 
HETATM   11  C   UNL     1       5.456  27.803  53.389  1.00  0.00     0.180 A 
HETATM   12  C   UNL     1       5.137  27.431  49.605  1.00  0.00     0.134 C 
HETATM   13  N   UNL     1       5.953  28.534  49.054  1.00  0.00    -0.278 NA
HETATM   14  C   UNL     1       5.043  31.771  50.709  1.00  0.00     0.031 A 
HETATM   15  C   UNL     1       4.735  32.538  49.583  1.00  0.00     0.002 A 
HETATM   16  H   UNL     1       5.655  30.274  52.625  1.00  0.00     0.166 HD
HETATM   17  H   UNL     1       5.106  25.702  53.859  1.00  0.00     0.163 HD
HETATM   18  H   UNL     1       6.872  28.478  49.492  1.00  0.00     0.128 HD
ENDROOT
BRANCH  12  19
HETATM   19  C   UNL     1       3.745  27.395  48.982  1.00  0.00    -0.035 A 
HETATM   20  C   UNL     1       2.680  28.179  49.461  1.00  0.00     0.012 A 
HETATM   21  C   UNL     1       1.420  28.126  48.856  1.00  0.00     0.037 A 
HETATM   22  C   UNL     1       1.220  27.294  47.761  1.00  0.00     0.065 A 
HETATM   23  C   UNL     1       2.257  26.522  47.257  1.00  0.00     0.037 A 
HETATM   24  C   UNL     1       3.515  26.576  47.861  1.00  0.00     0.012 A 
BRANCH  22  25
HETATM   25  O   UNL     1       0.006  27.211  47.144  1.00  0.00    -0.361 OA
HETATM   26  H   UNL     1      -0.674  27.513  47.766  1.00  0.00     0.217 HD
ENDBRANCH  22  25
ENDBRANCH  12  19
TORSDOF 2
ENDMDL
MODEL 8
REMARK VINA RESULT:      -6.9     14.451     16.415
REMARK  2 active torsions:
REMARK  status: ('A' for Active; 'I' for Inactive)
REMARK    1  A    between atoms: C_12  and  C_13 
REMARK    2  A    between atoms: C_16  and  O_17 
ROOT
HETATM    1  C   UNL     1      14.264   9.705  56.518  1.00  0.00     0.002 A 
HETATM    2  C   UNL     1      13.768  10.869  55.936  1.00  0.00     0.026 A 
HETATM    3  C   UNL     1      14.061  11.195  54.603  1.00  0.00     0.036 A 
HETATM    4  C   UNL     1      14.872  10.328  53.835  1.00  0.00     0.053 A 
HETATM    5  N   UNL     1      15.195  10.549  52.476  1.00  0.00    -0.356 N 
HETATM    6  C   UNL     1      14.406  11.192  51.548  1.00  0.00     0.041 A 
HETATM    7  C   UNL     1      13.310  11.940  51.748  1.00  0.00     0.056 A 
HETATM    8  C   UNL     1      12.837  12.377  50.427  1.00  0.00     0.251 A 
HETATM    9  O   UNL     1      11.895  13.110  50.202  1.00  0.00    -0.268 OA
HETATM   10  N   UNL     1      13.669  11.820  49.491  1.00  0.00    -0.351 N 
HETATM   11  C   UNL     1      14.719  11.061  50.082  1.00  0.00     0.180 A 
HETATM   12  C   UNL     1      12.640  12.397  52.990  1.00  0.00     0.134 C 
HETATM   13  N   UNL     1      13.581  12.439  54.129  1.00  0.00    -0.278 NA
HETATM   14  C   UNL     1      15.379   9.166  54.449  1.00  0.00     0.031 A 
HETATM   15  C   UNL     1      15.076   8.855  55.776  1.00  0.00     0.002 A 
HETATM   16  H   UNL     1      15.854   9.879  52.093  1.00  0.00     0.166 HD
HETATM   17  H   UNL     1      13.545  12.006  48.505  1.00  0.00     0.163 HD
HETATM   18  H   UNL     1      14.407  12.952  53.821  1.00  0.00     0.128 HD
ENDROOT
BRANCH  12  19
HETATM   19  C   UNL     1      11.343  11.683  53.357  1.00  0.00    -0.035 A 
HETATM   20  C   UNL     1      11.122  10.321  53.084  1.00  0.00     0.012 A 
HETATM   21  C   UNL     1       9.923   9.701  53.446  1.00  0.00     0.037 A 
HETATM   22  C   UNL     1       8.939  10.437  54.094  1.00  0.00     0.065 A 
HETATM   23  C   UNL     1       9.136  11.778  54.393  1.00  0.00     0.037 A 
HETATM   24  C   UNL     1      10.334  12.397  54.031  1.00  0.00     0.012 A 
BRANCH  22  25
HETATM   25  O   UNL     1       7.754   9.870  54.463  1.00  0.00    -0.361 OA
HETATM   26  H   UNL     1       7.034  10.454  54.178  1.00  0.00     0.217 HD
ENDBRANCH  22  25
ENDBRANCH  12  19
TORSDOF 2
ENDMDL
MODEL 9
REMARK VINA RESULT:      -6.9      4.528      7.675
REMARK  2 active torsions:
REMARK  status: ('A' for Active; 'I' for Inactive)
REMARK    1  A    between atoms: C_12  and  C_13 
REMARK    2  A    between atoms: C_16  and  O_17 
ROOT
HETATM    1  C   UNL     1       2.645  25.480  47.397  1.00  0.00     0.002 A 
HETATM    2  C   UNL     1       3.894  26.017  47.701  1.00  0.00     0.026 A 
HETATM    3  C   UNL     1       4.130  27.397  47.611  1.00  0.00     0.036 A 
HETATM    4  C   UNL     1       3.085  28.259  47.208  1.00  0.00     0.053 A 
HETATM    5  N   UNL     1       3.213  29.665  47.122  1.00  0.00    -0.356 N 
HETATM    6  C   UNL     1       4.028  30.455  47.900  1.00  0.00     0.041 A 
HETATM    7  C   UNL     1       5.028  30.088  48.717  1.00  0.00     0.056 A 
HETATM    8  C   UNL     1       5.564  31.314  49.324  1.00  0.00     0.251 A 
HETATM    9  O   UNL     1       6.509  31.391  50.084  1.00  0.00    -0.268 OA
HETATM   10  N   UNL     1       4.813  32.362  48.860  1.00  0.00    -0.351 N 
HETATM   11  C   UNL     1       3.818  31.946  47.930  1.00  0.00     0.180 A 
HETATM   12  C   UNL     1       5.643  28.767  48.990  1.00  0.00     0.134 C 
HETATM   13  N   UNL     1       5.453  27.835  47.858  1.00  0.00    -0.278 NA
HETATM   14  C   UNL     1       1.836  27.693  46.888  1.00  0.00     0.031 A 
HETATM   15  C   UNL     1       1.616  26.317  46.983  1.00  0.00     0.002 A 
HETATM   16  H   UNL     1       2.397  30.132  46.737  1.00  0.00     0.166 HD
HETATM   17  H   UNL     1       5.019  33.314  49.130  1.00  0.00     0.163 HD
HETATM   18  H   UNL     1       5.742  28.326  47.011  1.00  0.00     0.128 HD
ENDROOT
BRANCH  12  19
HETATM   19  C   UNL     1       5.278  28.116  50.321  1.00  0.00    -0.035 A 
HETATM   20  C   UNL     1       4.422  28.728  51.255  1.00  0.00     0.012 A 
HETATM   21  C   UNL     1       4.103  28.094  52.459  1.00  0.00     0.037 A 
HETATM   22  C   UNL     1       4.632  26.839  52.735  1.00  0.00     0.065 A 
HETATM   23  C   UNL     1       5.466  26.204  51.825  1.00  0.00     0.037 A 
HETATM   24  C   UNL     1       5.783  26.837  50.621  1.00  0.00     0.012 A 
BRANCH  22  25
HETATM   25  O   UNL     1       4.348  26.188  53.899  1.00  0.00    -0.361 OA
HETATM   26  H   UNL     1       3.543  25.662  53.767  1.00  0.00     0.217 HD
ENDBRANCH  22  25
ENDBRANCH  12  19
TORSDOF 2
ENDMDL
MODEL 10
REMARK VINA RESULT:      -6.7     14.884     17.910
REMARK  2 active torsions:
REMARK  status: ('A' for Active; 'I' for Inactive)
REMARK    1  A    between atoms: C_12  and  C_13 
REMARK    2  A    between atoms: C_16  and  O_17 
ROOT
HETATM    1  C   UNL     1      16.470  10.766  55.763  1.00  0.00     0.002 A 
HETATM    2  C   UNL     1      16.020  11.366  54.589  1.00  0.00     0.026 A 
HETATM    3  C   UNL     1      15.925  10.637  53.393  1.00  0.00     0.036 A 
HETATM    4  C   UNL     1      16.288   9.271  53.378  1.00  0.00     0.053 A 
HETATM    5  N   UNL     1      16.194   8.444  52.235  1.00  0.00    -0.356 N 
HETATM    6  C   UNL     1      15.273   8.565  51.219  1.00  0.00     0.041 A 
HETATM    7  C   UNL     1      14.442   9.584  50.951  1.00  0.00     0.056 A 
HETATM    8  C   UNL     1      13.656   9.203  49.770  1.00  0.00     0.251 A 
HETATM    9  O   UNL     1      12.831   9.888  49.199  1.00  0.00    -0.268 OA
HETATM   10  N   UNL     1      14.038   7.936  49.416  1.00  0.00    -0.351 N 
HETATM   11  C   UNL     1      15.076   7.430  50.249  1.00  0.00     0.180 A 
HETATM   12  C   UNL     1      14.292  10.922  51.572  1.00  0.00     0.134 C 
HETATM   13  N   UNL     1      15.539  11.356  52.237  1.00  0.00    -0.278 NA
HETATM   14  C   UNL     1      16.758   8.690  54.571  1.00  0.00     0.031 A 
HETATM   15  C   UNL     1      16.846   9.429  55.754  1.00  0.00     0.002 A 
HETATM   16  H   UNL     1      16.573   7.511  52.367  1.00  0.00     0.166 HD
HETATM   17  H   UNL     1      13.640   7.476  48.608  1.00  0.00     0.163 HD
HETATM   18  H   UNL     1      16.299  11.228  51.568  1.00  0.00     0.128 HD
ENDROOT
BRANCH  12  19
HETATM   19  C   UNL     1      13.077  11.113  52.476  1.00  0.00    -0.035 A 
HETATM   20  C   UNL     1      12.357  10.033  53.017  1.00  0.00     0.012 A 
HETATM   21  C   UNL     1      11.256  10.249  53.850  1.00  0.00     0.037 A 
HETATM   22  C   UNL     1      10.871  11.549  54.155  1.00  0.00     0.065 A 
HETATM   23  C   UNL     1      11.574  12.634  53.649  1.00  0.00     0.037 A 
HETATM   24  C   UNL     1      12.674  12.418  52.818  1.00  0.00     0.012 A 
BRANCH  22  25
HETATM   25  O   UNL     1       9.801  11.803  54.961  1.00  0.00    -0.361 OA
HETATM   26  H   UNL     1       9.449  12.679  54.735  1.00  0.00     0.217 HD
ENDBRANCH  22  25
ENDBRANCH  12  19
TORSDOF 2
ENDMDL
