MODEL 1
REMARK VINA RESULT:     -10.0      0.000      0.000
REMARK  10 active torsions:
REMARK  status: ('A' for Active; 'I' for Inactive)
REMARK    1  A    between atoms: C_2  and  N_3 
REMARK    2  A    between atoms: N_3  and  C_5 
REMARK    3  A    between atoms: N_3  and  C_34 
REMARK    4  A    between atoms: C_5  and  C_6 
REMARK    5  A    between atoms: N_7  and  C_8 
REMARK    6  A    between atoms: C_12  and  N_13 
REMARK    7  A    between atoms: C_16  and  C_17 
REMARK       I    between atoms: C_17  and  N_18 
REMARK    8  A    between atoms: N_18  and  N_19 
REMARK    9  A    between atoms: C_20  and  C_21 
REMARK   10  A    between atoms: C_23  and  C_24 
ROOT
HETATM    1  C   UNL     1       5.232  32.596  60.670  1.00  0.00     0.096 A 
HETATM    2  N   UNL     1       4.167  32.942  61.498  1.00  0.00    -0.215 N 
HETATM    3  N   UNL     1       3.035  33.004  60.748  1.00  0.00     0.012 NA
HETATM    4  N   UNL     1       3.307  32.619  59.512  1.00  0.00    -0.152 NA
HETATM    5  C   UNL     1       4.642  32.357  59.435  1.00  0.00     0.170 A 
ENDROOT
BRANCH   5   6
HETATM    6  C   UNL     1       5.310  31.887  58.228  1.00  0.00     0.293 C 
HETATM    7  N   UNL     1       5.424  30.512  58.141  1.00  0.00    -0.242 N 
HETATM    8  H   UNL     1       5.057  29.916  58.880  1.00  0.00     0.192 HD
HETATM    9  O   UNL     1       5.745  32.696  57.411  1.00  0.00    -0.264 OA
BRANCH   7  10
HETATM   10  N   UNL     1       6.031  29.966  57.048  1.00  0.00    -0.181 NA
HETATM   11  C   UNL     1       5.815  28.708  56.830  1.00  0.00     0.175 C 
BRANCH  11  12
HETATM   12  C   UNL     1       6.409  28.062  55.696  1.00  0.00     0.095 A 
HETATM   13  O   UNL     1       6.574  26.708  55.736  1.00  0.00    -0.309 OA
HETATM   14  C   UNL     1       7.160  26.325  54.559  1.00  0.00     0.086 A 
HETATM   15  C   UNL     1       7.360  27.440  53.766  1.00  0.00     0.041 A 
HETATM   16  C   UNL     1       6.882  28.553  54.497  1.00  0.00     0.041 A 
BRANCH  14  17
HETATM   17  C   UNL     1       7.439  24.900  54.398  1.00  0.00    -0.002 A 
HETATM   18  C   UNL     1       7.776  24.357  53.148  1.00  0.00     0.015 A 
HETATM   19  C   UNL     1       8.032  22.989  53.001  1.00  0.00     0.020 A 
HETATM   20  C   UNL     1       7.951  22.149  54.107  1.00  0.00     0.011 A 
HETATM   21 BR   UNL     1       8.293  20.301  53.911  1.00  0.00    -0.051 Br
HETATM   22  C   UNL     1       7.620  22.663  55.357  1.00  0.00     0.020 A 
HETATM   23  C   UNL     1       7.364  24.032  55.499  1.00  0.00     0.015 A 
ENDBRANCH  14  17
ENDBRANCH  11  12
ENDBRANCH   7  10
ENDBRANCH   5   6
BRANCH   1  24
HETATM   24  C   UNL     1       6.665  32.601  61.055  1.00  0.00     0.296 C 
BRANCH  24  25
HETATM   25  N   UNL     1       7.290  31.243  61.331  1.00  0.00    -0.066 N 
HETATM   26  H   UNL     1       6.510  30.570  61.391  1.00  0.00     0.280 HD
BRANCH  25  27
HETATM   27  C   UNL     1       8.000  31.235  62.679  1.00  0.00     0.231 C 
HETATM   28  C   UNL     1       8.145  32.641  63.236  1.00  0.00     0.034 C 
ENDBRANCH  25  27
BRANCH  25  29
HETATM   29  C   UNL     1       8.225  30.796  60.216  1.00  0.00     0.231 C 
HETATM   30  C   UNL     1       8.934  31.986  59.590  1.00  0.00     0.034 C 
ENDBRANCH  25  29
ENDBRANCH  24  25
ENDBRANCH   1  24
BRANCH   2  31
HETATM   31  C   UNL     1       4.167  33.150  62.897  1.00  0.00     0.225 A 
HETATM   32  N   UNL     1       4.808  32.292  63.696  1.00  0.00    -0.081 NA
HETATM   33  O   UNL     1       4.575  32.800  64.979  1.00  0.00    -0.103 OA
HETATM   34  N   UNL     1       3.777  33.933  64.931  1.00  0.00    -0.083 NA
HETATM   35  C   UNL     1       3.520  34.149  63.642  1.00  0.00     0.201 A 
BRANCH  35  36
HETATM   36  N   UNL     1       2.778  35.163  63.172  1.00  0.00    -0.379 N 
HETATM   37  H   UNL     1       2.737  36.046  63.675  1.00  0.00     0.158 HD
HETATM   38  H   UNL     1       2.101  35.073  62.416  1.00  0.00     0.158 HD
ENDBRANCH  35  36
ENDBRANCH   2  31
TORSDOF 10
ENDMDL
MODEL 2
REMARK VINA RESULT:      -9.7      1.687      2.997
REMARK  10 active torsions:
REMARK  status: ('A' for Active; 'I' for Inactive)
REMARK    1  A    between atoms: C_2  and  N_3 
REMARK    2  A    between atoms: N_3  and  C_5 
REMARK    3  A    between atoms: N_3  and  C_34 
REMARK    4  A    between atoms: C_5  and  C_6 
REMARK    5  A    between atoms: N_7  and  C_8 
REMARK    6  A    between atoms: C_12  and  N_13 
REMARK    7  A    between atoms: C_16  and  C_17 
REMARK       I    between atoms: C_17  and  N_18 
REMARK    8  A    between atoms: N_18  and  N_19 
REMARK    9  A    between atoms: C_20  and  C_21 
REMARK   10  A    between atoms: C_23  and  C_24 
ROOT
HETATM    1  C   UNL     1       6.258  32.177  61.785  1.00  0.00     0.096 A 
HETATM    2  N   UNL     1       6.667  32.370  63.102  1.00  0.00    -0.215 N 
HETATM    3  N   UNL     1       7.942  31.917  63.233  1.00  0.00     0.012 NA
HETATM    4  N   UNL     1       8.397  31.541  62.049  1.00  0.00    -0.152 NA
HETATM    5  C   UNL     1       7.391  31.695  61.142  1.00  0.00     0.170 A 
ENDROOT
BRANCH   5   6
HETATM    6  C   UNL     1       7.526  31.400  59.722  1.00  0.00     0.293 C 
HETATM    7  N   UNL     1       7.738  30.064  59.436  1.00  0.00    -0.242 N 
HETATM    8  H   UNL     1       7.790  29.378  60.186  1.00  0.00     0.192 HD
HETATM    9  O   UNL     1       7.480  32.311  58.897  1.00  0.00    -0.264 OA
BRANCH   7  10
HETATM   10  N   UNL     1       7.876  29.680  58.135  1.00  0.00    -0.181 NA
HETATM   11  C   UNL     1       7.384  28.525  57.814  1.00  0.00     0.175 C 
BRANCH  11  12
HETATM   12  C   UNL     1       7.479  28.053  56.463  1.00  0.00     0.095 A 
HETATM   13  O   UNL     1       7.545  26.706  56.252  1.00  0.00    -0.309 OA
HETATM   14  C   UNL     1       7.636  26.500  54.901  1.00  0.00     0.086 A 
HETATM   15  C   UNL     1       7.621  27.721  54.253  1.00  0.00     0.041 A 
HETATM   16  C   UNL     1       7.524  28.716  55.254  1.00  0.00     0.041 A 
BRANCH  14  17
HETATM   17  C   UNL     1       7.729  25.112  54.454  1.00  0.00    -0.002 A 
HETATM   18  C   UNL     1       7.766  24.785  53.089  1.00  0.00     0.015 A 
HETATM   19  C   UNL     1       7.845  23.452  52.670  1.00  0.00     0.020 A 
HETATM   20  C   UNL     1       7.888  22.432  53.615  1.00  0.00     0.011 A 
HETATM   21 BR   UNL     1       7.992  20.631  53.051  1.00  0.00    -0.051 Br
HETATM   22  C   UNL     1       7.855  22.731  54.974  1.00  0.00     0.020 A 
HETATM   23  C   UNL     1       7.775  24.065  55.389  1.00  0.00     0.015 A 
ENDBRANCH  14  17
ENDBRANCH  11  12
ENDBRANCH   7  10
ENDBRANCH   5   6
BRANCH   1  24
HETATM   24  C   UNL     1       4.880  32.365  61.270  1.00  0.00     0.296 C 
BRANCH  24  25
HETATM   25  N   UNL     1       4.665  33.556  60.349  1.00  0.00    -0.066 N 
HETATM   26  H   UNL     1       5.603  33.895  60.087  1.00  0.00     0.280 HD
BRANCH  25  27
HETATM   27  C   UNL     1       3.961  34.691  61.082  1.00  0.00     0.231 C 
HETATM   28  C   UNL     1       4.960  35.642  61.719  1.00  0.00     0.034 C 
ENDBRANCH  25  27
BRANCH  25  29
HETATM   29  C   UNL     1       3.917  33.178  59.078  1.00  0.00     0.231 C 
HETATM   30  C   UNL     1       3.283  34.401  58.434  1.00  0.00     0.034 C 
ENDBRANCH  25  29
ENDBRANCH  24  25
ENDBRANCH   1  24
BRANCH   2  31
HETATM   31  C   UNL     1       5.961  32.979  64.166  1.00  0.00     0.225 A 
HETATM   32  N   UNL     1       4.657  32.733  64.325  1.00  0.00    -0.081 NA
HETATM   33  O   UNL     1       4.310  33.507  65.438  1.00  0.00    -0.103 OA
HETATM   34  N   UNL     1       5.399  34.225  65.908  1.00  0.00    -0.083 NA
HETATM   35  C   UNL     1       6.422  33.901  65.119  1.00  0.00     0.201 A 
BRANCH  35  36
HETATM   36  N   UNL     1       7.667  34.385  65.250  1.00  0.00    -0.379 N 
HETATM   37  H   UNL     1       8.365  34.205  64.532  1.00  0.00     0.158 HD
HETATM   38  H   UNL     1       8.034  34.793  66.107  1.00  0.00     0.158 HD
ENDBRANCH  35  36
ENDBRANCH   2  31
TORSDOF 10
ENDMDL
MODEL 3
REMARK VINA RESULT:      -9.1      5.312     11.508
REMARK  10 active torsions:
REMARK  status: ('A' for Active; 'I' for Inactive)
REMARK    1  A    between atoms: C_2  and  N_3 
REMARK    2  A    between atoms: N_3  and  C_5 
REMARK    3  A    between atoms: N_3  and  C_34 
REMARK    4  A    between atoms: C_5  and  C_6 
REMARK    5  A    between atoms: N_7  and  C_8 
REMARK    6  A    between atoms: C_12  and  N_13 
REMARK    7  A    between atoms: C_16  and  C_17 
REMARK       I    between atoms: C_17  and  N_18 
REMARK    8  A    between atoms: N_18  and  N_19 
REMARK    9  A    between atoms: C_20  and  C_21 
REMARK   10  A    between atoms: C_23  and  C_24 
ROOT
HETATM    1  C   UNL     1       7.516  24.046  55.327  1.00  0.00     0.096 A 
HETATM    2  N   UNL     1       8.366  22.947  55.222  1.00  0.00    -0.215 N 
HETATM    3  N   UNL     1       9.245  22.976  56.259  1.00  0.00     0.012 NA
HETATM    4  N   UNL     1       8.934  23.975  57.068  1.00  0.00    -0.152 NA
HETATM    5  C   UNL     1       7.876  24.644  56.527  1.00  0.00     0.170 A 
ENDROOT
BRANCH   5   6
HETATM    6  C   UNL     1       7.240  25.797  57.150  1.00  0.00     0.293 C 
HETATM    7  N   UNL     1       8.110  26.822  57.472  1.00  0.00    -0.242 N 
HETATM    8  H   UNL     1       9.105  26.736  57.273  1.00  0.00     0.192 HD
HETATM    9  O   UNL     1       6.031  25.785  57.376  1.00  0.00    -0.264 OA
BRANCH   7  10
HETATM   10  N   UNL     1       7.616  27.950  58.058  1.00  0.00    -0.181 NA
HETATM   11  C   UNL     1       7.442  28.977  57.288  1.00  0.00     0.175 C 
BRANCH  11  12
HETATM   12  C   UNL     1       6.917  30.198  57.826  1.00  0.00     0.095 A 
HETATM   13  O   UNL     1       7.204  30.509  59.123  1.00  0.00    -0.309 OA
HETATM   14  C   UNL     1       6.595  31.702  59.410  1.00  0.00     0.086 A 
HETATM   15  C   UNL     1       5.926  32.153  58.288  1.00  0.00     0.041 A 
HETATM   16  C   UNL     1       6.129  31.187  57.274  1.00  0.00     0.041 A 
BRANCH  14  17
HETATM   17  C   UNL     1       6.768  32.217  60.767  1.00  0.00    -0.002 A 
HETATM   18  C   UNL     1       7.743  31.691  61.629  1.00  0.00     0.015 A 
HETATM   19  C   UNL     1       7.895  32.184  62.930  1.00  0.00     0.020 A 
HETATM   20  C   UNL     1       7.070  33.209  63.382  1.00  0.00     0.011 A 
HETATM   21 BR   UNL     1       7.271  33.874  65.139  1.00  0.00    -0.051 Br
HETATM   22  C   UNL     1       6.097  33.748  62.545  1.00  0.00     0.020 A 
HETATM   23  C   UNL     1       5.948  33.252  61.245  1.00  0.00     0.015 A 
ENDBRANCH  14  17
ENDBRANCH  11  12
ENDBRANCH   7  10
ENDBRANCH   5   6
BRANCH   1  24
HETATM   24  C   UNL     1       6.538  24.484  54.302  1.00  0.00     0.296 C 
BRANCH  24  25
HETATM   25  N   UNL     1       7.111  25.202  53.091  1.00  0.00    -0.066 N 
HETATM   26  H   UNL     1       7.886  24.616  52.744  1.00  0.00     0.280 HD
BRANCH  25  27
HETATM   27  C   UNL     1       7.704  26.549  53.488  1.00  0.00     0.231 C 
HETATM   28  C   UNL     1       6.618  27.539  53.871  1.00  0.00     0.034 C 
ENDBRANCH  25  27
BRANCH  25  29
HETATM   29  C   UNL     1       6.091  25.361  51.972  1.00  0.00     0.231 C 
HETATM   30  C   UNL     1       4.755  24.750  52.363  1.00  0.00     0.034 C 
ENDBRANCH  25  29
ENDBRANCH  24  25
ENDBRANCH   1  24
BRANCH   2  31
HETATM   31  C   UNL     1       8.347  21.904  54.267  1.00  0.00     0.225 A 
HETATM   32  N   UNL     1       8.012  22.168  53.001  1.00  0.00    -0.081 NA
HETATM   33  O   UNL     1       8.084  20.919  52.374  1.00  0.00    -0.103 OA
HETATM   34  N   UNL     1       8.430  19.925  53.277  1.00  0.00    -0.083 NA
HETATM   35  C   UNL     1       8.590  20.533  54.452  1.00  0.00     0.201 A 
BRANCH  35  36
HETATM   36  N   UNL     1       8.936  19.913  55.589  1.00  0.00    -0.379 N 
HETATM   37  H   UNL     1       9.559  19.109  55.568  1.00  0.00     0.158 HD
HETATM   38  H   UNL     1       8.488  20.080  56.489  1.00  0.00     0.158 HD
ENDBRANCH  35  36
ENDBRANCH   2  31
TORSDOF 10
ENDMDL
MODEL 4
REMARK VINA RESULT:      -8.7      1.644      2.199
REMARK  10 active torsions:
REMARK  status: ('A' for Active; 'I' for Inactive)
REMARK    1  A    between atoms: C_2  and  N_3 
REMARK    2  A    between atoms: N_3  and  C_5 
REMARK    3  A    between atoms: N_3  and  C_34 
REMARK    4  A    between atoms: C_5  and  C_6 
REMARK    5  A    between atoms: N_7  and  C_8 
REMARK    6  A    between atoms: C_12  and  N_13 
REMARK    7  A    between atoms: C_16  and  C_17 
REMARK       I    between atoms: C_17  and  N_18 
REMARK    8  A    between atoms: N_18  and  N_19 
REMARK    9  A    between atoms: C_20  and  C_21 
REMARK   10  A    between atoms: C_23  and  C_24 
ROOT
HETATM    1  C   UNL     1       5.240  32.080  59.095  1.00  0.00     0.096 A 
HETATM    2  N   UNL     1       4.194  32.810  59.655  1.00  0.00    -0.215 N 
HETATM    3  N   UNL     1       3.047  32.506  58.992  1.00  0.00     0.012 NA
HETATM    4  N   UNL     1       3.291  31.551  58.110  1.00  0.00    -0.152 NA
HETATM    5  C   UNL     1       4.623  31.265  58.154  1.00  0.00     0.170 A 
ENDROOT
BRANCH   5   6
HETATM    6  C   UNL     1       5.262  30.244  57.335  1.00  0.00     0.293 C 
HETATM    7  N   UNL     1       4.957  30.322  55.989  1.00  0.00    -0.242 N 
HETATM    8  H   UNL     1       4.332  31.048  55.642  1.00  0.00     0.192 HD
HETATM    9  O   UNL     1       5.976  29.391  57.860  1.00  0.00    -0.264 OA
BRANCH   7  10
HETATM   10  N   UNL     1       5.506  29.414  55.132  1.00  0.00    -0.181 NA
HETATM   11  C   UNL     1       4.785  28.377  54.841  1.00  0.00     0.175 C 
BRANCH  11  12
HETATM   12  C   UNL     1       5.287  27.382  53.939  1.00  0.00     0.095 A 
HETATM   13  O   UNL     1       5.815  26.240  54.466  1.00  0.00    -0.309 OA
HETATM   14  C   UNL     1       6.229  25.453  53.424  1.00  0.00     0.086 A 
HETATM   15  C   UNL     1       5.956  26.097  52.232  1.00  0.00     0.041 A 
HETATM   16  C   UNL     1       5.356  27.335  52.562  1.00  0.00     0.041 A 
BRANCH  14  17
HETATM   17  C   UNL     1       6.842  24.174  53.772  1.00  0.00    -0.002 A 
HETATM   18  C   UNL     1       6.932  23.745  55.106  1.00  0.00     0.015 A 
HETATM   19  C   UNL     1       7.530  22.522  55.431  1.00  0.00     0.020 A 
HETATM   20  C   UNL     1       8.045  21.714  54.422  1.00  0.00     0.011 A 
HETATM   21 BR   UNL     1       8.855  20.064  54.858  1.00  0.00    -0.051 Br
HETATM   22  C   UNL     1       7.966  22.117  53.092  1.00  0.00     0.020 A 
HETATM   23  C   UNL     1       7.369  23.341  52.771  1.00  0.00     0.015 A 
ENDBRANCH  14  17
ENDBRANCH  11  12
ENDBRANCH   7  10
ENDBRANCH   5   6
BRANCH   1  24
HETATM   24  C   UNL     1       6.680  32.254  59.404  1.00  0.00     0.296 C 
BRANCH  24  25
HETATM   25  N   UNL     1       7.303  31.206  60.312  1.00  0.00    -0.066 N 
HETATM   26  H   UNL     1       6.603  30.455  60.413  1.00  0.00     0.280 HD
BRANCH  25  27
HETATM   27  C   UNL     1       7.561  31.775  61.702  1.00  0.00     0.231 C 
HETATM   28  C   UNL     1       8.355  30.804  62.559  1.00  0.00     0.034 C 
ENDBRANCH  25  27
BRANCH  25  29
HETATM   29  C   UNL     1       8.571  30.606  59.722  1.00  0.00     0.231 C 
HETATM   30  C   UNL     1       9.434  31.678  59.078  1.00  0.00     0.034 C 
ENDBRANCH  25  29
ENDBRANCH  24  25
ENDBRANCH   1  24
BRANCH   2  31
HETATM   31  C   UNL     1       4.225  33.690  60.762  1.00  0.00     0.225 A 
HETATM   32  N   UNL     1       4.392  35.001  60.565  1.00  0.00    -0.081 NA
HETATM   33  O   UNL     1       4.391  35.531  61.859  1.00  0.00    -0.103 OA
HETATM   34  N   UNL     1       4.254  34.531  62.810  1.00  0.00    -0.083 NA
HETATM   35  C   UNL     1       4.154  33.389  62.132  1.00  0.00     0.201 A 
BRANCH  35  36
HETATM   36  N   UNL     1       4.002  32.181  62.694  1.00  0.00    -0.379 N 
HETATM   37  H   UNL     1       3.071  31.802  62.855  1.00  0.00     0.158 HD
HETATM   38  H   UNL     1       4.756  31.658  63.136  1.00  0.00     0.158 HD
ENDBRANCH  35  36
ENDBRANCH   2  31
TORSDOF 10
ENDMDL
MODEL 5
REMARK VINA RESULT:      -8.5      4.656     10.436
REMARK  10 active torsions:
REMARK  status: ('A' for Active; 'I' for Inactive)
REMARK    1  A    between atoms: C_2  and  N_3 
REMARK    2  A    between atoms: N_3  and  C_5 
REMARK    3  A    between atoms: N_3  and  C_34 
REMARK    4  A    between atoms: C_5  and  C_6 
REMARK    5  A    between atoms: N_7  and  C_8 
REMARK    6  A    between atoms: C_12  and  N_13 
REMARK    7  A    between atoms: C_16  and  C_17 
REMARK       I    between atoms: C_17  and  N_18 
REMARK    8  A    between atoms: N_18  and  N_19 
REMARK    9  A    between atoms: C_20  and  C_21 
REMARK   10  A    between atoms: C_23  and  C_24 
ROOT
HETATM    1  C   UNL     1       4.506  29.323  54.564  1.00  0.00     0.096 A 
HETATM    2  N   UNL     1       4.138  29.709  53.277  1.00  0.00    -0.215 N 
HETATM    3  N   UNL     1       3.613  30.962  53.332  1.00  0.00     0.012 NA
HETATM    4  N   UNL     1       3.721  31.428  54.565  1.00  0.00    -0.152 NA
HETATM    5  C   UNL     1       4.270  30.450  55.340  1.00  0.00     0.170 A 
ENDROOT
BRANCH   5   6
HETATM    6  C   UNL     1       4.562  30.605  56.759  1.00  0.00     0.293 C 
HETATM    7  N   UNL     1       5.852  31.020  57.032  1.00  0.00    -0.242 N 
HETATM    8  H   UNL     1       6.511  31.191  56.274  1.00  0.00     0.192 HD
HETATM    9  O   UNL     1       3.702  30.341  57.597  1.00  0.00    -0.264 OA
BRANCH   7  10
HETATM   10  N   UNL     1       6.229  31.200  58.330  1.00  0.00    -0.181 NA
HETATM   11  C   UNL     1       7.457  30.908  58.626  1.00  0.00     0.175 C 
BRANCH  11  12
HETATM   12  C   UNL     1       7.933  31.080  59.968  1.00  0.00     0.095 A 
HETATM   13  O   UNL     1       7.131  31.728  60.860  1.00  0.00    -0.309 OA
HETATM   14  C   UNL     1       7.794  31.776  62.058  1.00  0.00     0.086 A 
HETATM   15  C   UNL     1       9.018  31.148  61.925  1.00  0.00     0.041 A 
HETATM   16  C   UNL     1       9.109  30.706  60.585  1.00  0.00     0.041 A 
BRANCH  14  17
HETATM   17  C   UNL     1       7.109  32.446  63.161  1.00  0.00    -0.002 A 
HETATM   18  C   UNL     1       7.824  33.096  64.179  1.00  0.00     0.015 A 
HETATM   19  C   UNL     1       7.160  33.727  65.237  1.00  0.00     0.020 A 
HETATM   20  C   UNL     1       5.769  33.713  65.286  1.00  0.00     0.011 A 
HETATM   21 BR   UNL     1       4.870  34.561  66.715  1.00  0.00    -0.051 Br
HETATM   22  C   UNL     1       5.038  33.077  64.288  1.00  0.00     0.020 A 
HETATM   23  C   UNL     1       5.706  32.446  63.232  1.00  0.00     0.015 A 
ENDBRANCH  14  17
ENDBRANCH  11  12
ENDBRANCH   7  10
ENDBRANCH   5   6
BRANCH   1  24
HETATM   24  C   UNL     1       4.947  27.965  54.967  1.00  0.00     0.296 C 
BRANCH  24  25
HETATM   25  N   UNL     1       6.395  27.612  54.664  1.00  0.00    -0.066 N 
HETATM   26  H   UNL     1       6.684  28.215  53.879  1.00  0.00     0.280 HD
BRANCH  25  27
HETATM   27  C   UNL     1       6.516  26.168  54.195  1.00  0.00     0.231 C 
HETATM   28  C   UNL     1       7.620  26.012  53.164  1.00  0.00     0.034 C 
ENDBRANCH  25  27
BRANCH  25  29
HETATM   29  C   UNL     1       7.318  27.885  55.844  1.00  0.00     0.231 C 
HETATM   30  C   UNL     1       8.378  28.912  55.481  1.00  0.00     0.034 C 
ENDBRANCH  25  29
ENDBRANCH  24  25
ENDBRANCH   1  24
BRANCH   2  31
HETATM   31  C   UNL     1       4.302  29.004  52.062  1.00  0.00     0.225 A 
HETATM   32  N   UNL     1       5.527  28.655  51.657  1.00  0.00    -0.081 NA
HETATM   33  O   UNL     1       5.298  28.009  50.437  1.00  0.00    -0.103 OA
HETATM   34  N   UNL     1       3.948  28.007  50.117  1.00  0.00    -0.083 NA
HETATM   35  C   UNL     1       3.330  28.625  51.122  1.00  0.00     0.201 A 
BRANCH  35  36
HETATM   36  N   UNL     1       2.006  28.825  51.194  1.00  0.00    -0.379 N 
HETATM   37  H   UNL     1       1.617  29.754  51.054  1.00  0.00     0.158 HD
HETATM   38  H   UNL     1       1.343  28.136  51.547  1.00  0.00     0.158 HD
ENDBRANCH  35  36
ENDBRANCH   2  31
TORSDOF 10
ENDMDL
MODEL 6
REMARK VINA RESULT:      -8.4      5.178     10.669
REMARK  10 active torsions:
REMARK  status: ('A' for Active; 'I' for Inactive)
REMARK    1  A    between atoms: C_2  and  N_3 
REMARK    2  A    between atoms: N_3  and  C_5 
REMARK    3  A    between atoms: N_3  and  C_34 
REMARK    4  A    between atoms: C_5  and  C_6 
REMARK    5  A    between atoms: N_7  and  C_8 
REMARK    6  A    between atoms: C_12  and  N_13 
REMARK    7  A    between atoms: C_16  and  C_17 
REMARK       I    between atoms: C_17  and  N_18 
REMARK    8  A    between atoms: N_18  and  N_19 
REMARK    9  A    between atoms: C_20  and  C_21 
REMARK   10  A    between atoms: C_23  and  C_24 
ROOT
HETATM    1  C   UNL     1       6.578  27.735  55.026  1.00  0.00     0.096 A 
HETATM    2  N   UNL     1       6.321  26.858  53.975  1.00  0.00    -0.215 N 
HETATM    3  N   UNL     1       6.918  25.667  54.246  1.00  0.00     0.012 NA
HETATM    4  N   UNL     1       7.453  25.711  55.455  1.00  0.00    -0.152 NA
HETATM    5  C   UNL     1       7.255  26.962  55.960  1.00  0.00     0.170 A 
ENDROOT
BRANCH   5   6
HETATM    6  C   UNL     1       7.691  27.381  57.285  1.00  0.00     0.293 C 
HETATM    7  N   UNL     1       8.023  28.719  57.378  1.00  0.00    -0.242 N 
HETATM    8  H   UNL     1       7.955  29.326  56.562  1.00  0.00     0.192 HD
HETATM    9  O   UNL     1       7.768  26.559  58.196  1.00  0.00    -0.264 OA
BRANCH   7  10
HETATM   10  N   UNL     1       8.441  29.217  58.577  1.00  0.00    -0.181 NA
HETATM   11  C   UNL     1       7.978  30.377  58.920  1.00  0.00     0.175 C 
BRANCH  11  12
HETATM   12  C   UNL     1       8.362  30.963  60.171  1.00  0.00     0.095 A 
HETATM   13  O   UNL     1       7.379  31.432  60.993  1.00  0.00    -0.309 OA
HETATM   14  C   UNL     1       7.981  31.946  62.111  1.00  0.00     0.086 A 
HETATM   15  C   UNL     1       9.351  31.796  61.999  1.00  0.00     0.041 A 
HETATM   16  C   UNL     1       9.594  31.170  60.754  1.00  0.00     0.041 A 
BRANCH  14  17
HETATM   17  C   UNL     1       7.100  32.516  63.127  1.00  0.00    -0.002 A 
HETATM   18  C   UNL     1       5.706  32.537  62.957  1.00  0.00     0.015 A 
HETATM   19  C   UNL     1       4.870  33.095  63.932  1.00  0.00     0.020 A 
HETATM   20  C   UNL     1       5.422  33.638  65.087  1.00  0.00     0.011 A 
HETATM   21 BR   UNL     1       4.295  34.394  66.402  1.00  0.00    -0.051 Br
HETATM   22  C   UNL     1       6.800  33.629  65.279  1.00  0.00     0.020 A 
HETATM   23  C   UNL     1       7.633  33.071  64.302  1.00  0.00     0.015 A 
ENDBRANCH  14  17
ENDBRANCH  11  12
ENDBRANCH   7  10
ENDBRANCH   5   6
BRANCH   1  24
HETATM   24  C   UNL     1       6.264  29.185  55.040  1.00  0.00     0.296 C 
BRANCH  24  25
HETATM   25  N   UNL     1       4.825  29.556  55.360  1.00  0.00    -0.066 N 
HETATM   26  H   UNL     1       4.233  29.007  54.719  1.00  0.00     0.280 HD
BRANCH  25  27
HETATM   27  C   UNL     1       4.565  31.029  55.068  1.00  0.00     0.231 C 
HETATM   28  C   UNL     1       3.412  31.205  54.095  1.00  0.00     0.034 C 
ENDBRANCH  25  27
BRANCH  25  29
HETATM   29  C   UNL     1       4.438  29.205  56.790  1.00  0.00     0.231 C 
HETATM   30  C   UNL     1       4.464  30.437  57.680  1.00  0.00     0.034 C 
ENDBRANCH  25  29
ENDBRANCH  24  25
ENDBRANCH   1  24
BRANCH   2  31
HETATM   31  C   UNL     1       5.535  27.072  52.819  1.00  0.00     0.225 A 
HETATM   32  N   UNL     1       4.459  27.862  52.883  1.00  0.00    -0.081 NA
HETATM   33  O   UNL     1       3.939  27.816  51.585  1.00  0.00    -0.103 OA
HETATM   34  N   UNL     1       4.691  26.979  50.774  1.00  0.00    -0.083 NA
HETATM   35  C   UNL     1       5.679  26.515  51.537  1.00  0.00     0.201 A 
BRANCH  35  36
HETATM   36  N   UNL     1       6.634  25.672  51.118  1.00  0.00    -0.379 N 
HETATM   37  H   UNL     1       7.202  25.164  51.791  1.00  0.00     0.158 HD
HETATM   38  H   UNL     1       6.961  25.613  50.155  1.00  0.00     0.158 HD
ENDBRANCH  35  36
ENDBRANCH   2  31
TORSDOF 10
ENDMDL
MODEL 7
REMARK VINA RESULT:      -8.3      1.943      3.127
REMARK  10 active torsions:
REMARK  status: ('A' for Active; 'I' for Inactive)
REMARK    1  A    between atoms: C_2  and  N_3 
REMARK    2  A    between atoms: N_3  and  C_5 
REMARK    3  A    between atoms: N_3  and  C_34 
REMARK    4  A    between atoms: C_5  and  C_6 
REMARK    5  A    between atoms: N_7  and  C_8 
REMARK    6  A    between atoms: C_12  and  N_13 
REMARK    7  A    between atoms: C_16  and  C_17 
REMARK       I    between atoms: C_17  and  N_18 
REMARK    8  A    between atoms: N_18  and  N_19 
REMARK    9  A    between atoms: C_20  and  C_21 
REMARK   10  A    between atoms: C_23  and  C_24 
ROOT
HETATM    1  C   UNL     1       5.369  33.344  60.726  1.00  0.00     0.096 A 
HETATM    2  N   UNL     1       6.038  33.634  61.912  1.00  0.00    -0.215 N 
HETATM    3  N   UNL     1       7.202  32.932  61.939  1.00  0.00     0.012 NA
HETATM    4  N   UNL     1       7.353  32.292  60.791  1.00  0.00    -0.152 NA
HETATM    5  C   UNL     1       6.250  32.529  60.026  1.00  0.00     0.170 A 
ENDROOT
BRANCH   5   6
HETATM    6  C   UNL     1       6.067  32.003  58.680  1.00  0.00     0.293 C 
HETATM    7  N   UNL     1       6.230  30.635  58.577  1.00  0.00    -0.242 N 
HETATM    8  H   UNL     1       6.459  30.079  59.399  1.00  0.00     0.192 HD
HETATM    9  O   UNL     1       5.822  32.768  57.748  1.00  0.00    -0.264 OA
BRANCH   7  10
HETATM   10  N   UNL     1       6.077  30.039  57.360  1.00  0.00    -0.181 NA
HETATM   11  C   UNL     1       6.688  28.910  57.183  1.00  0.00     0.175 C 
BRANCH  11  12
HETATM   12  C   UNL     1       6.568  28.216  55.934  1.00  0.00     0.095 A 
HETATM   13  O   UNL     1       6.966  26.912  55.879  1.00  0.00    -0.309 OA
HETATM   14  C   UNL     1       6.766  26.469  54.598  1.00  0.00     0.086 A 
HETATM   15  C   UNL     1       6.232  27.495  53.840  1.00  0.00     0.041 A 
HETATM   16  C   UNL     1       6.110  28.615  54.695  1.00  0.00     0.041 A 
BRANCH  14  17
HETATM   17  C   UNL     1       7.141  25.086  54.317  1.00  0.00    -0.002 A 
HETATM   18  C   UNL     1       7.519  24.679  53.027  1.00  0.00     0.015 A 
HETATM   19  C   UNL     1       7.867  23.349  52.764  1.00  0.00     0.020 A 
HETATM   20  C   UNL     1       7.839  22.411  53.792  1.00  0.00     0.011 A 
HETATM   21 BR   UNL     1       8.305  20.614  53.439  1.00  0.00    -0.051 Br
HETATM   22  C   UNL     1       7.469  22.790  55.078  1.00  0.00     0.020 A 
HETATM   23  C   UNL     1       7.121  24.121  55.337  1.00  0.00     0.015 A 
ENDBRANCH  14  17
ENDBRANCH  11  12
ENDBRANCH   7  10
ENDBRANCH   5   6
BRANCH   1  24
HETATM   24  C   UNL     1       3.985  33.757  60.389  1.00  0.00     0.296 C 
BRANCH  24  25
HETATM   25  N   UNL     1       3.849  34.921  59.421  1.00  0.00    -0.066 N 
HETATM   26  H   UNL     1       4.792  35.099  59.045  1.00  0.00     0.280 HD
BRANCH  25  27
HETATM   27  C   UNL     1       3.404  36.184  60.148  1.00  0.00     0.231 C 
HETATM   28  C   UNL     1       4.374  37.329  59.911  1.00  0.00     0.034 C 
ENDBRANCH  25  27
BRANCH  25  29
HETATM   29  C   UNL     1       2.920  34.603  58.257  1.00  0.00     0.231 C 
HETATM   30  C   UNL     1       3.405  35.263  56.976  1.00  0.00     0.034 C 
ENDBRANCH  25  29
ENDBRANCH  24  25
ENDBRANCH   1  24
BRANCH   2  31
HETATM   31  C   UNL     1       5.669  34.538  62.936  1.00  0.00     0.225 A 
HETATM   32  N   UNL     1       5.964  35.836  62.816  1.00  0.00    -0.081 NA
HETATM   33  O   UNL     1       5.474  36.396  64.000  1.00  0.00    -0.103 OA
HETATM   34  N   UNL     1       4.921  35.424  64.822  1.00  0.00    -0.083 NA
HETATM   35  C   UNL     1       5.044  34.272  64.165  1.00  0.00     0.201 A 
BRANCH  35  36
HETATM   36  N   UNL     1       4.622  33.085  64.625  1.00  0.00    -0.379 N 
HETATM   37  H   UNL     1       3.769  32.667  64.262  1.00  0.00     0.158 HD
HETATM   38  H   UNL     1       5.005  32.622  65.447  1.00  0.00     0.158 HD
ENDBRANCH  35  36
ENDBRANCH   2  31
TORSDOF 10
ENDMDL
MODEL 8
REMARK VINA RESULT:      -8.2      6.070     11.520
REMARK  10 active torsions:
REMARK  status: ('A' for Active; 'I' for Inactive)
REMARK    1  A    between atoms: C_2  and  N_3 
REMARK    2  A    between atoms: N_3  and  C_5 
REMARK    3  A    between atoms: N_3  and  C_34 
REMARK    4  A    between atoms: C_5  and  C_6 
REMARK    5  A    between atoms: N_7  and  C_8 
REMARK    6  A    between atoms: C_12  and  N_13 
REMARK    7  A    between atoms: C_16  and  C_17 
REMARK       I    between atoms: C_17  and  N_18 
REMARK    8  A    between atoms: N_18  and  N_19 
REMARK    9  A    between atoms: C_20  and  C_21 
REMARK   10  A    between atoms: C_23  and  C_24 
ROOT
HETATM    1  C   UNL     1       5.315  27.819  50.997  1.00  0.00     0.096 A 
HETATM    2  N   UNL     1       4.921  26.738  50.211  1.00  0.00    -0.215 N 
HETATM    3  N   UNL     1       5.053  25.599  50.941  1.00  0.00     0.012 NA
HETATM    4  N   UNL     1       5.412  25.908  52.176  1.00  0.00    -0.152 NA
HETATM    5  C   UNL     1       5.574  27.261  52.242  1.00  0.00     0.170 A 
ENDROOT
BRANCH   5   6
HETATM    6  C   UNL     1       5.949  27.976  53.455  1.00  0.00     0.293 C 
HETATM    7  N   UNL     1       7.213  27.674  53.925  1.00  0.00    -0.242 N 
HETATM    8  H   UNL     1       7.800  27.002  53.434  1.00  0.00     0.192 HD
HETATM    9  O   UNL     1       5.151  28.744  53.988  1.00  0.00    -0.264 OA
BRANCH   7  10
HETATM   10  N   UNL     1       7.664  28.290  55.055  1.00  0.00    -0.181 NA
HETATM   11  C   UNL     1       8.860  28.787  55.009  1.00  0.00     0.175 C 
BRANCH  11  12
HETATM   12  C   UNL     1       9.403  29.461  56.153  1.00  0.00     0.095 A 
HETATM   13  O   UNL     1       8.536  30.036  57.035  1.00  0.00    -0.309 OA
HETATM   14  C   UNL     1       9.278  30.618  58.029  1.00  0.00     0.086 A 
HETATM   15  C   UNL     1      10.621  30.403  57.779  1.00  0.00     0.041 A 
HETATM   16  C   UNL     1      10.700  29.665  56.574  1.00  0.00     0.041 A 
BRANCH  14  17
HETATM   17  C   UNL     1       8.537  31.307  59.083  1.00  0.00    -0.002 A 
HETATM   18  C   UNL     1       9.164  31.710  60.273  1.00  0.00     0.015 A 
HETATM   19  C   UNL     1       8.444  32.361  61.282  1.00  0.00     0.020 A 
HETATM   20  C   UNL     1       7.088  32.616  61.108  1.00  0.00     0.011 A 
HETATM   21 BR   UNL     1       6.113  33.492  62.469  1.00  0.00    -0.051 Br
HETATM   22  C   UNL     1       6.445  32.228  59.936  1.00  0.00     0.020 A 
HETATM   23  C   UNL     1       7.168  31.577  58.931  1.00  0.00     0.015 A 
ENDBRANCH  14  17
ENDBRANCH  11  12
ENDBRANCH   7  10
ENDBRANCH   5   6
BRANCH   1  24
HETATM   24  C   UNL     1       5.496  29.213  50.523  1.00  0.00     0.296 C 
BRANCH  24  25
HETATM   25  N   UNL     1       4.232  29.953  50.118  1.00  0.00    -0.066 N 
HETATM   26  H   UNL     1       3.922  29.536  49.227  1.00  0.00     0.280 HD
BRANCH  25  27
HETATM   27  C   UNL     1       4.525  31.425  49.852  1.00  0.00     0.231 C 
HETATM   28  C   UNL     1       6.007  31.660  49.621  1.00  0.00     0.034 C 
ENDBRANCH  25  27
BRANCH  25  29
HETATM   29  C   UNL     1       3.113  29.793  51.138  1.00  0.00     0.231 C 
HETATM   30  C   UNL     1       1.892  29.139  50.510  1.00  0.00     0.034 C 
ENDBRANCH  25  29
ENDBRANCH  24  25
ENDBRANCH   1  24
BRANCH   2  31
HETATM   31  C   UNL     1       4.405  26.745  48.895  1.00  0.00     0.225 A 
HETATM   32  N   UNL     1       4.700  27.755  48.071  1.00  0.00    -0.081 NA
HETATM   33  O   UNL     1       4.011  27.433  46.896  1.00  0.00    -0.103 OA
HETATM   34  N   UNL     1       3.294  26.255  47.043  1.00  0.00    -0.083 NA
HETATM   35  C   UNL     1       3.534  25.829  48.282  1.00  0.00     0.201 A 
BRANCH  35  36
HETATM   36  N   UNL     1       3.024  24.709  48.815  1.00  0.00    -0.379 N 
HETATM   37  H   UNL     1       2.572  24.017  48.221  1.00  0.00     0.158 HD
HETATM   38  H   UNL     1       2.902  24.556  49.814  1.00  0.00     0.158 HD
ENDBRANCH  35  36
ENDBRANCH   2  31
TORSDOF 10
ENDMDL
MODEL 9
REMARK VINA RESULT:      -8.0      4.709     10.967
REMARK  10 active torsions:
REMARK  status: ('A' for Active; 'I' for Inactive)
REMARK    1  A    between atoms: C_2  and  N_3 
REMARK    2  A    between atoms: N_3  and  C_5 
REMARK    3  A    between atoms: N_3  and  C_34 
REMARK    4  A    between atoms: C_5  and  C_6 
REMARK    5  A    between atoms: N_7  and  C_8 
REMARK    6  A    between atoms: C_12  and  N_13 
REMARK    7  A    between atoms: C_16  and  C_17 
REMARK       I    between atoms: C_17  and  N_18 
REMARK    8  A    between atoms: N_18  and  N_19 
REMARK    9  A    between atoms: C_20  and  C_21 
REMARK   10  A    between atoms: C_23  and  C_24 
ROOT
HETATM    1  C   UNL     1       7.594  29.534  57.504  1.00  0.00     0.096 A 
HETATM    2  N   UNL     1       8.324  28.571  56.812  1.00  0.00    -0.215 N 
HETATM    3  N   UNL     1       9.649  28.815  56.995  1.00  0.00     0.012 NA
HETATM    4  N   UNL     1       9.796  29.818  57.845  1.00  0.00    -0.152 NA
HETATM    5  C   UNL     1       8.556  30.274  58.179  1.00  0.00     0.170 A 
ENDROOT
BRANCH   5   6
HETATM    6  C   UNL     1       8.316  31.364  59.116  1.00  0.00     0.293 C 
HETATM    7  N   UNL     1       7.324  31.108  60.044  1.00  0.00    -0.242 N 
HETATM    8  H   UNL     1       6.827  30.219  60.037  1.00  0.00     0.192 HD
HETATM    9  O   UNL     1       8.952  32.412  59.016  1.00  0.00    -0.264 OA
BRANCH   7  10
HETATM   10  N   UNL     1       7.021  32.063  60.970  1.00  0.00    -0.181 NA
HETATM   11  C   UNL     1       5.989  32.807  60.724  1.00  0.00     0.175 C 
BRANCH  11  12
HETATM   12  C   UNL     1       5.600  33.826  61.654  1.00  0.00     0.095 A 
HETATM   13  O   UNL     1       5.831  33.613  62.981  1.00  0.00    -0.309 OA
HETATM   14  C   UNL     1       5.374  34.707  63.665  1.00  0.00     0.086 A 
HETATM   15  C   UNL     1       4.858  35.622  62.767  1.00  0.00     0.041 A 
HETATM   16  C   UNL     1       4.998  35.055  61.478  1.00  0.00     0.041 A 
BRANCH  14  17
HETATM   17  C   UNL     1       5.517  34.679  65.119  1.00  0.00    -0.002 A 
HETATM   18  C   UNL     1       4.532  35.220  65.961  1.00  0.00     0.015 A 
HETATM   19  C   UNL     1       4.681  35.198  67.352  1.00  0.00     0.020 A 
HETATM   20  C   UNL     1       5.821  34.632  67.916  1.00  0.00     0.011 A 
HETATM   21 BR   UNL     1       6.026  34.604  69.794  1.00  0.00    -0.051 Br
HETATM   22  C   UNL     1       6.810  34.088  67.103  1.00  0.00     0.020 A 
HETATM   23  C   UNL     1       6.657  34.114  65.712  1.00  0.00     0.015 A 
ENDBRANCH  14  17
ENDBRANCH  11  12
ENDBRANCH   7  10
ENDBRANCH   5   6
BRANCH   1  24
HETATM   24  C   UNL     1       6.127  29.736  57.417  1.00  0.00     0.296 C 
BRANCH  24  25
HETATM   25  N   UNL     1       5.658  30.872  56.521  1.00  0.00    -0.066 N 
HETATM   26  H   UNL     1       6.510  31.333  56.166  1.00  0.00     0.280 HD
BRANCH  25  27
HETATM   27  C   UNL     1       4.880  31.910  57.321  1.00  0.00     0.231 C 
HETATM   28  C   UNL     1       4.897  33.264  56.634  1.00  0.00     0.034 C 
ENDBRANCH  25  27
BRANCH  25  29
HETATM   29  C   UNL     1       4.848  30.377  55.331  1.00  0.00     0.231 C 
HETATM   30  C   UNL     1       4.138  29.074  55.659  1.00  0.00     0.034 C 
ENDBRANCH  25  29
ENDBRANCH  24  25
ENDBRANCH   1  24
BRANCH   2  31
HETATM   31  C   UNL     1       7.848  27.464  56.072  1.00  0.00     0.225 A 
HETATM   32  N   UNL     1       7.773  26.261  56.650  1.00  0.00    -0.081 NA
HETATM   33  O   UNL     1       7.290  25.435  55.630  1.00  0.00    -0.103 OA
HETATM   34  N   UNL     1       7.111  26.146  54.452  1.00  0.00    -0.083 NA
HETATM   35  C   UNL     1       7.460  27.403  54.724  1.00  0.00     0.201 A 
BRANCH  35  36
HETATM   36  N   UNL     1       7.423  28.411  53.840  1.00  0.00    -0.379 N 
HETATM   37  H   UNL     1       8.285  28.790  53.457  1.00  0.00     0.158 HD
HETATM   38  H   UNL     1       6.589  28.958  53.633  1.00  0.00     0.158 HD
ENDBRANCH  35  36
ENDBRANCH   2  31
TORSDOF 10
ENDMDL
MODEL 10
REMARK VINA RESULT:      -8.0      2.597      4.314
REMARK  10 active torsions:
REMARK  status: ('A' for Active; 'I' for Inactive)
REMARK    1  A    between atoms: C_2  and  N_3 
REMARK    2  A    between atoms: N_3  and  C_5 
REMARK    3  A    between atoms: N_3  and  C_34 
REMARK    4  A    between atoms: C_5  and  C_6 
REMARK    5  A    between atoms: N_7  and  C_8 
REMARK    6  A    between atoms: C_12  and  N_13 
REMARK    7  A    between atoms: C_16  and  C_17 
REMARK       I    between atoms: C_17  and  N_18 
REMARK    8  A    between atoms: N_18  and  N_19 
REMARK    9  A    between atoms: C_20  and  C_21 
REMARK   10  A    between atoms: C_23  and  C_24 
ROOT
HETATM    1  C   UNL     1       5.228  34.037  62.902  1.00  0.00     0.096 A 
HETATM    2  N   UNL     1       4.944  33.835  64.250  1.00  0.00    -0.215 N 
HETATM    3  N   UNL     1       4.807  32.501  64.471  1.00  0.00     0.012 NA
HETATM    4  N   UNL     1       5.088  31.842  63.359  1.00  0.00    -0.152 NA
HETATM    5  C   UNL     1       5.356  32.755  62.383  1.00  0.00     0.170 A 
ENDROOT
BRANCH   5   6
HETATM    6  C   UNL     1       5.729  32.402  61.019  1.00  0.00     0.293 C 
HETATM    7  N   UNL     1       6.958  31.779  60.910  1.00  0.00    -0.242 N 
HETATM    8  H   UNL     1       7.523  31.602  61.739  1.00  0.00     0.192 HD
HETATM    9  O   UNL     1       4.986  32.690  60.084  1.00  0.00    -0.264 OA
BRANCH   7  10
HETATM   10  N   UNL     1       7.402  31.403  59.676  1.00  0.00    -0.181 NA
HETATM   11  C   UNL     1       8.197  30.381  59.630  1.00  0.00     0.175 C 
BRANCH  11  12
HETATM   12  C   UNL     1       8.699  29.917  58.369  1.00  0.00     0.095 A 
HETATM   13  O   UNL     1       7.941  29.034  57.658  1.00  0.00    -0.309 OA
HETATM   14  C   UNL     1       8.621  28.733  56.507  1.00  0.00     0.086 A 
HETATM   15  C   UNL     1       9.812  29.435  56.487  1.00  0.00     0.041 A 
HETATM   16  C   UNL     1       9.863  30.190  57.682  1.00  0.00     0.041 A 
BRANCH  14  17
HETATM   17  C   UNL     1       7.983  27.785  55.597  1.00  0.00    -0.002 A 
HETATM   18  C   UNL     1       7.783  28.095  54.242  1.00  0.00     0.015 A 
HETATM   19  C   UNL     1       7.162  27.184  53.379  1.00  0.00     0.020 A 
HETATM   20  C   UNL     1       6.734  25.953  53.865  1.00  0.00     0.011 A 
HETATM   21 BR   UNL     1       5.893  24.723  52.703  1.00  0.00    -0.051 Br
HETATM   22  C   UNL     1       6.923  25.622  55.204  1.00  0.00     0.020 A 
HETATM   23  C   UNL     1       7.543  26.536  56.063  1.00  0.00     0.015 A 
ENDBRANCH  14  17
ENDBRANCH  11  12
ENDBRANCH   7  10
ENDBRANCH   5   6
BRANCH   1  24
HETATM   24  C   UNL     1       5.270  35.351  62.213  1.00  0.00     0.296 C 
BRANCH  24  25
HETATM   25  N   UNL     1       4.250  35.559  61.104  1.00  0.00    -0.066 N 
HETATM   26  H   UNL     1       4.508  34.910  60.346  1.00  0.00     0.280 HD
BRANCH  25  27
HETATM   27  C   UNL     1       4.340  36.973  60.542  1.00  0.00     0.231 C 
HETATM   28  C   UNL     1       5.212  37.860  61.413  1.00  0.00     0.034 C 
ENDBRANCH  25  27
BRANCH  25  29
HETATM   29  C   UNL     1       2.832  35.236  61.552  1.00  0.00     0.231 C 
HETATM   30  C   UNL     1       1.826  35.577  60.465  1.00  0.00     0.034 C 
ENDBRANCH  25  29
ENDBRANCH  24  25
ENDBRANCH   1  24
BRANCH   2  31
HETATM   31  C   UNL     1       4.855  34.793  65.287  1.00  0.00     0.225 A 
HETATM   32  N   UNL     1       4.109  35.889  65.117  1.00  0.00    -0.081 NA
HETATM   33  O   UNL     1       4.279  36.591  66.315  1.00  0.00    -0.103 OA
HETATM   34  N   UNL     1       5.143  35.922  67.170  1.00  0.00    -0.083 NA
HETATM   35  C   UNL     1       5.502  34.809  66.533  1.00  0.00     0.201 A 
BRANCH  35  36
HETATM   36  N   UNL     1       6.334  33.882  67.031  1.00  0.00    -0.379 N 
HETATM   37  H   UNL     1       7.169  33.612  66.517  1.00  0.00     0.158 HD
HETATM   38  H   UNL     1       6.114  33.287  67.828  1.00  0.00     0.158 HD
ENDBRANCH  35  36
ENDBRANCH   2  31
TORSDOF 10
ENDMDL
