MODEL 1
REMARK VINA RESULT:      -9.7      0.000      0.000
REMARK  5 active torsions:
REMARK  status: ('A' for Active; 'I' for Inactive)
REMARK    1  A    between atoms: C_4  and  N_5 
REMARK    2  A    between atoms: C_8  and  C_9 
REMARK    3  A    between atoms: C_9  and  N_10 
REMARK       I    between atoms: N_10  and  C_11 
REMARK       I    between atoms: C_11  and  N_12 
REMARK    4  A    between atoms: N_12  and  C_13 
REMARK    5  A    between atoms: C_13  and  C_14 
ROOT
HETATM    1  N   UNL     1       6.703  26.545  55.611  1.00  0.00    -0.319 N 
HETATM    2  C   UNL     1       7.295  27.811  55.624  1.00  0.00     0.021 A 
HETATM    3  C   UNL     1       8.306  28.265  54.616  1.00  0.00     0.069 C 
HETATM    4  C   UNL     1       6.738  28.554  56.663  1.00  0.00    -0.016 A 
HETATM    5  C   UNL     1       5.767  27.728  57.276  1.00  0.00     0.035 A 
HETATM    6  C   UNL     1       5.769  26.501  56.643  1.00  0.00     0.014 A 
HETATM    7  C   UNL     1       5.005  25.287  57.053  1.00  0.00     0.068 C 
ENDROOT
BRANCH   4   8
HETATM    8  C   UNL     1       7.081  29.950  57.085  1.00  0.00     0.165 C 
BRANCH   8   9
HETATM    9  N   UNL     1       6.978  30.042  58.523  1.00  0.00    -0.339 N 
HETATM   10  C   UNL     1       7.997  30.589  59.251  1.00  0.00     0.316 C 
HETATM   11  N   UNL     1       7.604  30.865  60.532  1.00  0.00    -0.339 N 
HETATM   12  O   UNL     1       9.103  30.854  58.803  1.00  0.00    -0.247 OA
HETATM   13  H   UNL     1       6.903  30.261  60.932  1.00  0.00     0.164 HD
HETATM   14  H   UNL     1       6.048  30.114  58.906  1.00  0.00     0.164 HD
BRANCH  11  15
HETATM   15  C   UNL     1       8.512  31.517  61.450  1.00  0.00     0.162 C 
BRANCH  15  16
HETATM   16  C   UNL     1       7.802  32.530  62.313  1.00  0.00    -0.040 A 
HETATM   17  C   UNL     1       6.839  33.382  61.756  1.00  0.00     0.009 A 
HETATM   18  C   UNL     1       6.143  34.289  62.559  1.00  0.00     0.001 A 
HETATM   19  C   UNL     1       6.397  34.348  63.928  1.00  0.00     0.000 A 
HETATM   20  C   UNL     1       7.342  33.497  64.498  1.00  0.00     0.001 A 
HETATM   21  C   UNL     1       8.034  32.587  63.697  1.00  0.00     0.009 A 
ENDBRANCH  15  16
ENDBRANCH  11  15
ENDBRANCH   8   9
ENDBRANCH   4   8
BRANCH   1  22
HETATM   22  C   UNL     1       6.998  25.483  54.701  1.00  0.00     0.040 A 
HETATM   23  C   UNL     1       7.853  24.442  55.086  1.00  0.00     0.036 A 
HETATM   24  C   UNL     1       8.179  23.416  54.187  1.00  0.00    -0.060 A 
HETATM   25  C   UNL     1       9.081  22.294  54.609  1.00  0.00     0.048 C 
HETATM   26  C   UNL     1       7.606  23.421  52.910  1.00  0.00     0.007 A 
HETATM   27  C   UNL     1       6.744  24.449  52.527  1.00  0.00     0.003 A 
HETATM   28  C   UNL     1       6.444  25.481  53.417  1.00  0.00     0.030 A 
ENDBRANCH   1  22
TORSDOF 5
ENDMDL
MODEL 2
REMARK VINA RESULT:      -9.6      1.962      3.020
REMARK  5 active torsions:
REMARK  status: ('A' for Active; 'I' for Inactive)
REMARK    1  A    between atoms: C_4  and  N_5 
REMARK    2  A    between atoms: C_8  and  C_9 
REMARK    3  A    between atoms: C_9  and  N_10 
REMARK       I    between atoms: N_10  and  C_11 
REMARK       I    between atoms: C_11  and  N_12 
REMARK    4  A    between atoms: N_12  and  C_13 
REMARK    5  A    between atoms: C_13  and  C_14 
ROOT
HETATM    1  N   UNL     1       7.044  24.805  55.608  1.00  0.00    -0.319 N 
HETATM    2  C   UNL     1       5.986  25.646  55.252  1.00  0.00     0.021 A 
HETATM    3  C   UNL     1       5.063  25.380  54.105  1.00  0.00     0.069 C 
HETATM    4  C   UNL     1       5.921  26.692  56.171  1.00  0.00    -0.016 A 
HETATM    5  C   UNL     1       6.945  26.464  57.120  1.00  0.00     0.035 A 
HETATM    6  C   UNL     1       7.637  25.326  56.756  1.00  0.00     0.014 A 
HETATM    7  C   UNL     1       8.878  24.797  57.391  1.00  0.00     0.068 C 
ENDROOT
BRANCH   4   8
HETATM    8  C   UNL     1       4.974  27.854  56.180  1.00  0.00     0.165 C 
BRANCH   8   9
HETATM    9  N   UNL     1       5.167  28.604  57.398  1.00  0.00    -0.339 N 
HETATM   10  C   UNL     1       5.838  29.795  57.373  1.00  0.00     0.316 C 
HETATM   11  N   UNL     1       5.661  30.494  58.536  1.00  0.00    -0.339 N 
HETATM   12  O   UNL     1       6.468  30.214  56.413  1.00  0.00    -0.247 OA
HETATM   13  H   UNL     1       5.531  29.951  59.376  1.00  0.00     0.164 HD
HETATM   14  H   UNL     1       4.473  28.482  58.120  1.00  0.00     0.164 HD
BRANCH  11  15
HETATM   15  C   UNL     1       6.227  31.816  58.687  1.00  0.00     0.162 C 
BRANCH  15  16
HETATM   16  C   UNL     1       7.366  31.826  59.675  1.00  0.00    -0.040 A 
HETATM   17  C   UNL     1       8.691  31.736  59.227  1.00  0.00     0.009 A 
HETATM   18  C   UNL     1       9.753  31.793  60.133  1.00  0.00     0.001 A 
HETATM   19  C   UNL     1       9.501  31.950  61.495  1.00  0.00     0.000 A 
HETATM   20  C   UNL     1       8.190  32.055  61.953  1.00  0.00     0.001 A 
HETATM   21  C   UNL     1       7.129  32.003  61.048  1.00  0.00     0.009 A 
ENDBRANCH  15  16
ENDBRANCH  11  15
ENDBRANCH   8   9
ENDBRANCH   4   8
BRANCH   1  22
HETATM   22  C   UNL     1       7.448  23.619  54.920  1.00  0.00     0.040 A 
HETATM   23  C   UNL     1       7.552  22.403  55.610  1.00  0.00     0.036 A 
HETATM   24  C   UNL     1       7.984  21.242  54.951  1.00  0.00    -0.060 A 
HETATM   25  C   UNL     1       8.078  19.940  55.691  1.00  0.00     0.048 C 
HETATM   26  C   UNL     1       8.271  21.302  53.583  1.00  0.00     0.007 A 
HETATM   27  C   UNL     1       8.155  22.507  52.889  1.00  0.00     0.003 A 
HETATM   28  C   UNL     1       7.750  23.664  53.555  1.00  0.00     0.030 A 
ENDBRANCH   1  22
TORSDOF 5
ENDMDL
MODEL 3
REMARK VINA RESULT:      -9.5      1.700      2.707
REMARK  5 active torsions:
REMARK  status: ('A' for Active; 'I' for Inactive)
REMARK    1  A    between atoms: C_4  and  N_5 
REMARK    2  A    between atoms: C_8  and  C_9 
REMARK    3  A    between atoms: C_9  and  N_10 
REMARK       I    between atoms: N_10  and  C_11 
REMARK       I    between atoms: C_11  and  N_12 
REMARK    4  A    between atoms: N_12  and  C_13 
REMARK    5  A    between atoms: C_13  and  C_14 
ROOT
HETATM    1  N   UNL     1       6.664  24.987  55.055  1.00  0.00    -0.319 N 
HETATM    2  C   UNL     1       6.986  25.735  56.190  1.00  0.00     0.021 A 
HETATM    3  C   UNL     1       8.094  25.380  57.132  1.00  0.00     0.069 C 
HETATM    4  C   UNL     1       6.162  26.859  56.232  1.00  0.00    -0.016 A 
HETATM    5  C   UNL     1       5.340  26.803  55.082  1.00  0.00     0.035 A 
HETATM    6  C   UNL     1       5.638  25.649  54.384  1.00  0.00     0.014 A 
HETATM    7  C   UNL     1       4.918  25.121  53.190  1.00  0.00     0.068 C 
ENDROOT
BRANCH   4   8
HETATM    8  C   UNL     1       6.118  27.931  57.278  1.00  0.00     0.165 C 
BRANCH   8   9
HETATM    9  N   UNL     1       7.449  28.458  57.464  1.00  0.00    -0.339 N 
HETATM   10  C   UNL     1       7.626  29.758  57.849  1.00  0.00     0.316 C 
HETATM   11  N   UNL     1       8.910  29.987  58.262  1.00  0.00    -0.339 N 
HETATM   12  O   UNL     1       6.739  30.598  57.878  1.00  0.00    -0.247 OA
HETATM   13  H   UNL     1       9.633  29.438  57.822  1.00  0.00     0.164 HD
HETATM   14  H   UNL     1       8.164  27.798  57.730  1.00  0.00     0.164 HD
BRANCH  11  15
HETATM   15  C   UNL     1       9.290  31.282  58.780  1.00  0.00     0.162 C 
BRANCH  15  16
HETATM   16  C   UNL     1       8.826  31.472  60.203  1.00  0.00    -0.040 A 
HETATM   17  C   UNL     1       9.185  30.547  61.193  1.00  0.00     0.009 A 
HETATM   18  C   UNL     1       8.798  30.743  62.521  1.00  0.00     0.001 A 
HETATM   19  C   UNL     1       8.057  31.869  62.874  1.00  0.00     0.000 A 
HETATM   20  C   UNL     1       7.705  32.804  61.903  1.00  0.00     0.001 A 
HETATM   21  C   UNL     1       8.096  32.612  60.577  1.00  0.00     0.009 A 
ENDBRANCH  15  16
ENDBRANCH  11  15
ENDBRANCH   8   9
ENDBRANCH   4   8
BRANCH   1  22
HETATM   22  C   UNL     1       7.276  23.761  54.649  1.00  0.00     0.040 A 
HETATM   23  C   UNL     1       7.298  22.661  55.518  1.00  0.00     0.036 A 
HETATM   24  C   UNL     1       7.930  21.467  55.144  1.00  0.00    -0.060 A 
HETATM   25  C   UNL     1       7.936  20.287  56.071  1.00  0.00     0.048 C 
HETATM   26  C   UNL     1       8.505  21.370  53.871  1.00  0.00     0.007 A 
HETATM   27  C   UNL     1       8.474  22.457  52.998  1.00  0.00     0.003 A 
HETATM   28  C   UNL     1       7.866  23.652  53.386  1.00  0.00     0.030 A 
ENDBRANCH   1  22
TORSDOF 5
ENDMDL
MODEL 4
REMARK VINA RESULT:      -9.4      1.321      1.899
REMARK  5 active torsions:
REMARK  status: ('A' for Active; 'I' for Inactive)
REMARK    1  A    between atoms: C_4  and  N_5 
REMARK    2  A    between atoms: C_8  and  C_9 
REMARK    3  A    between atoms: C_9  and  N_10 
REMARK       I    between atoms: N_10  and  C_11 
REMARK       I    between atoms: C_11  and  N_12 
REMARK    4  A    between atoms: N_12  and  C_13 
REMARK    5  A    between atoms: C_13  and  C_14 
ROOT
HETATM    1  N   UNL     1       7.114  26.976  56.717  1.00  0.00    -0.319 N 
HETATM    2  C   UNL     1       7.841  28.123  57.050  1.00  0.00     0.021 A 
HETATM    3  C   UNL     1       9.319  28.256  56.852  1.00  0.00     0.069 C 
HETATM    4  C   UNL     1       6.955  29.093  57.515  1.00  0.00    -0.016 A 
HETATM    5  C   UNL     1       5.659  28.531  57.435  1.00  0.00     0.035 A 
HETATM    6  C   UNL     1       5.769  27.236  56.970  1.00  0.00     0.014 A 
HETATM    7  C   UNL     1       4.672  26.231  56.866  1.00  0.00     0.068 C 
ENDROOT
BRANCH   4   8
HETATM    8  C   UNL     1       7.273  30.469  58.017  1.00  0.00     0.165 C 
BRANCH   8   9
HETATM    9  N   UNL     1       7.515  30.402  59.439  1.00  0.00    -0.339 N 
HETATM   10  C   UNL     1       8.101  31.454  60.087  1.00  0.00     0.316 C 
HETATM   11  N   UNL     1       7.973  31.339  61.444  1.00  0.00    -0.339 N 
HETATM   12  O   UNL     1       8.621  32.408  59.527  1.00  0.00    -0.247 OA
HETATM   13  H   UNL     1       7.949  30.404  61.820  1.00  0.00     0.164 HD
HETATM   14  H   UNL     1       6.892  29.820  59.977  1.00  0.00     0.164 HD
BRANCH  11  15
HETATM   15  C   UNL     1       8.460  32.386  62.314  1.00  0.00     0.162 C 
BRANCH  15  16
HETATM   16  C   UNL     1       7.400  32.844  63.284  1.00  0.00    -0.040 A 
HETATM   17  C   UNL     1       6.043  32.637  62.999  1.00  0.00     0.009 A 
HETATM   18  C   UNL     1       5.059  33.015  63.915  1.00  0.00     0.001 A 
HETATM   19  C   UNL     1       5.420  33.598  65.129  1.00  0.00     0.000 A 
HETATM   20  C   UNL     1       6.765  33.798  65.432  1.00  0.00     0.001 A 
HETATM   21  C   UNL     1       7.750  33.415  64.519  1.00  0.00     0.009 A 
ENDBRANCH  15  16
ENDBRANCH  11  15
ENDBRANCH   8   9
ENDBRANCH   4   8
BRANCH   1  22
HETATM   22  C   UNL     1       7.652  25.755  56.206  1.00  0.00     0.040 A 
HETATM   23  C   UNL     1       7.551  25.456  54.841  1.00  0.00     0.036 A 
HETATM   24  C   UNL     1       8.042  24.242  54.336  1.00  0.00    -0.060 A 
HETATM   25  C   UNL     1       7.946  23.935  52.871  1.00  0.00     0.048 C 
HETATM   26  C   UNL     1       8.673  23.348  55.208  1.00  0.00     0.007 A 
HETATM   27  C   UNL     1       8.787  23.647  56.566  1.00  0.00     0.003 A 
HETATM   28  C   UNL     1       8.275  24.845  57.067  1.00  0.00     0.030 A 
ENDBRANCH   1  22
TORSDOF 5
ENDMDL
MODEL 5
REMARK VINA RESULT:      -9.1      1.762      2.288
REMARK  5 active torsions:
REMARK  status: ('A' for Active; 'I' for Inactive)
REMARK    1  A    between atoms: C_4  and  N_5 
REMARK    2  A    between atoms: C_8  and  C_9 
REMARK    3  A    between atoms: C_9  and  N_10 
REMARK       I    between atoms: N_10  and  C_11 
REMARK       I    between atoms: C_11  and  N_12 
REMARK    4  A    between atoms: N_12  and  C_13 
REMARK    5  A    between atoms: C_13  and  C_14 
ROOT
HETATM    1  N   UNL     1       6.549  26.777  55.450  1.00  0.00    -0.319 N 
HETATM    2  C   UNL     1       5.452  27.627  55.278  1.00  0.00     0.021 A 
HETATM    3  C   UNL     1       4.562  27.600  54.075  1.00  0.00     0.069 C 
HETATM    4  C   UNL     1       5.315  28.415  56.419  1.00  0.00    -0.016 A 
HETATM    5  C   UNL     1       6.336  28.015  57.313  1.00  0.00     0.035 A 
HETATM    6  C   UNL     1       7.094  27.034  56.706  1.00  0.00     0.014 A 
HETATM    7  C   UNL     1       8.353  26.429  57.230  1.00  0.00     0.068 C 
ENDROOT
BRANCH   4   8
HETATM    8  C   UNL     1       4.307  29.492  56.681  1.00  0.00     0.165 C 
BRANCH   8   9
HETATM    9  N   UNL     1       4.490  29.987  58.024  1.00  0.00    -0.339 N 
HETATM   10  C   UNL     1       5.126  31.179  58.236  1.00  0.00     0.316 C 
HETATM   11  N   UNL     1       4.941  31.624  59.517  1.00  0.00    -0.339 N 
HETATM   12  O   UNL     1       5.734  31.801  57.378  1.00  0.00    -0.247 OA
HETATM   13  H   UNL     1       4.836  30.920  60.231  1.00  0.00     0.164 HD
HETATM   14  H   UNL     1       3.808  29.702  58.709  1.00  0.00     0.164 HD
BRANCH  11  15
HETATM   15  C   UNL     1       5.470  32.905  59.928  1.00  0.00     0.162 C 
BRANCH  15  16
HETATM   16  C   UNL     1       6.408  32.771  61.102  1.00  0.00    -0.040 A 
HETATM   17  C   UNL     1       5.992  33.149  62.386  1.00  0.00     0.009 A 
HETATM   18  C   UNL     1       6.840  32.983  63.484  1.00  0.00     0.001 A 
HETATM   19  C   UNL     1       8.108  32.431  63.311  1.00  0.00     0.000 A 
HETATM   20  C   UNL     1       8.529  32.038  62.043  1.00  0.00     0.001 A 
HETATM   21  C   UNL     1       7.681  32.199  60.946  1.00  0.00     0.009 A 
ENDBRANCH  15  16
ENDBRANCH  11  15
ENDBRANCH   8   9
ENDBRANCH   4   8
BRANCH   1  22
HETATM   22  C   UNL     1       7.027  25.814  54.508  1.00  0.00     0.040 A 
HETATM   23  C   UNL     1       7.066  24.455  54.847  1.00  0.00     0.036 A 
HETATM   24  C   UNL     1       7.568  23.507  53.944  1.00  0.00    -0.060 A 
HETATM   25  C   UNL     1       7.592  22.051  54.305  1.00  0.00     0.048 C 
HETATM   26  C   UNL     1       7.994  23.930  52.680  1.00  0.00     0.007 A 
HETATM   27  C   UNL     1       7.945  25.280  52.333  1.00  0.00     0.003 A 
HETATM   28  C   UNL     1       7.468  26.222  53.246  1.00  0.00     0.030 A 
ENDBRANCH   1  22
TORSDOF 5
ENDMDL
MODEL 6
REMARK VINA RESULT:      -9.0      1.031      1.781
REMARK  5 active torsions:
REMARK  status: ('A' for Active; 'I' for Inactive)
REMARK    1  A    between atoms: C_4  and  N_5 
REMARK    2  A    between atoms: C_8  and  C_9 
REMARK    3  A    between atoms: C_9  and  N_10 
REMARK       I    between atoms: N_10  and  C_11 
REMARK       I    between atoms: C_11  and  N_12 
REMARK    4  A    between atoms: N_12  and  C_13 
REMARK    5  A    between atoms: C_13  and  C_14 
ROOT
HETATM    1  N   UNL     1       7.144  26.798  55.587  1.00  0.00    -0.319 N 
HETATM    2  C   UNL     1       7.806  28.029  55.634  1.00  0.00     0.021 A 
HETATM    3  C   UNL     1       8.548  28.616  54.474  1.00  0.00     0.069 C 
HETATM    4  C   UNL     1       7.591  28.604  56.885  1.00  0.00    -0.016 A 
HETATM    5  C   UNL     1       6.758  27.714  57.603  1.00  0.00     0.035 A 
HETATM    6  C   UNL     1       6.510  26.609  56.813  1.00  0.00     0.014 A 
HETATM    7  C   UNL     1       5.797  25.365  57.223  1.00  0.00     0.068 C 
ENDROOT
BRANCH   4   8
HETATM    8  C   UNL     1       8.128  29.902  57.408  1.00  0.00     0.165 C 
BRANCH   8   9
HETATM    9  N   UNL     1       7.535  30.166  58.697  1.00  0.00    -0.339 N 
HETATM   10  C   UNL     1       8.330  30.367  59.791  1.00  0.00     0.316 C 
HETATM   11  N   UNL     1       7.620  30.895  60.835  1.00  0.00    -0.339 N 
HETATM   12  O   UNL     1       9.534  30.160  59.819  1.00  0.00    -0.247 OA
HETATM   13  H   UNL     1       6.648  30.636  60.900  1.00  0.00     0.164 HD
HETATM   14  H   UNL     1       6.632  30.615  58.697  1.00  0.00     0.164 HD
BRANCH  11  15
HETATM   15  C   UNL     1       8.289  31.253  62.066  1.00  0.00     0.162 C 
BRANCH  15  16
HETATM   16  C   UNL     1       7.402  32.076  62.965  1.00  0.00    -0.040 A 
HETATM   17  C   UNL     1       6.008  31.989  62.854  1.00  0.00     0.009 A 
HETATM   18  C   UNL     1       5.180  32.713  63.716  1.00  0.00     0.001 A 
HETATM   19  C   UNL     1       5.737  33.525  64.703  1.00  0.00     0.000 A 
HETATM   20  C   UNL     1       7.122  33.610  64.834  1.00  0.00     0.001 A 
HETATM   21  C   UNL     1       7.949  32.883  63.976  1.00  0.00     0.009 A 
ENDBRANCH  15  16
ENDBRANCH  11  15
ENDBRANCH   8   9
ENDBRANCH   4   8
BRANCH   1  22
HETATM   22  C   UNL     1       7.118  25.894  54.481  1.00  0.00     0.040 A 
HETATM   23  C   UNL     1       6.234  26.108  53.415  1.00  0.00     0.036 A 
HETATM   24  C   UNL     1       6.175  25.205  52.343  1.00  0.00    -0.060 A 
HETATM   25  C   UNL     1       5.238  25.448  51.197  1.00  0.00     0.048 C 
HETATM   26  C   UNL     1       7.042  24.107  52.329  1.00  0.00     0.007 A 
HETATM   27  C   UNL     1       7.933  23.897  53.382  1.00  0.00     0.003 A 
HETATM   28  C   UNL     1       7.969  24.785  54.458  1.00  0.00     0.030 A 
ENDBRANCH   1  22
TORSDOF 5
ENDMDL
MODEL 7
REMARK VINA RESULT:      -8.8      1.924      3.452
REMARK  5 active torsions:
REMARK  status: ('A' for Active; 'I' for Inactive)
REMARK    1  A    between atoms: C_4  and  N_5 
REMARK    2  A    between atoms: C_8  and  C_9 
REMARK    3  A    between atoms: C_9  and  N_10 
REMARK       I    between atoms: N_10  and  C_11 
REMARK       I    between atoms: C_11  and  N_12 
REMARK    4  A    between atoms: N_12  and  C_13 
REMARK    5  A    between atoms: C_13  and  C_14 
ROOT
HETATM    1  N   UNL     1       7.036  25.049  54.895  1.00  0.00    -0.319 N 
HETATM    2  C   UNL     1       6.208  25.751  55.775  1.00  0.00     0.021 A 
HETATM    3  C   UNL     1       5.758  25.215  57.098  1.00  0.00     0.069 C 
HETATM    4  C   UNL     1       5.954  27.012  55.238  1.00  0.00    -0.016 A 
HETATM    5  C   UNL     1       6.666  27.085  54.018  1.00  0.00     0.035 A 
HETATM    6  C   UNL     1       7.303  25.878  53.808  1.00  0.00     0.014 A 
HETATM    7  C   UNL     1       8.048  25.466  52.583  1.00  0.00     0.068 C 
ENDROOT
BRANCH   4   8
HETATM    8  C   UNL     1       5.094  28.100  55.806  1.00  0.00     0.165 C 
BRANCH   8   9
HETATM    9  N   UNL     1       5.942  29.172  56.270  1.00  0.00    -0.339 N 
HETATM   10  C   UNL     1       5.476  30.068  57.192  1.00  0.00     0.316 C 
HETATM   11  N   UNL     1       6.493  30.809  57.728  1.00  0.00    -0.339 N 
HETATM   12  O   UNL     1       4.307  30.158  57.539  1.00  0.00    -0.247 OA
HETATM   13  H   UNL     1       7.284  30.993  57.131  1.00  0.00     0.164 HD
HETATM   14  H   UNL     1       6.936  29.001  56.258  1.00  0.00     0.164 HD
BRANCH  11  15
HETATM   15  C   UNL     1       6.224  31.766  58.778  1.00  0.00     0.162 C 
BRANCH  15  16
HETATM   16  C   UNL     1       7.237  31.674  59.891  1.00  0.00    -0.040 A 
HETATM   17  C   UNL     1       7.111  32.481  61.030  1.00  0.00     0.009 A 
HETATM   18  C   UNL     1       8.019  32.366  62.086  1.00  0.00     0.001 A 
HETATM   19  C   UNL     1       9.057  31.438  62.017  1.00  0.00     0.000 A 
HETATM   20  C   UNL     1       9.185  30.619  60.898  1.00  0.00     0.001 A 
HETATM   21  C   UNL     1       8.275  30.730  59.845  1.00  0.00     0.009 A 
ENDBRANCH  15  16
ENDBRANCH  11  15
ENDBRANCH   8   9
ENDBRANCH   4   8
BRANCH   1  22
HETATM   22  C   UNL     1       7.524  23.718  55.076  1.00  0.00     0.040 A 
HETATM   23  C   UNL     1       7.455  22.792  54.026  1.00  0.00     0.036 A 
HETATM   24  C   UNL     1       7.898  21.473  54.206  1.00  0.00    -0.060 A 
HETATM   25  C   UNL     1       7.837  20.490  53.074  1.00  0.00     0.048 C 
HETATM   26  C   UNL     1       8.449  21.102  55.438  1.00  0.00     0.007 A 
HETATM   27  C   UNL     1       8.532  22.024  56.481  1.00  0.00     0.003 A 
HETATM   28  C   UNL     1       8.067  23.328  56.304  1.00  0.00     0.030 A 
ENDBRANCH   1  22
TORSDOF 5
ENDMDL
MODEL 8
REMARK VINA RESULT:      -8.6      3.368      4.804
REMARK  5 active torsions:
REMARK  status: ('A' for Active; 'I' for Inactive)
REMARK    1  A    between atoms: C_4  and  N_5 
REMARK    2  A    between atoms: C_8  and  C_9 
REMARK    3  A    between atoms: C_9  and  N_10 
REMARK       I    between atoms: N_10  and  C_11 
REMARK       I    between atoms: C_11  and  N_12 
REMARK    4  A    between atoms: N_12  and  C_13 
REMARK    5  A    between atoms: C_13  and  C_14 
ROOT
HETATM    1  N   UNL     1       6.806  24.950  54.460  1.00  0.00    -0.319 N 
HETATM    2  C   UNL     1       5.831  25.543  55.267  1.00  0.00     0.021 A 
HETATM    3  C   UNL     1       5.415  25.003  56.599  1.00  0.00     0.069 C 
HETATM    4  C   UNL     1       5.394  26.714  54.650  1.00  0.00    -0.016 A 
HETATM    5  C   UNL     1       6.141  26.847  53.456  1.00  0.00     0.035 A 
HETATM    6  C   UNL     1       6.981  25.758  53.339  1.00  0.00     0.014 A 
HETATM    7  C   UNL     1       7.841  25.419  52.168  1.00  0.00     0.068 C 
ENDROOT
BRANCH   4   8
HETATM    8  C   UNL     1       4.336  27.666  55.122  1.00  0.00     0.165 C 
BRANCH   8   9
HETATM    9  N   UNL     1       4.956  28.928  55.449  1.00  0.00    -0.339 N 
HETATM   10  C   UNL     1       5.511  29.121  56.684  1.00  0.00     0.316 C 
HETATM   11  N   UNL     1       6.302  30.237  56.708  1.00  0.00    -0.339 N 
HETATM   12  O   UNL     1       5.369  28.363  57.632  1.00  0.00    -0.247 OA
HETATM   13  H   UNL     1       6.037  30.994  56.097  1.00  0.00     0.164 HD
HETATM   14  H   UNL     1       5.348  29.452  54.682  1.00  0.00     0.164 HD
BRANCH  11  15
HETATM   15  C   UNL     1       7.043  30.581  57.901  1.00  0.00     0.162 C 
BRANCH  15  16
HETATM   16  C   UNL     1       8.528  30.410  57.705  1.00  0.00    -0.040 A 
HETATM   17  C   UNL     1       9.431  31.227  58.399  1.00  0.00     0.009 A 
HETATM   18  C   UNL     1      10.809  31.042  58.258  1.00  0.00     0.001 A 
HETATM   19  C   UNL     1      11.298  30.034  57.429  1.00  0.00     0.000 A 
HETATM   20  C   UNL     1      10.412  29.206  56.744  1.00  0.00     0.001 A 
HETATM   21  C   UNL     1       9.035  29.387  56.888  1.00  0.00     0.009 A 
ENDBRANCH  15  16
ENDBRANCH  11  15
ENDBRANCH   8   9
ENDBRANCH   4   8
BRANCH   1  22
HETATM   22  C   UNL     1       7.503  23.733  54.734  1.00  0.00     0.040 A 
HETATM   23  C   UNL     1       7.497  22.689  53.798  1.00  0.00     0.036 A 
HETATM   24  C   UNL     1       8.146  21.478  54.075  1.00  0.00    -0.060 A 
HETATM   25  C   UNL     1       8.151  20.370  53.063  1.00  0.00     0.048 C 
HETATM   26  C   UNL     1       8.839  21.336  55.283  1.00  0.00     0.007 A 
HETATM   27  C   UNL     1       8.858  22.376  56.212  1.00  0.00     0.003 A 
HETATM   28  C   UNL     1       8.189  23.571  55.942  1.00  0.00     0.030 A 
ENDBRANCH   1  22
TORSDOF 5
ENDMDL
MODEL 9
REMARK VINA RESULT:      -8.6      6.345      9.746
REMARK  5 active torsions:
REMARK  status: ('A' for Active; 'I' for Inactive)
REMARK    1  A    between atoms: C_4  and  N_5 
REMARK    2  A    between atoms: C_8  and  C_9 
REMARK    3  A    between atoms: C_9  and  N_10 
REMARK       I    between atoms: N_10  and  C_11 
REMARK       I    between atoms: C_11  and  N_12 
REMARK    4  A    between atoms: N_12  and  C_13 
REMARK    5  A    between atoms: C_13  and  C_14 
ROOT
HETATM    1  N   UNL     1       6.737  25.095  54.362  1.00  0.00    -0.319 N 
HETATM    2  C   UNL     1       5.713  25.849  54.944  1.00  0.00     0.021 A 
HETATM    3  C   UNL     1       5.152  25.576  56.305  1.00  0.00     0.069 C 
HETATM    4  C   UNL     1       5.382  26.892  54.082  1.00  0.00    -0.016 A 
HETATM    5  C   UNL     1       6.243  26.784  52.965  1.00  0.00     0.035 A 
HETATM    6  C   UNL     1       7.048  25.675  53.135  1.00  0.00     0.014 A 
HETATM    7  C   UNL     1       8.002  25.107  52.139  1.00  0.00     0.068 C 
ENDROOT
BRANCH   4   8
HETATM    8  C   UNL     1       4.322  27.936  54.262  1.00  0.00     0.165 C 
BRANCH   8   9
HETATM    9  N   UNL     1       3.381  27.839  53.171  1.00  0.00    -0.339 N 
HETATM   10  C   UNL     1       3.105  28.936  52.402  1.00  0.00     0.316 C 
HETATM   11  N   UNL     1       2.443  28.589  51.255  1.00  0.00    -0.339 N 
HETATM   12  O   UNL     1       3.456  30.075  52.671  1.00  0.00    -0.247 OA
HETATM   13  H   UNL     1       1.838  27.785  51.307  1.00  0.00     0.164 HD
HETATM   14  H   UNL     1       3.287  26.936  52.733  1.00  0.00     0.164 HD
BRANCH  11  15
HETATM   15  C   UNL     1       2.122  29.594  50.266  1.00  0.00     0.162 C 
BRANCH  15  16
HETATM   16  C   UNL     1       1.581  28.978  49.000  1.00  0.00    -0.040 A 
HETATM   17  C   UNL     1       1.014  29.787  48.006  1.00  0.00     0.009 A 
HETATM   18  C   UNL     1       0.556  29.228  46.811  1.00  0.00     0.001 A 
HETATM   19  C   UNL     1       0.666  27.855  46.594  1.00  0.00     0.000 A 
HETATM   20  C   UNL     1       1.240  27.041  47.567  1.00  0.00     0.001 A 
HETATM   21  C   UNL     1       1.703  27.599  48.759  1.00  0.00     0.009 A 
ENDBRANCH  15  16
ENDBRANCH  11  15
ENDBRANCH   8   9
ENDBRANCH   4   8
BRANCH   1  22
HETATM   22  C   UNL     1       7.357  23.937  54.925  1.00  0.00     0.040 A 
HETATM   23  C   UNL     1       7.428  22.747  54.188  1.00  0.00     0.036 A 
HETATM   24  C   UNL     1       8.002  21.595  54.746  1.00  0.00    -0.060 A 
HETATM   25  C   UNL     1       8.090  20.328  53.947  1.00  0.00     0.048 C 
HETATM   26  C   UNL     1       8.541  21.658  56.036  1.00  0.00     0.007 A 
HETATM   27  C   UNL     1       8.484  22.844  56.767  1.00  0.00     0.003 A 
HETATM   28  C   UNL     1       7.890  23.981  56.217  1.00  0.00     0.030 A 
ENDBRANCH   1  22
TORSDOF 5
ENDMDL
MODEL 10
REMARK VINA RESULT:      -8.4      5.569      9.039
REMARK  5 active torsions:
REMARK  status: ('A' for Active; 'I' for Inactive)
REMARK    1  A    between atoms: C_4  and  N_5 
REMARK    2  A    between atoms: C_8  and  C_9 
REMARK    3  A    between atoms: C_9  and  N_10 
REMARK       I    between atoms: N_10  and  C_11 
REMARK       I    between atoms: C_11  and  N_12 
REMARK    4  A    between atoms: N_12  and  C_13 
REMARK    5  A    between atoms: C_13  and  C_14 
ROOT
HETATM    1  N   UNL     1       4.350  28.803  52.505  1.00  0.00    -0.319 N 
HETATM    2  C   UNL     1       4.564  27.767  53.418  1.00  0.00     0.021 A 
HETATM    3  C   UNL     1       4.766  26.338  53.019  1.00  0.00     0.069 C 
HETATM    4  C   UNL     1       4.619  28.307  54.701  1.00  0.00    -0.016 A 
HETATM    5  C   UNL     1       4.461  29.706  54.559  1.00  0.00     0.035 A 
HETATM    6  C   UNL     1       4.276  29.995  53.222  1.00  0.00     0.014 A 
HETATM    7  C   UNL     1       3.932  31.323  52.638  1.00  0.00     0.068 C 
ENDROOT
BRANCH   4   8
HETATM    8  C   UNL     1       4.798  27.582  56.000  1.00  0.00     0.165 C 
BRANCH   8   9
HETATM    9  N   UNL     1       6.092  26.942  56.004  1.00  0.00    -0.339 N 
HETATM   10  C   UNL     1       6.232  25.679  56.508  1.00  0.00     0.316 C 
HETATM   11  N   UNL     1       7.435  25.131  56.156  1.00  0.00    -0.339 N 
HETATM   12  O   UNL     1       5.371  25.088  57.142  1.00  0.00    -0.247 OA
HETATM   13  H   UNL     1       8.208  25.768  56.042  1.00  0.00     0.164 HD
HETATM   14  H   UNL     1       6.738  27.224  55.283  1.00  0.00     0.164 HD
BRANCH  11  15
HETATM   15  C   UNL     1       7.754  23.770  56.527  1.00  0.00     0.162 C 
BRANCH  15  16
HETATM   16  C   UNL     1       7.844  22.869  55.320  1.00  0.00    -0.040 A 
HETATM   17  C   UNL     1       7.845  21.476  55.476  1.00  0.00     0.009 A 
HETATM   18  C   UNL     1       7.880  20.637  54.361  1.00  0.00     0.001 A 
HETATM   19  C   UNL     1       7.907  21.180  53.077  1.00  0.00     0.000 A 
HETATM   20  C   UNL     1       7.892  22.562  52.906  1.00  0.00     0.001 A 
HETATM   21  C   UNL     1       7.852  23.402  54.021  1.00  0.00     0.009 A 
ENDBRANCH  15  16
ENDBRANCH  11  15
ENDBRANCH   8   9
ENDBRANCH   4   8
BRANCH   1  22
HETATM   22  C   UNL     1       4.229  28.668  51.087  1.00  0.00     0.040 A 
HETATM   23  C   UNL     1       2.972  28.460  50.502  1.00  0.00     0.036 A 
HETATM   24  C   UNL     1       2.849  28.288  49.115  1.00  0.00    -0.060 A 
HETATM   25  C   UNL     1       1.500  28.083  48.493  1.00  0.00     0.048 C 
HETATM   26  C   UNL     1       3.994  28.369  48.315  1.00  0.00     0.007 A 
HETATM   27  C   UNL     1       5.244  28.590  48.891  1.00  0.00     0.003 A 
HETATM   28  C   UNL     1       5.365  28.734  50.274  1.00  0.00     0.030 A 
ENDBRANCH   1  22
TORSDOF 5
ENDMDL
