MODEL 1
REMARK VINA RESULT:     -10.0      0.000      0.000
REMARK  10 active torsions:
REMARK  status: ('A' for Active; 'I' for Inactive)
REMARK    1  A    between atoms: C_2  and  C_3 
REMARK    2  A    between atoms: N_4  and  N_5 
REMARK       I    between atoms: N_5  and  C_6 
REMARK    3  A    between atoms: C_6  and  C_7 
REMARK    4  A    between atoms: N_10  and  C_11 
REMARK    5  A    between atoms: C_15  and  N_16 
REMARK    6  A    between atoms: C_17  and  C_18 
REMARK    7  A    between atoms: C_18  and  N_19 
REMARK    8  A    between atoms: C_29  and  O_30 
REMARK    9  A    between atoms: O_30  and  C_31 
REMARK   10  A    between atoms: C_31  and  C_32 
ROOT
HETATM    1  N   UNL     1       8.439  31.862  62.274  1.00  0.00    -0.242 N 
HETATM    2  C   UNL     1       7.492  32.314  63.175  1.00  0.00     0.294 C 
HETATM    3  O   UNL     1       7.845  32.767  64.266  1.00  0.00    -0.264 OA
HETATM    4  H   UNL     1       9.414  31.946  62.544  1.00  0.00     0.192 HD
ENDROOT
BRANCH   2   5
HETATM    5  C   UNL     1       6.070  32.295  62.810  1.00  0.00     0.176 A 
HETATM    6  N   UNL     1       5.218  31.246  63.007  1.00  0.00    -0.124 NA
HETATM    7  N   UNL     1       4.027  31.569  62.540  1.00  0.00    -0.058 NA
HETATM    8  N   UNL     1       4.066  32.836  62.066  1.00  0.00    -0.191 N 
HETATM    9  C   UNL     1       5.360  33.333  62.210  1.00  0.00     0.102 A 
BRANCH   8  10
HETATM   10  C   UNL     1       2.911  33.486  61.567  1.00  0.00     0.229 A 
HETATM   11  N   UNL     1       2.609  33.419  60.267  1.00  0.00    -0.081 NA
HETATM   12  O   UNL     1       1.434  34.172  60.161  1.00  0.00    -0.103 OA
HETATM   13  N   UNL     1       1.070  34.706  61.388  1.00  0.00    -0.083 NA
HETATM   14  C   UNL     1       1.983  34.284  62.260  1.00  0.00     0.201 A 
BRANCH  14  15
HETATM   15  N   UNL     1       1.989  34.586  63.566  1.00  0.00    -0.379 N 
HETATM   16  H   UNL     1       1.842  33.867  64.269  1.00  0.00     0.158 HD
HETATM   17  H   UNL     1       2.184  35.515  63.935  1.00  0.00     0.158 HD
ENDBRANCH  14  15
ENDBRANCH   8  10
BRANCH   9  18
HETATM   18  C   UNL     1       5.825  34.651  61.719  1.00  0.00     0.296 C 
BRANCH  18  19
HETATM   19  N   UNL     1       5.348  35.833  62.530  1.00  0.00    -0.066 N 
HETATM   20  H   UNL     1       4.348  35.943  62.303  1.00  0.00     0.280 HD
HETATM   21  C   UNL     1       5.486  35.641  64.023  1.00  0.00     0.235 C 
HETATM   22  C   UNL     1       4.833  36.816  64.739  1.00  0.00     0.028 C 
HETATM   23  C   UNL     1       5.419  38.150  64.292  1.00  0.00     0.003 C 
HETATM   24  C   UNL     1       5.371  38.296  62.776  1.00  0.00     0.028 C 
HETATM   25  C   UNL     1       6.018  37.111  62.075  1.00  0.00     0.235 C 
ENDBRANCH  18  19
ENDBRANCH   9  18
ENDBRANCH   2   5
BRANCH   1  26
HETATM   26  N   UNL     1       8.119  31.267  61.098  1.00  0.00    -0.184 NA
HETATM   27  C   UNL     1       9.053  31.203  60.205  1.00  0.00     0.150 C 
BRANCH  27  28
HETATM   28  C   UNL     1       8.811  30.540  58.909  1.00  0.00    -0.017 A 
HETATM   29  C   UNL     1       7.513  30.179  58.551  1.00  0.00     0.016 A 
HETATM   30  C   UNL     1       7.293  29.527  57.334  1.00  0.00     0.037 A 
HETATM   31  C   UNL     1       8.355  29.248  56.466  1.00  0.00     0.069 A 
HETATM   32  C   UNL     1       9.647  29.639  56.820  1.00  0.00     0.037 A 
HETATM   33  C   UNL     1       9.877  30.272  58.045  1.00  0.00     0.016 A 
BRANCH  31  34
HETATM   34  O   UNL     1       7.999  28.589  55.322  1.00  0.00    -0.347 OA
BRANCH  34  35
HETATM   35  C   UNL     1       6.874  27.717  55.393  1.00  0.00     0.216 C 
BRANCH  35  36
HETATM   36  C   UNL     1       7.316  26.335  54.973  1.00  0.00    -0.012 A 
HETATM   37  C   UNL     1       7.717  25.362  55.906  1.00  0.00     0.044 A 
HETATM   38 CL   UNL     1       7.739  25.682  57.604  1.00  0.00    -0.084 Cl
HETATM   39  C   UNL     1       8.122  24.092  55.485  1.00  0.00     0.048 A 
HETATM   40  C   UNL     1       8.115  23.781  54.129  1.00  0.00     0.035 A 
HETATM   41 CL   UNL     1       8.618  22.220  53.609  1.00  0.00    -0.084 Cl
HETATM   42  C   UNL     1       7.704  24.723  53.190  1.00  0.00     0.024 A 
HETATM   43  C   UNL     1       7.300  25.993  53.609  1.00  0.00     0.013 A 
ENDBRANCH  35  36
ENDBRANCH  34  35
ENDBRANCH  31  34
ENDBRANCH  27  28
ENDBRANCH   1  26
TORSDOF 10
ENDMDL
MODEL 2
REMARK VINA RESULT:      -9.8      4.824     10.681
REMARK  10 active torsions:
REMARK  status: ('A' for Active; 'I' for Inactive)
REMARK    1  A    between atoms: C_2  and  C_3 
REMARK    2  A    between atoms: N_4  and  N_5 
REMARK       I    between atoms: N_5  and  C_6 
REMARK    3  A    between atoms: C_6  and  C_7 
REMARK    4  A    between atoms: N_10  and  C_11 
REMARK    5  A    between atoms: C_15  and  N_16 
REMARK    6  A    between atoms: C_17  and  C_18 
REMARK    7  A    between atoms: C_18  and  N_19 
REMARK    8  A    between atoms: C_29  and  O_30 
REMARK    9  A    between atoms: O_30  and  C_31 
REMARK   10  A    between atoms: C_31  and  C_32 
ROOT
HETATM    1  N   UNL     1       4.951  31.001  55.089  1.00  0.00    -0.242 N 
HETATM    2  C   UNL     1       4.990  29.744  54.514  1.00  0.00     0.294 C 
HETATM    3  O   UNL     1       4.825  29.615  53.299  1.00  0.00    -0.264 OA
HETATM    4  H   UNL     1       4.810  31.792  54.468  1.00  0.00     0.192 HD
ENDROOT
BRANCH   2   5
HETATM    5  C   UNL     1       5.272  28.569  55.348  1.00  0.00     0.176 A 
HETATM    6  N   UNL     1       4.341  27.848  56.038  1.00  0.00    -0.124 NA
HETATM    7  N   UNL     1       4.951  26.879  56.694  1.00  0.00    -0.058 NA
HETATM    8  N   UNL     1       6.275  26.923  56.420  1.00  0.00    -0.191 N 
HETATM    9  C   UNL     1       6.524  27.998  55.569  1.00  0.00     0.102 A 
BRANCH   8  10
HETATM   10  C   UNL     1       7.178  25.956  56.924  1.00  0.00     0.229 A 
HETATM   11  N   UNL     1       7.948  26.239  57.979  1.00  0.00    -0.081 NA
HETATM   12  O   UNL     1       8.692  25.070  58.169  1.00  0.00    -0.103 OA
HETATM   13  N   UNL     1       8.384  24.119  57.208  1.00  0.00    -0.083 NA
HETATM   14  C   UNL     1       7.447  24.666  56.436  1.00  0.00     0.201 A 
BRANCH  14  15
HETATM   15  N   UNL     1       6.880  24.063  55.380  1.00  0.00    -0.379 N 
HETATM   16  H   UNL     1       6.767  23.053  55.355  1.00  0.00     0.158 HD
HETATM   17  H   UNL     1       6.492  24.560  54.581  1.00  0.00     0.158 HD
ENDBRANCH  14  15
ENDBRANCH   8  10
BRANCH   9  18
HETATM   18  C   UNL     1       7.867  28.435  55.121  1.00  0.00     0.296 C 
BRANCH  18  19
HETATM   19  N   UNL     1       8.790  28.884  56.230  1.00  0.00    -0.066 N 
HETATM   20  H   UNL     1       9.031  28.029  56.756  1.00  0.00     0.280 HD
HETATM   21  C   UNL     1      10.067  29.523  55.736  1.00  0.00     0.235 C 
HETATM   22  C   UNL     1      10.984  29.788  56.924  1.00  0.00     0.028 C 
HETATM   23  C   UNL     1      10.305  30.645  57.985  1.00  0.00     0.003 C 
HETATM   24  C   UNL     1       8.967  30.048  58.407  1.00  0.00     0.028 C 
HETATM   25  C   UNL     1       8.067  29.781  57.210  1.00  0.00     0.235 C 
ENDBRANCH  18  19
ENDBRANCH   9  18
ENDBRANCH   2   5
BRANCH   1  26
HETATM   26  N   UNL     1       5.030  31.207  56.427  1.00  0.00    -0.184 NA
HETATM   27  C   UNL     1       5.054  32.439  56.825  1.00  0.00     0.150 C 
BRANCH  27  28
HETATM   28  C   UNL     1       5.100  32.763  58.265  1.00  0.00    -0.017 A 
HETATM   29  C   UNL     1       4.110  33.571  58.821  1.00  0.00     0.016 A 
HETATM   30  C   UNL     1       4.173  33.897  60.180  1.00  0.00     0.037 A 
HETATM   31  C   UNL     1       5.207  33.408  60.988  1.00  0.00     0.069 A 
HETATM   32  C   UNL     1       6.176  32.576  60.428  1.00  0.00     0.037 A 
HETATM   33  C   UNL     1       6.131  32.264  59.066  1.00  0.00     0.016 A 
BRANCH  31  34
HETATM   34  O   UNL     1       5.157  33.822  62.290  1.00  0.00    -0.347 OA
BRANCH  34  35
HETATM   35  C   UNL     1       4.898  32.832  63.282  1.00  0.00     0.216 C 
BRANCH  35  36
HETATM   36  C   UNL     1       5.332  33.377  64.622  1.00  0.00    -0.012 A 
HETATM   37  C   UNL     1       6.686  33.460  64.992  1.00  0.00     0.044 A 
HETATM   38 CL   UNL     1       7.953  32.938  63.939  1.00  0.00    -0.084 Cl
HETATM   39  C   UNL     1       7.056  33.968  66.241  1.00  0.00     0.048 A 
HETATM   40  C   UNL     1       6.075  34.409  67.124  1.00  0.00     0.035 A 
HETATM   41 CL   UNL     1       6.528  35.030  68.662  1.00  0.00    -0.084 Cl
HETATM   42  C   UNL     1       4.730  34.353  66.770  1.00  0.00     0.024 A 
HETATM   43  C   UNL     1       4.359  33.844  65.523  1.00  0.00     0.013 A 
ENDBRANCH  35  36
ENDBRANCH  34  35
ENDBRANCH  31  34
ENDBRANCH  27  28
ENDBRANCH   1  26
TORSDOF 10
ENDMDL
MODEL 3
REMARK VINA RESULT:      -9.7      2.451      4.720
REMARK  10 active torsions:
REMARK  status: ('A' for Active; 'I' for Inactive)
REMARK    1  A    between atoms: C_2  and  C_3 
REMARK    2  A    between atoms: N_4  and  N_5 
REMARK       I    between atoms: N_5  and  C_6 
REMARK    3  A    between atoms: C_6  and  C_7 
REMARK    4  A    between atoms: N_10  and  C_11 
REMARK    5  A    between atoms: C_15  and  N_16 
REMARK    6  A    between atoms: C_17  and  C_18 
REMARK    7  A    between atoms: C_18  and  N_19 
REMARK    8  A    between atoms: C_29  and  O_30 
REMARK    9  A    between atoms: O_30  and  C_31 
REMARK   10  A    between atoms: C_31  and  C_32 
ROOT
HETATM    1  N   UNL     1       5.023  32.835  56.501  1.00  0.00    -0.242 N 
HETATM    2  C   UNL     1       4.483  33.821  57.306  1.00  0.00     0.294 C 
HETATM    3  O   UNL     1       4.338  34.965  56.869  1.00  0.00    -0.264 OA
HETATM    4  H   UNL     1       5.260  33.092  55.548  1.00  0.00     0.192 HD
ENDROOT
BRANCH   2   5
HETATM    5  C   UNL     1       4.043  33.492  58.668  1.00  0.00     0.176 A 
HETATM    6  N   UNL     1       2.749  33.286  59.052  1.00  0.00    -0.124 NA
HETATM    7  N   UNL     1       2.723  33.034  60.347  1.00  0.00    -0.058 NA
HETATM    8  N   UNL     1       3.989  33.034  60.824  1.00  0.00    -0.191 N 
HETATM    9  C   UNL     1       4.864  33.334  59.782  1.00  0.00     0.102 A 
BRANCH   8  10
HETATM   10  C   UNL     1       4.282  32.718  62.173  1.00  0.00     0.229 A 
HETATM   11  N   UNL     1       4.573  31.461  62.522  1.00  0.00    -0.081 NA
HETATM   12  O   UNL     1       4.789  31.543  63.902  1.00  0.00    -0.103 OA
HETATM   13  N   UNL     1       4.590  32.836  64.364  1.00  0.00    -0.083 NA
HETATM   14  C   UNL     1       4.276  33.565  63.295  1.00  0.00     0.201 A 
BRANCH  14  15
HETATM   15  N   UNL     1       4.004  34.878  63.320  1.00  0.00    -0.379 N 
HETATM   16  H   UNL     1       4.751  35.564  63.393  1.00  0.00     0.158 HD
HETATM   17  H   UNL     1       3.069  35.268  63.221  1.00  0.00     0.158 HD
ENDBRANCH  14  15
ENDBRANCH   8  10
BRANCH   9  18
HETATM   18  C   UNL     1       6.327  33.524  59.927  1.00  0.00     0.296 C 
BRANCH  18  19
HETATM   19  N   UNL     1       7.071  32.320  60.456  1.00  0.00    -0.066 N 
HETATM   20  H   UNL     1       6.346  31.629  60.705  1.00  0.00     0.280 HD
HETATM   21  C   UNL     1       8.008  31.695  59.449  1.00  0.00     0.235 C 
HETATM   22  C   UNL     1       8.579  30.408  60.031  1.00  0.00     0.028 C 
HETATM   23  C   UNL     1       9.275  30.648  61.366  1.00  0.00     0.003 C 
HETATM   24  C   UNL     1       8.358  31.372  62.345  1.00  0.00     0.028 C 
HETATM   25  C   UNL     1       7.789  32.650  61.747  1.00  0.00     0.235 C 
ENDBRANCH  18  19
ENDBRANCH   9  18
ENDBRANCH   2   5
BRANCH   1  26
HETATM   26  N   UNL     1       5.298  31.584  56.944  1.00  0.00    -0.184 NA
HETATM   27  C   UNL     1       5.377  30.653  56.048  1.00  0.00     0.150 C 
BRANCH  27  28
HETATM   28  C   UNL     1       5.710  29.267  56.431  1.00  0.00    -0.017 A 
HETATM   29  C   UNL     1       6.946  28.991  57.015  1.00  0.00     0.016 A 
HETATM   30  C   UNL     1       7.267  27.672  57.350  1.00  0.00     0.037 A 
HETATM   31  C   UNL     1       6.358  26.632  57.123  1.00  0.00     0.069 A 
HETATM   32  C   UNL     1       5.112  26.922  56.566  1.00  0.00     0.037 A 
HETATM   33  C   UNL     1       4.794  28.235  56.208  1.00  0.00     0.016 A 
BRANCH  31  34
HETATM   34  O   UNL     1       6.810  25.392  57.480  1.00  0.00    -0.347 OA
BRANCH  34  35
HETATM   35  C   UNL     1       8.131  25.037  57.080  1.00  0.00     0.216 C 
BRANCH  35  36
HETATM   36  C   UNL     1       8.038  23.933  56.054  1.00  0.00    -0.012 A 
HETATM   37  C   UNL     1       7.835  24.197  54.688  1.00  0.00     0.044 A 
HETATM   38 CL   UNL     1       7.672  25.809  54.085  1.00  0.00    -0.084 Cl
HETATM   39  C   UNL     1       7.752  23.152  53.763  1.00  0.00     0.048 A 
HETATM   40  C   UNL     1       7.884  21.836  54.195  1.00  0.00     0.035 A 
HETATM   41 CL   UNL     1       7.776  20.550  53.058  1.00  0.00    -0.084 Cl
HETATM   42  C   UNL     1       8.104  21.554  55.540  1.00  0.00     0.024 A 
HETATM   43  C   UNL     1       8.186  22.597  56.465  1.00  0.00     0.013 A 
ENDBRANCH  35  36
ENDBRANCH  34  35
ENDBRANCH  31  34
ENDBRANCH  27  28
ENDBRANCH   1  26
TORSDOF 10
ENDMDL
MODEL 4
REMARK VINA RESULT:      -9.5      2.122      2.909
REMARK  10 active torsions:
REMARK  status: ('A' for Active; 'I' for Inactive)
REMARK    1  A    between atoms: C_2  and  C_3 
REMARK    2  A    between atoms: N_4  and  N_5 
REMARK       I    between atoms: N_5  and  C_6 
REMARK    3  A    between atoms: C_6  and  C_7 
REMARK    4  A    between atoms: N_10  and  C_11 
REMARK    5  A    between atoms: C_15  and  N_16 
REMARK    6  A    between atoms: C_17  and  C_18 
REMARK    7  A    between atoms: C_18  and  N_19 
REMARK    8  A    between atoms: C_29  and  O_30 
REMARK    9  A    between atoms: O_30  and  C_31 
REMARK   10  A    between atoms: C_31  and  C_32 
ROOT
HETATM    1  N   UNL     1       9.260  30.298  60.300  1.00  0.00    -0.242 N 
HETATM    2  C   UNL     1       8.794  31.432  60.940  1.00  0.00     0.294 C 
HETATM    3  O   UNL     1       9.427  31.912  61.884  1.00  0.00    -0.264 OA
HETATM    4  H   UNL     1      10.139  29.910  60.625  1.00  0.00     0.192 HD
ENDROOT
BRANCH   2   5
HETATM    5  C   UNL     1       7.570  32.088  60.465  1.00  0.00     0.176 A 
HETATM    6  N   UNL     1       7.409  32.668  59.239  1.00  0.00    -0.124 NA
HETATM    7  N   UNL     1       6.194  33.177  59.163  1.00  0.00    -0.058 NA
HETATM    8  N   UNL     1       5.530  32.913  60.312  1.00  0.00    -0.191 N 
HETATM    9  C   UNL     1       6.380  32.226  61.177  1.00  0.00     0.102 A 
BRANCH   8  10
HETATM   10  C   UNL     1       4.173  33.272  60.494  1.00  0.00     0.229 A 
HETATM   11  N   UNL     1       3.845  34.533  60.793  1.00  0.00    -0.081 NA
HETATM   12  O   UNL     1       2.450  34.495  60.901  1.00  0.00    -0.103 OA
HETATM   13  N   UNL     1       1.968  33.211  60.699  1.00  0.00    -0.083 NA
HETATM   14  C   UNL     1       3.032  32.452  60.448  1.00  0.00     0.201 A 
BRANCH  14  15
HETATM   15  N   UNL     1       2.989  31.135  60.200  1.00  0.00    -0.379 N 
HETATM   16  H   UNL     1       2.358  30.756  59.499  1.00  0.00     0.158 HD
HETATM   17  H   UNL     1       3.600  30.451  60.643  1.00  0.00     0.158 HD
ENDBRANCH  14  15
ENDBRANCH   8  10
BRANCH   9  18
HETATM   18  C   UNL     1       6.050  31.845  62.570  1.00  0.00     0.296 C 
BRANCH  18  19
HETATM   19  N   UNL     1       6.089  32.983  63.563  1.00  0.00    -0.066 N 
HETATM   20  H   UNL     1       6.246  33.837  63.005  1.00  0.00     0.280 HD
HETATM   21  C   UNL     1       4.808  33.148  64.348  1.00  0.00     0.235 C 
HETATM   22  C   UNL     1       4.902  34.411  65.195  1.00  0.00     0.028 C 
HETATM   23  C   UNL     1       6.120  34.391  66.111  1.00  0.00     0.003 C 
HETATM   24  C   UNL     1       7.399  34.121  65.328  1.00  0.00     0.028 C 
HETATM   25  C   UNL     1       7.286  32.863  64.481  1.00  0.00     0.235 C 
ENDBRANCH  18  19
ENDBRANCH   9  18
ENDBRANCH   2   5
BRANCH   1  26
HETATM   26  N   UNL     1       8.569  29.664  59.320  1.00  0.00    -0.184 NA
HETATM   27  C   UNL     1       8.980  29.848  58.107  1.00  0.00     0.150 C 
BRANCH  27  28
HETATM   28  C   UNL     1       8.316  29.169  56.976  1.00  0.00    -0.017 A 
HETATM   29  C   UNL     1       8.952  29.113  55.737  1.00  0.00     0.016 A 
HETATM   30  C   UNL     1       8.307  28.492  54.663  1.00  0.00     0.037 A 
HETATM   31  C   UNL     1       7.042  27.914  54.822  1.00  0.00     0.069 A 
HETATM   32  C   UNL     1       6.426  27.950  56.073  1.00  0.00     0.037 A 
HETATM   33  C   UNL     1       7.057  28.588  57.146  1.00  0.00     0.016 A 
BRANCH  31  34
HETATM   34  O   UNL     1       6.520  27.361  53.685  1.00  0.00    -0.347 OA
BRANCH  34  35
HETATM   35  C   UNL     1       5.647  26.245  53.841  1.00  0.00     0.216 C 
BRANCH  35  36
HETATM   36  C   UNL     1       6.476  24.984  53.806  1.00  0.00    -0.012 A 
HETATM   37  C   UNL     1       6.692  24.198  54.952  1.00  0.00     0.044 A 
HETATM   38 CL   UNL     1       6.026  24.625  56.489  1.00  0.00    -0.084 Cl
HETATM   39  C   UNL     1       7.465  23.036  54.886  1.00  0.00     0.048 A 
HETATM   40  C   UNL     1       8.018  22.643  53.671  1.00  0.00     0.035 A 
HETATM   41 CL   UNL     1       8.975  21.216  53.590  1.00  0.00    -0.084 Cl
HETATM   42  C   UNL     1       7.802  23.396  52.521  1.00  0.00     0.024 A 
HETATM   43  C   UNL     1       7.030  24.558  52.585  1.00  0.00     0.013 A 
ENDBRANCH  35  36
ENDBRANCH  34  35
ENDBRANCH  31  34
ENDBRANCH  27  28
ENDBRANCH   1  26
TORSDOF 10
ENDMDL
MODEL 5
REMARK VINA RESULT:      -9.4      1.640      2.386
REMARK  10 active torsions:
REMARK  status: ('A' for Active; 'I' for Inactive)
REMARK    1  A    between atoms: C_2  and  C_3 
REMARK    2  A    between atoms: N_4  and  N_5 
REMARK       I    between atoms: N_5  and  C_6 
REMARK    3  A    between atoms: C_6  and  C_7 
REMARK    4  A    between atoms: N_10  and  C_11 
REMARK    5  A    between atoms: C_15  and  N_16 
REMARK    6  A    between atoms: C_17  and  C_18 
REMARK    7  A    between atoms: C_18  and  N_19 
REMARK    8  A    between atoms: C_29  and  O_30 
REMARK    9  A    between atoms: O_30  and  C_31 
REMARK   10  A    between atoms: C_31  and  C_32 
ROOT
HETATM    1  N   UNL     1       7.145  31.937  61.072  1.00  0.00    -0.242 N 
HETATM    2  C   UNL     1       6.112  32.593  61.718  1.00  0.00     0.294 C 
HETATM    3  O   UNL     1       6.265  32.998  62.872  1.00  0.00    -0.264 OA
HETATM    4  H   UNL     1       8.019  31.836  61.577  1.00  0.00     0.192 HD
ENDROOT
BRANCH   2   5
HETATM    5  C   UNL     1       4.850  32.842  61.010  1.00  0.00     0.176 A 
HETATM    6  N   UNL     1       4.181  31.931  60.244  1.00  0.00    -0.124 NA
HETATM    7  N   UNL     1       3.102  32.504  59.745  1.00  0.00    -0.058 NA
HETATM    8  N   UNL     1       3.025  33.776  60.199  1.00  0.00    -0.191 N 
HETATM    9  C   UNL     1       4.132  34.036  61.004  1.00  0.00     0.102 A 
BRANCH   8  10
HETATM   10  C   UNL     1       1.928  34.618  59.891  1.00  0.00     0.229 A 
HETATM   11  N   UNL     1       0.726  34.379  60.425  1.00  0.00    -0.081 NA
HETATM   12  O   UNL     1      -0.079  35.391  59.890  1.00  0.00    -0.103 OA
HETATM   13  N   UNL     1       0.641  36.196  59.020  1.00  0.00    -0.083 NA
HETATM   14  C   UNL     1       1.883  35.719  59.019  1.00  0.00     0.201 A 
BRANCH  14  15
HETATM   15  N   UNL     1       2.894  36.224  58.296  1.00  0.00    -0.379 N 
HETATM   16  H   UNL     1       2.928  36.099  57.288  1.00  0.00     0.158 HD
HETATM   17  H   UNL     1       3.646  36.790  58.686  1.00  0.00     0.158 HD
ENDBRANCH  14  15
ENDBRANCH   8  10
BRANCH   9  18
HETATM   18  C   UNL     1       4.456  35.350  61.608  1.00  0.00     0.296 C 
BRANCH  18  19
HETATM   19  N   UNL     1       4.506  35.358  63.118  1.00  0.00    -0.066 N 
HETATM   20  H   UNL     1       5.347  34.819  63.373  1.00  0.00     0.280 HD
HETATM   21  C   UNL     1       4.621  36.743  63.713  1.00  0.00     0.235 C 
HETATM   22  C   UNL     1       4.824  36.622  65.218  1.00  0.00     0.028 C 
HETATM   23  C   UNL     1       3.708  35.821  65.879  1.00  0.00     0.003 C 
HETATM   24  C   UNL     1       3.527  34.465  65.207  1.00  0.00     0.028 C 
HETATM   25  C   UNL     1       3.335  34.601  63.705  1.00  0.00     0.235 C 
ENDBRANCH  18  19
ENDBRANCH   9  18
ENDBRANCH   2   5
BRANCH   1  26
HETATM   26  N   UNL     1       7.016  31.383  59.841  1.00  0.00    -0.184 NA
HETATM   27  C   UNL     1       8.053  30.770  59.367  1.00  0.00     0.150 C 
BRANCH  27  28
HETATM   28  C   UNL     1       7.996  30.103  58.052  1.00  0.00    -0.017 A 
HETATM   29  C   UNL     1       9.128  29.454  57.559  1.00  0.00     0.016 A 
HETATM   30  C   UNL     1       9.077  28.846  56.301  1.00  0.00     0.037 A 
HETATM   31  C   UNL     1       7.902  28.867  55.541  1.00  0.00     0.069 A 
HETATM   32  C   UNL     1       6.766  29.493  56.055  1.00  0.00     0.037 A 
HETATM   33  C   UNL     1       6.817  30.122  57.303  1.00  0.00     0.016 A 
BRANCH  31  34
HETATM   34  O   UNL     1       8.000  28.253  54.323  1.00  0.00    -0.347 OA
BRANCH  34  35
HETATM   35  C   UNL     1       6.820  27.647  53.798  1.00  0.00     0.216 C 
BRANCH  35  36
HETATM   36  C   UNL     1       7.062  26.162  53.677  1.00  0.00    -0.012 A 
HETATM   37  C   UNL     1       6.684  25.258  54.685  1.00  0.00     0.044 A 
HETATM   38 CL   UNL     1       5.919  25.785  56.143  1.00  0.00    -0.084 Cl
HETATM   39  C   UNL     1       6.923  23.888  54.543  1.00  0.00     0.048 A 
HETATM   40  C   UNL     1       7.530  23.410  53.386  1.00  0.00     0.035 A 
HETATM   41 CL   UNL     1       7.830  21.725  53.212  1.00  0.00    -0.084 Cl
HETATM   42  C   UNL     1       7.895  24.286  52.367  1.00  0.00     0.024 A 
HETATM   43  C   UNL     1       7.658  25.655  52.508  1.00  0.00     0.013 A 
ENDBRANCH  35  36
ENDBRANCH  34  35
ENDBRANCH  31  34
ENDBRANCH  27  28
ENDBRANCH   1  26
TORSDOF 10
ENDMDL
MODEL 6
REMARK VINA RESULT:      -9.2      2.513      4.644
REMARK  10 active torsions:
REMARK  status: ('A' for Active; 'I' for Inactive)
REMARK    1  A    between atoms: C_2  and  C_3 
REMARK    2  A    between atoms: N_4  and  N_5 
REMARK       I    between atoms: N_5  and  C_6 
REMARK    3  A    between atoms: C_6  and  C_7 
REMARK    4  A    between atoms: N_10  and  C_11 
REMARK    5  A    between atoms: C_15  and  N_16 
REMARK    6  A    between atoms: C_17  and  C_18 
REMARK    7  A    between atoms: C_18  and  N_19 
REMARK    8  A    between atoms: C_29  and  O_30 
REMARK    9  A    between atoms: O_30  and  C_31 
REMARK   10  A    between atoms: C_31  and  C_32 
ROOT
HETATM    1  N   UNL     1       3.300  31.364  57.217  1.00  0.00    -0.242 N 
HETATM    2  C   UNL     1       3.898  32.532  57.651  1.00  0.00     0.294 C 
HETATM    3  O   UNL     1       3.415  33.624  57.344  1.00  0.00    -0.264 OA
HETATM    4  H   UNL     1       2.450  31.453  56.670  1.00  0.00     0.192 HD
ENDROOT
BRANCH   2   5
HETATM    5  C   UNL     1       5.084  32.468  58.515  1.00  0.00     0.176 A 
HETATM    6  N   UNL     1       6.374  32.368  58.078  1.00  0.00    -0.124 NA
HETATM    7  N   UNL     1       7.176  32.311  59.125  1.00  0.00    -0.058 NA
HETATM    8  N   UNL     1       6.437  32.407  60.255  1.00  0.00    -0.191 N 
HETATM    9  C   UNL     1       5.091  32.498  59.907  1.00  0.00     0.102 A 
BRANCH   8  10
HETATM   10  C   UNL     1       7.033  32.451  61.539  1.00  0.00     0.229 A 
HETATM   11  N   UNL     1       6.752  33.453  62.378  1.00  0.00    -0.081 NA
HETATM   12  O   UNL     1       7.518  33.160  63.511  1.00  0.00    -0.103 OA
HETATM   13  N   UNL     1       8.271  32.011  63.323  1.00  0.00    -0.083 NA
HETATM   14  C   UNL     1       7.972  31.571  62.103  1.00  0.00     0.201 A 
BRANCH  14  15
HETATM   15  N   UNL     1       8.497  30.474  61.537  1.00  0.00    -0.379 N 
HETATM   16  H   UNL     1       9.405  30.504  61.082  1.00  0.00     0.158 HD
HETATM   17  H   UNL     1       8.061  29.553  61.566  1.00  0.00     0.158 HD
ENDBRANCH  14  15
ENDBRANCH   8  10
BRANCH   9  18
HETATM   18  C   UNL     1       3.964  32.520  60.869  1.00  0.00     0.296 C 
BRANCH  18  19
HETATM   19  N   UNL     1       3.484  33.901  61.252  1.00  0.00    -0.066 N 
HETATM   20  H   UNL     1       2.521  33.974  60.888  1.00  0.00     0.280 HD
HETATM   21  C   UNL     1       3.455  34.142  62.743  1.00  0.00     0.235 C 
HETATM   22  C   UNL     1       2.810  35.494  63.017  1.00  0.00     0.028 C 
HETATM   23  C   UNL     1       3.524  36.623  62.283  1.00  0.00     0.003 C 
HETATM   24  C   UNL     1       3.641  36.327  60.792  1.00  0.00     0.028 C 
HETATM   25  C   UNL     1       4.279  34.970  60.535  1.00  0.00     0.235 C 
ENDBRANCH  18  19
ENDBRANCH   9  18
ENDBRANCH   2   5
BRANCH   1  26
HETATM   26  N   UNL     1       3.828  30.134  57.436  1.00  0.00    -0.184 NA
HETATM   27  C   UNL     1       4.769  29.754  56.633  1.00  0.00     0.150 C 
BRANCH  27  28
HETATM   28  C   UNL     1       5.433  28.448  56.816  1.00  0.00    -0.017 A 
HETATM   29  C   UNL     1       4.699  27.274  56.651  1.00  0.00     0.016 A 
HETATM   30  C   UNL     1       5.326  26.040  56.852  1.00  0.00     0.037 A 
HETATM   31  C   UNL     1       6.680  25.970  57.199  1.00  0.00     0.069 A 
HETATM   32  C   UNL     1       7.413  27.149  57.333  1.00  0.00     0.037 A 
HETATM   33  C   UNL     1       6.787  28.388  57.155  1.00  0.00     0.016 A 
BRANCH  31  34
HETATM   34  O   UNL     1       7.157  24.702  57.385  1.00  0.00    -0.347 OA
BRANCH  34  35
HETATM   35  C   UNL     1       8.481  24.428  56.933  1.00  0.00     0.216 C 
BRANCH  35  36
HETATM   36  C   UNL     1       8.406  23.375  55.853  1.00  0.00    -0.012 A 
HETATM   37  C   UNL     1       8.349  22.001  56.150  1.00  0.00     0.044 A 
HETATM   38 CL   UNL     1       8.367  21.419  57.778  1.00  0.00    -0.084 Cl
HETATM   39  C   UNL     1       8.282  21.051  55.127  1.00  0.00     0.048 A 
HETATM   40  C   UNL     1       8.257  21.467  53.800  1.00  0.00     0.035 A 
HETATM   41 CL   UNL     1       8.179  20.298  52.541  1.00  0.00    -0.084 Cl
HETATM   42  C   UNL     1       8.293  22.823  53.484  1.00  0.00     0.024 A 
HETATM   43  C   UNL     1       8.362  23.773  54.505  1.00  0.00     0.013 A 
ENDBRANCH  35  36
ENDBRANCH  34  35
ENDBRANCH  31  34
ENDBRANCH  27  28
ENDBRANCH   1  26
TORSDOF 10
ENDMDL
MODEL 7
REMARK VINA RESULT:      -9.1      7.641     11.564
REMARK  10 active torsions:
REMARK  status: ('A' for Active; 'I' for Inactive)
REMARK    1  A    between atoms: C_2  and  C_3 
REMARK    2  A    between atoms: N_4  and  N_5 
REMARK       I    between atoms: N_5  and  C_6 
REMARK    3  A    between atoms: C_6  and  C_7 
REMARK    4  A    between atoms: N_10  and  C_11 
REMARK    5  A    between atoms: C_15  and  N_16 
REMARK    6  A    between atoms: C_17  and  C_18 
REMARK    7  A    between atoms: C_18  and  N_19 
REMARK    8  A    between atoms: C_29  and  O_30 
REMARK    9  A    between atoms: O_30  and  C_31 
REMARK   10  A    between atoms: C_31  and  C_32 
ROOT
HETATM    1  N   UNL     1       3.943  32.127  53.135  1.00  0.00    -0.242 N 
HETATM    2  C   UNL     1       3.844  32.323  51.769  1.00  0.00     0.294 C 
HETATM    3  O   UNL     1       3.221  33.291  51.327  1.00  0.00    -0.264 OA
HETATM    4  H   UNL     1       3.509  32.821  53.735  1.00  0.00     0.192 HD
ENDROOT
BRANCH   2   5
HETATM    5  C   UNL     1       4.519  31.399  50.849  1.00  0.00     0.176 A 
HETATM    6  N   UNL     1       5.847  31.429  50.532  1.00  0.00    -0.124 NA
HETATM    7  N   UNL     1       6.100  30.470  49.662  1.00  0.00    -0.058 NA
HETATM    8  N   UNL     1       4.962  29.778  49.421  1.00  0.00    -0.191 N 
HETATM    9  C   UNL     1       3.924  30.348  50.155  1.00  0.00     0.102 A 
BRANCH   8  10
HETATM   10  C   UNL     1       4.942  28.638  48.582  1.00  0.00     0.229 A 
HETATM   11  N   UNL     1       4.665  28.765  47.280  1.00  0.00    -0.081 NA
HETATM   12  O   UNL     1       4.728  27.453  46.799  1.00  0.00    -0.103 OA
HETATM   13  N   UNL     1       5.006  26.558  47.820  1.00  0.00    -0.083 NA
HETATM   14  C   UNL     1       5.138  27.289  48.925  1.00  0.00     0.201 A 
BRANCH  14  15
HETATM   15  N   UNL     1       5.410  26.793  50.141  1.00  0.00    -0.379 N 
HETATM   16  H   UNL     1       6.163  26.124  50.275  1.00  0.00     0.158 HD
HETATM   17  H   UNL     1       4.931  27.078  50.993  1.00  0.00     0.158 HD
ENDBRANCH  14  15
ENDBRANCH   8  10
BRANCH   9  18
HETATM   18  C   UNL     1       2.503  29.932  50.083  1.00  0.00     0.296 C 
BRANCH  18  19
HETATM   19  N   UNL     1       2.105  29.259  48.790  1.00  0.00    -0.066 N 
HETATM   20  H   UNL     1       2.984  29.112  48.269  1.00  0.00     0.280 HD
HETATM   21  C   UNL     1       1.430  27.921  48.985  1.00  0.00     0.235 C 
HETATM   22  C   UNL     1       1.220  27.266  47.626  1.00  0.00     0.028 C 
HETATM   23  C   UNL     1       0.425  28.160  46.681  1.00  0.00     0.003 C 
HETATM   24  C   UNL     1       1.054  29.544  46.568  1.00  0.00     0.028 C 
HETATM   25  C   UNL     1       1.266  30.181  47.933  1.00  0.00     0.235 C 
ENDBRANCH  18  19
ENDBRANCH   9  18
ENDBRANCH   2   5
BRANCH   1  26
HETATM   26  N   UNL     1       4.529  31.037  53.687  1.00  0.00    -0.184 NA
HETATM   27  C   UNL     1       3.778  29.996  53.856  1.00  0.00     0.150 C 
BRANCH  27  28
HETATM   28  C   UNL     1       4.337  28.748  54.414  1.00  0.00    -0.017 A 
HETATM   29  C   UNL     1       4.721  28.704  55.753  1.00  0.00     0.016 A 
HETATM   30  C   UNL     1       5.274  27.528  56.270  1.00  0.00     0.037 A 
HETATM   31  C   UNL     1       5.430  26.394  55.464  1.00  0.00     0.069 A 
HETATM   32  C   UNL     1       5.015  26.438  54.133  1.00  0.00     0.037 A 
HETATM   33  C   UNL     1       4.481  27.618  53.605  1.00  0.00     0.016 A 
BRANCH  31  34
HETATM   34  O   UNL     1       6.002  25.322  56.092  1.00  0.00    -0.347 OA
BRANCH  34  35
HETATM   35  C   UNL     1       7.410  25.153  55.945  1.00  0.00     0.216 C 
BRANCH  35  36
HETATM   36  C   UNL     1       7.655  23.939  55.081  1.00  0.00    -0.012 A 
HETATM   37  C   UNL     1       7.923  24.042  53.705  1.00  0.00     0.044 A 
HETATM   38 CL   UNL     1       7.984  25.570  52.899  1.00  0.00    -0.084 Cl
HETATM   39  C   UNL     1       8.144  22.898  52.932  1.00  0.00     0.048 A 
HETATM   40  C   UNL     1       8.113  21.643  53.533  1.00  0.00     0.035 A 
HETATM   41 CL   UNL     1       8.380  20.235  52.583  1.00  0.00    -0.084 Cl
HETATM   42  C   UNL     1       7.869  21.520  54.898  1.00  0.00     0.024 A 
HETATM   43  C   UNL     1       7.646  22.662  55.671  1.00  0.00     0.013 A 
ENDBRANCH  35  36
ENDBRANCH  34  35
ENDBRANCH  31  34
ENDBRANCH  27  28
ENDBRANCH   1  26
TORSDOF 10
ENDMDL
MODEL 8
REMARK VINA RESULT:      -8.9      2.531      4.861
REMARK  10 active torsions:
REMARK  status: ('A' for Active; 'I' for Inactive)
REMARK    1  A    between atoms: C_2  and  C_3 
REMARK    2  A    between atoms: N_4  and  N_5 
REMARK       I    between atoms: N_5  and  C_6 
REMARK    3  A    between atoms: C_6  and  C_7 
REMARK    4  A    between atoms: N_10  and  C_11 
REMARK    5  A    between atoms: C_15  and  N_16 
REMARK    6  A    between atoms: C_17  and  C_18 
REMARK    7  A    between atoms: C_18  and  N_19 
REMARK    8  A    between atoms: C_29  and  O_30 
REMARK    9  A    between atoms: O_30  and  C_31 
REMARK   10  A    between atoms: C_31  and  C_32 
ROOT
HETATM    1  N   UNL     1       2.866  32.569  57.198  1.00  0.00    -0.242 N 
HETATM    2  C   UNL     1       3.565  33.537  57.896  1.00  0.00     0.294 C 
HETATM    3  O   UNL     1       3.130  34.689  57.956  1.00  0.00    -0.264 OA
HETATM    4  H   UNL     1       1.987  32.847  56.774  1.00  0.00     0.192 HD
ENDROOT
BRANCH   2   5
HETATM    5  C   UNL     1       4.802  33.178  58.601  1.00  0.00     0.176 A 
HETATM    6  N   UNL     1       5.991  32.874  58.004  1.00  0.00    -0.124 NA
HETATM    7  N   UNL     1       6.875  32.580  58.939  1.00  0.00    -0.058 NA
HETATM    8  N   UNL     1       6.298  32.720  60.155  1.00  0.00    -0.191 N 
HETATM    9  C   UNL     1       4.966  33.092  59.982  1.00  0.00     0.102 A 
BRANCH   8  10
HETATM   10  C   UNL     1       7.027  32.544  61.356  1.00  0.00     0.229 A 
HETATM   11  N   UNL     1       7.016  33.494  62.296  1.00  0.00    -0.081 NA
HETATM   12  O   UNL     1       7.838  32.974  63.301  1.00  0.00    -0.103 OA
HETATM   13  N   UNL     1       8.356  31.741  62.936  1.00  0.00    -0.083 NA
HETATM   14  C   UNL     1       7.856  31.473  61.732  1.00  0.00     0.201 A 
BRANCH  14  15
HETATM   15  N   UNL     1       8.119  30.364  61.026  1.00  0.00    -0.379 N 
HETATM   16  H   UNL     1       8.451  30.422  60.067  1.00  0.00     0.158 HD
HETATM   17  H   UNL     1       8.056  29.420  61.403  1.00  0.00     0.158 HD
ENDBRANCH  14  15
ENDBRANCH   8  10
BRANCH   9  18
HETATM   18  C   UNL     1       3.978  33.247  61.075  1.00  0.00     0.296 C 
BRANCH  18  19
HETATM   19  N   UNL     1       4.218  34.429  61.984  1.00  0.00    -0.066 N 
HETATM   20  H   UNL     1       5.224  34.404  62.216  1.00  0.00     0.280 HD
HETATM   21  C   UNL     1       3.904  35.761  61.344  1.00  0.00     0.235 C 
HETATM   22  C   UNL     1       4.332  36.880  62.285  1.00  0.00     0.028 C 
HETATM   23  C   UNL     1       3.677  36.750  63.655  1.00  0.00     0.003 C 
HETATM   24  C   UNL     1       3.911  35.368  64.253  1.00  0.00     0.028 C 
HETATM   25  C   UNL     1       3.488  34.262  63.298  1.00  0.00     0.235 C 
ENDBRANCH  18  19
ENDBRANCH   9  18
ENDBRANCH   2   5
BRANCH   1  26
HETATM   26  N   UNL     1       3.331  31.309  57.012  1.00  0.00    -0.184 NA
HETATM   27  C   UNL     1       3.787  31.026  55.834  1.00  0.00     0.150 C 
BRANCH  27  28
HETATM   28  C   UNL     1       4.350  29.692  55.546  1.00  0.00    -0.017 A 
HETATM   29  C   UNL     1       4.783  29.391  54.255  1.00  0.00     0.016 A 
HETATM   30  C   UNL     1       5.290  28.117  53.982  1.00  0.00     0.037 A 
HETATM   31  C   UNL     1       5.384  27.149  54.990  1.00  0.00     0.069 A 
HETATM   32  C   UNL     1       4.976  27.470  56.284  1.00  0.00     0.037 A 
HETATM   33  C   UNL     1       4.447  28.735  56.560  1.00  0.00     0.016 A 
BRANCH  31  34
HETATM   34  O   UNL     1       5.879  25.943  54.578  1.00  0.00    -0.347 OA
BRANCH  34  35
HETATM   35  C   UNL     1       7.295  25.780  54.583  1.00  0.00     0.216 C 
BRANCH  35  36
HETATM   36  C   UNL     1       7.605  24.309  54.431  1.00  0.00    -0.012 A 
HETATM   37  C   UNL     1       7.823  23.717  53.175  1.00  0.00     0.044 A 
HETATM   38 CL   UNL     1       7.745  24.632  51.710  1.00  0.00    -0.084 Cl
HETATM   39  C   UNL     1       8.106  22.353  53.068  1.00  0.00     0.048 A 
HETATM   40  C   UNL     1       8.188  21.573  54.217  1.00  0.00     0.035 A 
HETATM   41 CL   UNL     1       8.532  19.893  54.085  1.00  0.00    -0.084 Cl
HETATM   42  C   UNL     1       7.994  22.143  55.472  1.00  0.00     0.024 A 
HETATM   43  C   UNL     1       7.709  23.506  55.581  1.00  0.00     0.013 A 
ENDBRANCH  35  36
ENDBRANCH  34  35
ENDBRANCH  31  34
ENDBRANCH  27  28
ENDBRANCH   1  26
TORSDOF 10
ENDMDL
MODEL 9
REMARK VINA RESULT:      -8.9      7.660     11.238
REMARK  10 active torsions:
REMARK  status: ('A' for Active; 'I' for Inactive)
REMARK    1  A    between atoms: C_2  and  C_3 
REMARK    2  A    between atoms: N_4  and  N_5 
REMARK       I    between atoms: N_5  and  C_6 
REMARK    3  A    between atoms: C_6  and  C_7 
REMARK    4  A    between atoms: N_10  and  C_11 
REMARK    5  A    between atoms: C_15  and  N_16 
REMARK    6  A    between atoms: C_17  and  C_18 
REMARK    7  A    between atoms: C_18  and  N_19 
REMARK    8  A    between atoms: C_29  and  O_30 
REMARK    9  A    between atoms: O_30  and  C_31 
REMARK   10  A    between atoms: C_31  and  C_32 
ROOT
HETATM    1  N   UNL     1       3.394  31.818  52.767  1.00  0.00    -0.242 N 
HETATM    2  C   UNL     1       2.688  31.718  51.582  1.00  0.00     0.294 C 
HETATM    3  O   UNL     1       1.976  32.652  51.207  1.00  0.00    -0.264 OA
HETATM    4  H   UNL     1       3.317  32.690  53.281  1.00  0.00     0.192 HD
ENDROOT
BRANCH   2   5
HETATM    5  C   UNL     1       2.822  30.514  50.752  1.00  0.00     0.176 A 
HETATM    6  N   UNL     1       1.859  29.560  50.583  1.00  0.00    -0.124 NA
HETATM    7  N   UNL     1       2.330  28.614  49.793  1.00  0.00    -0.058 NA
HETATM    8  N   UNL     1       3.584  28.944  49.404  1.00  0.00    -0.191 N 
HETATM    9  C   UNL     1       3.940  30.150  50.005  1.00  0.00     0.102 A 
BRANCH   8  10
HETATM   10  C   UNL     1       4.318  28.152  48.488  1.00  0.00     0.229 A 
HETATM   11  N   UNL     1       5.111  28.732  47.582  1.00  0.00    -0.081 NA
HETATM   12  O   UNL     1       5.645  27.651  46.871  1.00  0.00    -0.103 OA
HETATM   13  N   UNL     1       5.140  26.447  47.337  1.00  0.00    -0.083 NA
HETATM   14  C   UNL     1       4.317  26.755  48.337  1.00  0.00     0.201 A 
BRANCH  14  15
HETATM   15  N   UNL     1       3.622  25.861  49.055  1.00  0.00    -0.379 N 
HETATM   16  H   UNL     1       3.846  25.688  50.031  1.00  0.00     0.158 HD
HETATM   17  H   UNL     1       2.817  25.348  48.701  1.00  0.00     0.158 HD
ENDBRANCH  14  15
ENDBRANCH   8  10
BRANCH   9  18
HETATM   18  C   UNL     1       5.272  30.791  49.903  1.00  0.00     0.296 C 
BRANCH  18  19
HETATM   19  N   UNL     1       5.463  31.662  48.684  1.00  0.00    -0.066 N 
HETATM   20  H   UNL     1       5.938  31.068  47.986  1.00  0.00     0.280 HD
HETATM   21  C   UNL     1       4.169  32.165  48.088  1.00  0.00     0.235 C 
HETATM   22  C   UNL     1       4.470  32.893  46.784  1.00  0.00     0.028 C 
HETATM   23  C   UNL     1       5.470  34.025  46.983  1.00  0.00     0.003 C 
HETATM   24  C   UNL     1       6.734  33.532  47.678  1.00  0.00     0.028 C 
HETATM   25  C   UNL     1       6.417  32.800  48.973  1.00  0.00     0.235 C 
ENDBRANCH  18  19
ENDBRANCH   9  18
ENDBRANCH   2   5
BRANCH   1  26
HETATM   26  N   UNL     1       4.119  30.796  53.286  1.00  0.00    -0.184 NA
HETATM   27  C   UNL     1       3.491  29.976  54.067  1.00  0.00     0.150 C 
BRANCH  27  28
HETATM   28  C   UNL     1       4.186  28.811  54.649  1.00  0.00    -0.017 A 
HETATM   29  C   UNL     1       4.521  27.730  53.834  1.00  0.00     0.016 A 
HETATM   30  C   UNL     1       5.155  26.618  54.397  1.00  0.00     0.037 A 
HETATM   31  C   UNL     1       5.472  26.585  55.760  1.00  0.00     0.069 A 
HETATM   32  C   UNL     1       5.159  27.683  56.561  1.00  0.00     0.037 A 
HETATM   33  C   UNL     1       4.505  28.790  56.009  1.00  0.00     0.016 A 
BRANCH  31  34
HETATM   34  O   UNL     1       6.070  25.429  56.178  1.00  0.00    -0.347 OA
BRANCH  34  35
HETATM   35  C   UNL     1       7.467  25.288  55.929  1.00  0.00     0.216 C 
BRANCH  35  36
HETATM   36  C   UNL     1       7.678  24.047  55.095  1.00  0.00    -0.012 A 
HETATM   37  C   UNL     1       7.913  24.108  53.710  1.00  0.00     0.044 A 
HETATM   38 CL   UNL     1       7.971  25.611  52.860  1.00  0.00    -0.084 Cl
HETATM   39  C   UNL     1       8.103  22.940  52.966  1.00  0.00     0.048 A 
HETATM   40  C   UNL     1       8.073  21.703  53.603  1.00  0.00     0.035 A 
HETATM   41 CL   UNL     1       8.302  20.265  52.687  1.00  0.00    -0.084 Cl
HETATM   42  C   UNL     1       7.860  21.622  54.976  1.00  0.00     0.024 A 
HETATM   43  C   UNL     1       7.669  22.788  55.721  1.00  0.00     0.013 A 
ENDBRANCH  35  36
ENDBRANCH  34  35
ENDBRANCH  31  34
ENDBRANCH  27  28
ENDBRANCH   1  26
TORSDOF 10
ENDMDL
MODEL 10
REMARK VINA RESULT:      -8.9      8.175     12.642
REMARK  10 active torsions:
REMARK  status: ('A' for Active; 'I' for Inactive)
REMARK    1  A    between atoms: C_2  and  C_3 
REMARK    2  A    between atoms: N_4  and  N_5 
REMARK       I    between atoms: N_5  and  C_6 
REMARK    3  A    between atoms: C_6  and  C_7 
REMARK    4  A    between atoms: N_10  and  C_11 
REMARK    5  A    between atoms: C_15  and  N_16 
REMARK    6  A    between atoms: C_17  and  C_18 
REMARK    7  A    between atoms: C_18  and  N_19 
REMARK    8  A    between atoms: C_29  and  O_30 
REMARK    9  A    between atoms: O_30  and  C_31 
REMARK   10  A    between atoms: C_31  and  C_32 
ROOT
HETATM    1  N   UNL     1       5.254  25.961  50.854  1.00  0.00    -0.242 N 
HETATM    2  C   UNL     1       5.124  25.369  52.097  1.00  0.00     0.294 C 
HETATM    3  O   UNL     1       4.853  24.169  52.183  1.00  0.00    -0.264 OA
HETATM    4  H   UNL     1       5.143  25.364  50.041  1.00  0.00     0.192 HD
ENDROOT
BRANCH   2   5
HETATM    5  C   UNL     1       5.354  26.161  53.311  1.00  0.00     0.176 A 
HETATM    6  N   UNL     1       4.501  27.101  53.814  1.00  0.00    -0.124 NA
HETATM    7  N   UNL     1       5.037  27.628  54.898  1.00  0.00    -0.058 NA
HETATM    8  N   UNL     1       6.223  27.025  55.144  1.00  0.00    -0.191 N 
HETATM    9  C   UNL     1       6.468  26.087  54.144  1.00  0.00     0.102 A 
BRANCH   8  10
HETATM   10  C   UNL     1       6.997  27.332  56.290  1.00  0.00     0.229 A 
HETATM   11  N   UNL     1       7.145  26.428  57.264  1.00  0.00    -0.081 NA
HETATM   12  O   UNL     1       7.946  27.085  58.205  1.00  0.00    -0.103 OA
HETATM   13  N   UNL     1       8.236  28.379  57.799  1.00  0.00    -0.083 NA
HETATM   14  C   UNL     1       7.650  28.534  56.614  1.00  0.00     0.201 A 
BRANCH  14  15
HETATM   15  N   UNL     1       7.692  29.657  55.883  1.00  0.00    -0.379 N 
HETATM   16  H   UNL     1       6.987  30.380  55.996  1.00  0.00     0.158 HD
HETATM   17  H   UNL     1       8.434  29.879  55.221  1.00  0.00     0.158 HD
ENDBRANCH  14  15
ENDBRANCH   8  10
BRANCH   9  18
HETATM   18  C   UNL     1       7.711  25.291  54.010  1.00  0.00     0.296 C 
BRANCH  18  19
HETATM   19  N   UNL     1       7.522  23.796  54.120  1.00  0.00    -0.066 N 
HETATM   20  H   UNL     1       6.502  23.641  54.099  1.00  0.00     0.280 HD
HETATM   21  C   UNL     1       8.152  23.019  52.988  1.00  0.00     0.235 C 
HETATM   22  C   UNL     1       7.764  21.551  53.115  1.00  0.00     0.028 C 
HETATM   23  C   UNL     1       8.154  20.976  54.471  1.00  0.00     0.003 C 
HETATM   24  C   UNL     1       7.601  21.823  55.612  1.00  0.00     0.028 C 
HETATM   25  C   UNL     1       7.989  23.287  55.466  1.00  0.00     0.235 C 
ENDBRANCH  18  19
ENDBRANCH   9  18
ENDBRANCH   2   5
BRANCH   1  26
HETATM   26  N   UNL     1       5.457  27.291  50.685  1.00  0.00    -0.184 NA
HETATM   27  C   UNL     1       4.966  27.822  49.611  1.00  0.00     0.150 C 
BRANCH  27  28
HETATM   28  C   UNL     1       5.102  29.271  49.359  1.00  0.00    -0.017 A 
HETATM   29  C   UNL     1       4.658  29.804  48.149  1.00  0.00     0.016 A 
HETATM   30  C   UNL     1       4.814  31.172  47.904  1.00  0.00     0.037 A 
HETATM   31  C   UNL     1       5.394  32.012  48.863  1.00  0.00     0.069 A 
HETATM   32  C   UNL     1       5.808  31.474  50.081  1.00  0.00     0.037 A 
HETATM   33  C   UNL     1       5.675  30.103  50.324  1.00  0.00     0.016 A 
BRANCH  31  34
HETATM   34  O   UNL     1       5.503  33.320  48.483  1.00  0.00    -0.347 OA
BRANCH  34  35
HETATM   35  C   UNL     1       6.809  33.892  48.473  1.00  0.00     0.216 C 
BRANCH  35  36
HETATM   36  C   UNL     1       7.022  34.568  47.139  1.00  0.00    -0.012 A 
HETATM   37  C   UNL     1       8.178  35.316  46.856  1.00  0.00     0.044 A 
HETATM   38 CL   UNL     1       9.439  35.522  48.021  1.00  0.00    -0.084 Cl
HETATM   39  C   UNL     1       8.345  35.930  45.612  1.00  0.00     0.048 A 
HETATM   40  C   UNL     1       7.363  35.790  44.636  1.00  0.00     0.035 A 
HETATM   41 CL   UNL     1       7.565  36.549  43.106  1.00  0.00    -0.084 Cl
HETATM   42  C   UNL     1       6.219  35.037  44.889  1.00  0.00     0.024 A 
HETATM   43  C   UNL     1       6.051  34.424  46.132  1.00  0.00     0.013 A 
ENDBRANCH  35  36
ENDBRANCH  34  35
ENDBRANCH  31  34
ENDBRANCH  27  28
ENDBRANCH   1  26
TORSDOF 10
ENDMDL
