MODEL 1
REMARK VINA RESULT:      -8.7      0.000      0.000
REMARK  8 active torsions:
REMARK  status: ('A' for Active; 'I' for Inactive)
REMARK    1  A    between atoms: S_2  and  C_3 
REMARK    2  A    between atoms: C_4  and  N_5 
REMARK       I    between atoms: N_5  and  C_6 
REMARK    3  A    between atoms: C_6  and  C_7 
REMARK       I    between atoms: C_7  and  N_8 
REMARK    4  A    between atoms: N_8  and  C_9 
REMARK    5  A    between atoms: C_9  and  C_10 
REMARK    6  A    between atoms: C_10  and  C_11 
REMARK    7  A    between atoms: C_13  and  O_14 
REMARK    8  A    between atoms: N_20  and  C_21 
ROOT
HETATM    1  N   UNL     1       7.349  29.456  55.466  1.00  0.00    -0.302 N 
HETATM    2  C   UNL     1       8.351  28.589  56.015  1.00  0.00     0.315 C 
HETATM    3  O   UNL     1       9.511  28.946  55.897  1.00  0.00    -0.262 OA
HETATM    4  H   UNL     1       7.673  30.396  55.269  1.00  0.00     0.171 HD
ENDROOT
BRANCH   2   5
HETATM    5  C   UNL     1       7.985  27.331  56.841  1.00  0.00     0.309 C 
HETATM    6  N   UNL     1       7.758  26.204  56.070  1.00  0.00    -0.353 N 
HETATM    7  H   UNL     1       7.918  26.275  55.067  1.00  0.00     0.162 HD
HETATM    8  O   UNL     1       7.950  27.359  58.061  1.00  0.00    -0.262 OA
BRANCH   6   9
HETATM    9  C   UNL     1       7.611  24.891  56.673  1.00  0.00     0.128 C 
BRANCH   9  10
HETATM   10  C   UNL     1       8.833  24.007  56.423  1.00  0.00     0.058 C 
BRANCH  10  11
HETATM   11  C   UNL     1       8.599  23.027  55.303  1.00  0.00    -0.054 A 
HETATM   12  C   UNL     1       8.902  21.668  55.473  1.00  0.00     0.043 A 
HETATM   13  C   UNL     1       8.696  20.776  54.423  1.00  0.00     0.066 A 
HETATM   14  C   UNL     1       8.197  21.213  53.203  1.00  0.00     0.036 A 
HETATM   15  C   UNL     1       7.899  22.561  53.023  1.00  0.00     0.003 A 
HETATM   16  C   UNL     1       8.100  23.467  54.067  1.00  0.00     0.007 A 
BRANCH  13  17
HETATM   17  O   UNL     1       8.972  19.448  54.554  1.00  0.00    -0.361 OA
HETATM   18  H   UNL     1       9.370  19.125  53.729  1.00  0.00     0.217 HD
ENDBRANCH  13  17
ENDBRANCH  10  11
ENDBRANCH   9  10
ENDBRANCH   6   9
ENDBRANCH   2   5
BRANCH   1  19
HETATM   19  C   UNL     1       5.990  29.266  55.676  1.00  0.00     0.150 A 
HETATM   20  C   UNL     1       5.280  29.940  56.644  1.00  0.00     0.065 A 
HETATM   21  C   UNL     1       3.970  29.456  56.541  1.00  0.00     0.161 A 
HETATM   22  N   UNL     1       3.840  28.538  55.584  1.00  0.00    -0.176 NA
HETATM   23  N   UNL     1       5.079  28.437  55.016  1.00  0.00    -0.216 N 
BRANCH  20  24
HETATM   24  S   UNL     1       5.907  31.112  57.772  1.00  0.00    -0.129 SA
HETATM   25  C   UNL     1       5.052  32.614  57.235  1.00  0.00     0.096 C 
ENDBRANCH  20  24
BRANCH  23  26
HETATM   26  C   UNL     1       5.264  27.627  53.856  1.00  0.00     0.060 A 
HETATM   27  C   UNL     1       5.571  28.175  52.604  1.00  0.00     0.031 A 
HETATM   28  C   UNL     1       5.725  27.341  51.491  1.00  0.00     0.002 A 
HETATM   29  C   UNL     1       5.569  25.963  51.614  1.00  0.00     0.000 A 
HETATM   30  C   UNL     1       5.253  25.410  52.851  1.00  0.00     0.002 A 
HETATM   31  C   UNL     1       5.100  26.235  53.968  1.00  0.00     0.031 A 
ENDBRANCH  23  26
ENDBRANCH   1  19
TORSDOF 8
ENDMDL
MODEL 2
REMARK VINA RESULT:      -8.6      2.166      4.429
REMARK  8 active torsions:
REMARK  status: ('A' for Active; 'I' for Inactive)
REMARK    1  A    between atoms: S_2  and  C_3 
REMARK    2  A    between atoms: C_4  and  N_5 
REMARK       I    between atoms: N_5  and  C_6 
REMARK    3  A    between atoms: C_6  and  C_7 
REMARK       I    between atoms: C_7  and  N_8 
REMARK    4  A    between atoms: N_8  and  C_9 
REMARK    5  A    between atoms: C_9  and  C_10 
REMARK    6  A    between atoms: C_10  and  C_11 
REMARK    7  A    between atoms: C_13  and  O_14 
REMARK    8  A    between atoms: N_20  and  C_21 
ROOT
HETATM    1  N   UNL     1       5.130  26.669  55.896  1.00  0.00    -0.302 N 
HETATM    2  C   UNL     1       5.373  25.873  57.065  1.00  0.00     0.315 C 
HETATM    3  O   UNL     1       4.395  25.409  57.626  1.00  0.00    -0.262 OA
HETATM    4  H   UNL     1       4.204  26.554  55.499  1.00  0.00     0.171 HD
ENDROOT
BRANCH   2   5
HETATM    5  C   UNL     1       6.805  25.499  57.519  1.00  0.00     0.309 C 
HETATM    6  N   UNL     1       7.219  24.250  57.087  1.00  0.00    -0.353 N 
HETATM    7  H   UNL     1       6.598  23.733  56.468  1.00  0.00     0.162 HD
HETATM    8  O   UNL     1       7.493  26.276  58.162  1.00  0.00    -0.262 OA
BRANCH   6   9
HETATM    9  C   UNL     1       8.597  23.817  57.234  1.00  0.00     0.128 C 
BRANCH   9  10
HETATM   10  C   UNL     1       9.353  23.855  55.907  1.00  0.00     0.058 C 
BRANCH  10  11
HETATM   11  C   UNL     1       8.914  22.754  54.977  1.00  0.00    -0.054 A 
HETATM   12  C   UNL     1       9.148  21.411  55.306  1.00  0.00     0.043 A 
HETATM   13  C   UNL     1       8.751  20.403  54.429  1.00  0.00     0.066 A 
HETATM   14  C   UNL     1       8.129  20.709  53.225  1.00  0.00     0.036 A 
HETATM   15  C   UNL     1       7.899  22.041  52.888  1.00  0.00     0.003 A 
HETATM   16  C   UNL     1       8.291  23.060  53.758  1.00  0.00     0.007 A 
BRANCH  13  17
HETATM   17  O   UNL     1       8.955  19.087  54.719  1.00  0.00    -0.361 OA
HETATM   18  H   UNL     1       9.758  18.785  54.264  1.00  0.00     0.217 HD
ENDBRANCH  13  17
ENDBRANCH  10  11
ENDBRANCH   9  10
ENDBRANCH   6   9
ENDBRANCH   2   5
BRANCH   1  19
HETATM   19  C   UNL     1       6.146  27.114  55.062  1.00  0.00     0.150 A 
HETATM   20  C   UNL     1       6.367  26.595  53.807  1.00  0.00     0.065 A 
HETATM   21  C   UNL     1       7.477  27.291  53.312  1.00  0.00     0.161 A 
HETATM   22  N   UNL     1       7.941  28.191  54.179  1.00  0.00    -0.176 NA
HETATM   23  N   UNL     1       7.102  28.115  55.255  1.00  0.00    -0.216 N 
BRANCH  20  24
HETATM   24  S   UNL     1       5.471  25.314  53.035  1.00  0.00    -0.129 SA
HETATM   25  C   UNL     1       5.431  25.893  51.320  1.00  0.00     0.096 C 
ENDBRANCH  20  24
BRANCH  23  26
HETATM   26  C   UNL     1       7.236  29.048  56.326  1.00  0.00     0.060 A 
HETATM   27  C   UNL     1       6.161  29.826  56.778  1.00  0.00     0.031 A 
HETATM   28  C   UNL     1       6.345  30.741  57.820  1.00  0.00     0.002 A 
HETATM   29  C   UNL     1       7.597  30.895  58.411  1.00  0.00     0.000 A 
HETATM   30  C   UNL     1       8.673  30.137  57.961  1.00  0.00     0.002 A 
HETATM   31  C   UNL     1       8.497  29.218  56.924  1.00  0.00     0.031 A 
ENDBRANCH  23  26
ENDBRANCH   1  19
TORSDOF 8
ENDMDL
MODEL 3
REMARK VINA RESULT:      -8.4      2.895      7.289
REMARK  8 active torsions:
REMARK  status: ('A' for Active; 'I' for Inactive)
REMARK    1  A    between atoms: S_2  and  C_3 
REMARK    2  A    between atoms: C_4  and  N_5 
REMARK       I    between atoms: N_5  and  C_6 
REMARK    3  A    between atoms: C_6  and  C_7 
REMARK       I    between atoms: C_7  and  N_8 
REMARK    4  A    between atoms: N_8  and  C_9 
REMARK    5  A    between atoms: C_9  and  C_10 
REMARK    6  A    between atoms: C_10  and  C_11 
REMARK    7  A    between atoms: C_13  and  O_14 
REMARK    8  A    between atoms: N_20  and  C_21 
ROOT
HETATM    1  N   UNL     1       5.706  25.032  55.175  1.00  0.00    -0.302 N 
HETATM    2  C   UNL     1       6.051  25.407  56.517  1.00  0.00     0.315 C 
HETATM    3  O   UNL     1       5.225  25.171  57.382  1.00  0.00    -0.262 OA
HETATM    4  H   UNL     1       4.934  24.379  55.111  1.00  0.00     0.171 HD
ENDROOT
BRANCH   2   5
HETATM    5  C   UNL     1       7.454  25.952  56.881  1.00  0.00     0.309 C 
HETATM    6  N   UNL     1       7.565  27.327  56.763  1.00  0.00    -0.353 N 
HETATM    7  H   UNL     1       6.726  27.852  56.527  1.00  0.00     0.162 HD
HETATM    8  O   UNL     1       8.343  25.213  57.273  1.00  0.00    -0.262 OA
BRANCH   6   9
HETATM    9  C   UNL     1       8.731  28.037  57.259  1.00  0.00     0.128 C 
BRANCH   9  10
HETATM   10  C   UNL     1       8.702  29.518  56.881  1.00  0.00     0.058 C 
BRANCH  10  11
HETATM   11  C   UNL     1       8.760  30.410  58.094  1.00  0.00    -0.054 A 
HETATM   12  C   UNL     1       7.657  30.512  58.954  1.00  0.00     0.043 A 
HETATM   13  C   UNL     1       7.719  31.354  60.063  1.00  0.00     0.066 A 
HETATM   14  C   UNL     1       8.859  32.102  60.328  1.00  0.00     0.036 A 
HETATM   15  C   UNL     1       9.957  32.011  59.475  1.00  0.00     0.003 A 
HETATM   16  C   UNL     1       9.908  31.170  58.361  1.00  0.00     0.007 A 
BRANCH  13  17
HETATM   17  O   UNL     1       6.670  31.474  60.924  1.00  0.00    -0.361 OA
HETATM   18  H   UNL     1       6.219  30.616  60.993  1.00  0.00     0.217 HD
ENDBRANCH  13  17
ENDBRANCH  10  11
ENDBRANCH   9  10
ENDBRANCH   6   9
ENDBRANCH   2   5
BRANCH   1  19
HETATM   19  C   UNL     1       6.610  25.080  54.123  1.00  0.00     0.150 A 
HETATM   20  C   UNL     1       6.850  26.221  53.392  1.00  0.00     0.065 A 
HETATM   21  C   UNL     1       7.797  25.848  52.430  1.00  0.00     0.161 A 
HETATM   22  N   UNL     1       8.144  24.565  52.529  1.00  0.00    -0.176 NA
HETATM   23  N   UNL     1       7.441  24.086  53.598  1.00  0.00    -0.216 N 
BRANCH  20  24
HETATM   24  S   UNL     1       6.092  27.776  53.607  1.00  0.00    -0.129 SA
HETATM   25  C   UNL     1       4.440  27.460  52.937  1.00  0.00     0.096 C 
ENDBRANCH  20  24
BRANCH  23  26
HETATM   26  C   UNL     1       7.680  22.761  54.068  1.00  0.00     0.060 A 
HETATM   27  C   UNL     1       7.708  22.446  55.434  1.00  0.00     0.031 A 
HETATM   28  C   UNL     1       7.965  21.135  55.848  1.00  0.00     0.002 A 
HETATM   29  C   UNL     1       8.202  20.132  54.910  1.00  0.00     0.000 A 
HETATM   30  C   UNL     1       8.188  20.437  53.553  1.00  0.00     0.002 A 
HETATM   31  C   UNL     1       7.930  21.743  53.131  1.00  0.00     0.031 A 
ENDBRANCH  23  26
ENDBRANCH   1  19
TORSDOF 8
ENDMDL
MODEL 4
REMARK VINA RESULT:      -8.2      1.861      2.699
REMARK  8 active torsions:
REMARK  status: ('A' for Active; 'I' for Inactive)
REMARK    1  A    between atoms: S_2  and  C_3 
REMARK    2  A    between atoms: C_4  and  N_5 
REMARK       I    between atoms: N_5  and  C_6 
REMARK    3  A    between atoms: C_6  and  C_7 
REMARK       I    between atoms: C_7  and  N_8 
REMARK    4  A    between atoms: N_8  and  C_9 
REMARK    5  A    between atoms: C_9  and  C_10 
REMARK    6  A    between atoms: C_10  and  C_11 
REMARK    7  A    between atoms: C_13  and  O_14 
REMARK    8  A    between atoms: N_20  and  C_21 
ROOT
HETATM    1  N   UNL     1       6.214  28.632  56.291  1.00  0.00    -0.302 N 
HETATM    2  C   UNL     1       5.859  27.497  57.095  1.00  0.00     0.315 C 
HETATM    3  O   UNL     1       4.690  27.405  57.428  1.00  0.00    -0.262 OA
HETATM    4  H   UNL     1       5.425  29.101  55.861  1.00  0.00     0.171 HD
ENDROOT
BRANCH   2   5
HETATM    5  C   UNL     1       6.870  26.367  57.410  1.00  0.00     0.309 C 
HETATM    6  N   UNL     1       6.608  25.183  56.743  1.00  0.00    -0.353 N 
HETATM    7  H   UNL     1       5.845  25.177  56.069  1.00  0.00     0.162 HD
HETATM    8  O   UNL     1       7.822  26.553  58.151  1.00  0.00    -0.262 OA
BRANCH   6   9
HETATM    9  C   UNL     1       7.558  24.085  56.749  1.00  0.00     0.128 C 
BRANCH   9  10
HETATM   10  C   UNL     1       8.422  24.070  55.488  1.00  0.00     0.058 C 
BRANCH  10  11
HETATM   11  C   UNL     1       8.337  22.753  54.761  1.00  0.00    -0.054 A 
HETATM   12  C   UNL     1       8.616  21.553  55.431  1.00  0.00     0.043 A 
HETATM   13  C   UNL     1       8.549  20.344  54.742  1.00  0.00     0.066 A 
HETATM   14  C   UNL     1       8.214  20.308  53.395  1.00  0.00     0.036 A 
HETATM   15  C   UNL     1       7.940  21.496  52.721  1.00  0.00     0.003 A 
HETATM   16  C   UNL     1       8.003  22.715  53.399  1.00  0.00     0.007 A 
BRANCH  13  17
HETATM   17  O   UNL     1       8.807  19.158  55.361  1.00  0.00    -0.361 OA
HETATM   18  H   UNL     1       8.424  19.177  56.253  1.00  0.00     0.217 HD
ENDBRANCH  13  17
ENDBRANCH  10  11
ENDBRANCH   9  10
ENDBRANCH   6   9
ENDBRANCH   2   5
BRANCH   1  19
HETATM   19  C   UNL     1       7.461  28.775  55.698  1.00  0.00     0.150 A 
HETATM   20  C   UNL     1       8.530  29.364  56.334  1.00  0.00     0.065 A 
HETATM   21  C   UNL     1       9.576  29.328  55.403  1.00  0.00     0.161 A 
HETATM   22  N   UNL     1       9.213  28.762  54.253  1.00  0.00    -0.176 NA
HETATM   23  N   UNL     1       7.913  28.383  54.435  1.00  0.00    -0.216 N 
BRANCH  20  24
HETATM   24  S   UNL     1       8.545  30.042  57.941  1.00  0.00    -0.129 SA
HETATM   25  C   UNL     1      10.174  30.830  57.977  1.00  0.00     0.096 C 
ENDBRANCH  20  24
BRANCH  23  26
HETATM   26  C   UNL     1       7.249  27.618  53.431  1.00  0.00     0.060 A 
HETATM   27  C   UNL     1       7.681  26.337  53.060  1.00  0.00     0.031 A 
HETATM   28  C   UNL     1       7.008  25.632  52.056  1.00  0.00     0.002 A 
HETATM   29  C   UNL     1       5.910  26.198  51.411  1.00  0.00     0.000 A 
HETATM   30  C   UNL     1       5.481  27.473  51.765  1.00  0.00     0.002 A 
HETATM   31  C   UNL     1       6.145  28.182  52.768  1.00  0.00     0.031 A 
ENDBRANCH  23  26
ENDBRANCH   1  19
TORSDOF 8
ENDMDL
MODEL 5
REMARK VINA RESULT:      -8.0      2.938      5.850
REMARK  8 active torsions:
REMARK  status: ('A' for Active; 'I' for Inactive)
REMARK    1  A    between atoms: S_2  and  C_3 
REMARK    2  A    between atoms: C_4  and  N_5 
REMARK       I    between atoms: N_5  and  C_6 
REMARK    3  A    between atoms: C_6  and  C_7 
REMARK       I    between atoms: C_7  and  N_8 
REMARK    4  A    between atoms: N_8  and  C_9 
REMARK    5  A    between atoms: C_9  and  C_10 
REMARK    6  A    between atoms: C_10  and  C_11 
REMARK    7  A    between atoms: C_13  and  O_14 
REMARK    8  A    between atoms: N_20  and  C_21 
ROOT
HETATM    1  N   UNL     1       7.800  27.419  55.586  1.00  0.00    -0.302 N 
HETATM    2  C   UNL     1       7.788  28.032  54.289  1.00  0.00     0.315 C 
HETATM    3  O   UNL     1       8.821  28.569  53.925  1.00  0.00    -0.262 OA
HETATM    4  H   UNL     1       8.728  27.260  55.963  1.00  0.00     0.171 HD
ENDROOT
BRANCH   2   5
HETATM    5  C   UNL     1       6.577  27.904  53.332  1.00  0.00     0.309 C 
HETATM    6  N   UNL     1       5.881  29.087  53.152  1.00  0.00    -0.353 N 
HETATM    7  H   UNL     1       6.253  29.927  53.590  1.00  0.00     0.162 HD
HETATM    8  O   UNL     1       6.317  26.851  52.772  1.00  0.00    -0.262 OA
BRANCH   6   9
HETATM    9  C   UNL     1       4.852  29.212  52.136  1.00  0.00     0.128 C 
BRANCH   9  10
HETATM   10  C   UNL     1       5.429  29.644  50.788  1.00  0.00     0.058 C 
BRANCH  10  11
HETATM   11  C   UNL     1       5.165  28.626  49.709  1.00  0.00    -0.054 A 
HETATM   12  C   UNL     1       4.480  27.438  50.006  1.00  0.00     0.043 A 
HETATM   13  C   UNL     1       4.257  26.499  49.001  1.00  0.00     0.066 A 
HETATM   14  C   UNL     1       4.708  26.718  47.706  1.00  0.00     0.036 A 
HETATM   15  C   UNL     1       5.393  27.892  47.404  1.00  0.00     0.003 A 
HETATM   16  C   UNL     1       5.623  28.843  48.401  1.00  0.00     0.007 A 
BRANCH  13  17
HETATM   17  O   UNL     1       3.591  25.336  49.250  1.00  0.00    -0.361 OA
HETATM   18  H   UNL     1       3.387  25.286  50.199  1.00  0.00     0.217 HD
ENDBRANCH  13  17
ENDBRANCH  10  11
ENDBRANCH   9  10
ENDBRANCH   6   9
ENDBRANCH   2   5
BRANCH   1  19
HETATM   19  C   UNL     1       6.761  26.628  56.055  1.00  0.00     0.150 A 
HETATM   20  C   UNL     1       5.688  27.136  56.752  1.00  0.00     0.065 A 
HETATM   21  C   UNL     1       4.889  26.026  57.054  1.00  0.00     0.161 A 
HETATM   22  N   UNL     1       5.403  24.887  56.590  1.00  0.00    -0.176 NA
HETATM   23  N   UNL     1       6.546  25.251  55.938  1.00  0.00    -0.216 N 
BRANCH  20  24
HETATM   24  S   UNL     1       5.423  28.802  57.191  1.00  0.00    -0.129 SA
HETATM   25  C   UNL     1       4.000  29.219  56.154  1.00  0.00     0.096 C 
ENDBRANCH  20  24
BRANCH  23  26
HETATM   26  C   UNL     1       7.284  24.278  55.202  1.00  0.00     0.060 A 
HETATM   27  C   UNL     1       6.901  23.863  53.919  1.00  0.00     0.031 A 
HETATM   28  C   UNL     1       7.646  22.890  53.243  1.00  0.00     0.002 A 
HETATM   29  C   UNL     1       8.769  22.321  53.839  1.00  0.00     0.000 A 
HETATM   30  C   UNL     1       9.151  22.718  55.117  1.00  0.00     0.002 A 
HETATM   31  C   UNL     1       8.414  23.690  55.797  1.00  0.00     0.031 A 
ENDBRANCH  23  26
ENDBRANCH   1  19
TORSDOF 8
ENDMDL
MODEL 6
REMARK VINA RESULT:      -7.9      6.767     10.622
REMARK  8 active torsions:
REMARK  status: ('A' for Active; 'I' for Inactive)
REMARK    1  A    between atoms: S_2  and  C_3 
REMARK    2  A    between atoms: C_4  and  N_5 
REMARK       I    between atoms: N_5  and  C_6 
REMARK    3  A    between atoms: C_6  and  C_7 
REMARK       I    between atoms: C_7  and  N_8 
REMARK    4  A    between atoms: N_8  and  C_9 
REMARK    5  A    between atoms: C_9  and  C_10 
REMARK    6  A    between atoms: C_10  and  C_11 
REMARK    7  A    between atoms: C_13  and  O_14 
REMARK    8  A    between atoms: N_20  and  C_21 
ROOT
HETATM    1  N   UNL     1       4.307  32.712  63.172  1.00  0.00    -0.302 N 
HETATM    2  C   UNL     1       5.159  31.559  63.115  1.00  0.00     0.315 C 
HETATM    3  O   UNL     1       4.618  30.471  63.223  1.00  0.00    -0.262 OA
HETATM    4  H   UNL     1       3.323  32.510  63.032  1.00  0.00     0.171 HD
ENDROOT
BRANCH   2   5
HETATM    5  C   UNL     1       6.669  31.669  62.793  1.00  0.00     0.309 C 
HETATM    6  N   UNL     1       6.997  31.267  61.510  1.00  0.00    -0.353 N 
HETATM    7  H   UNL     1       6.236  31.012  60.884  1.00  0.00     0.162 HD
HETATM    8  O   UNL     1       7.463  32.115  63.607  1.00  0.00    -0.262 OA
BRANCH   6   9
HETATM    9  C   UNL     1       8.321  31.496  60.960  1.00  0.00     0.128 C 
BRANCH   9  10
HETATM   10  C   UNL     1       8.266  31.911  59.491  1.00  0.00     0.058 C 
BRANCH  10  11
HETATM   11  C   UNL     1       8.866  30.867  58.586  1.00  0.00    -0.054 A 
HETATM   12  C   UNL     1      10.231  30.907  58.263  1.00  0.00     0.043 A 
HETATM   13  C   UNL     1      10.769  29.943  57.413  1.00  0.00     0.066 A 
HETATM   14  C   UNL     1       9.972  28.942  56.873  1.00  0.00     0.036 A 
HETATM   15  C   UNL     1       8.615  28.899  57.184  1.00  0.00     0.003 A 
HETATM   16  C   UNL     1       8.063  29.858  58.035  1.00  0.00     0.007 A 
BRANCH  13  17
HETATM   17  O   UNL     1      12.091  29.946  57.082  1.00  0.00    -0.361 OA
HETATM   18  H   UNL     1      12.285  29.157  56.549  1.00  0.00     0.217 HD
ENDBRANCH  13  17
ENDBRANCH  10  11
ENDBRANCH   9  10
ENDBRANCH   6   9
ENDBRANCH   2   5
BRANCH   1  19
HETATM   19  C   UNL     1       4.756  33.995  62.893  1.00  0.00     0.150 A 
HETATM   20  C   UNL     1       4.730  34.540  61.629  1.00  0.00     0.065 A 
HETATM   21  C   UNL     1       5.279  35.821  61.771  1.00  0.00     0.161 A 
HETATM   22  N   UNL     1       5.634  36.086  63.027  1.00  0.00    -0.176 NA
HETATM   23  N   UNL     1       5.283  34.974  63.740  1.00  0.00    -0.216 N 
BRANCH  20  24
HETATM   24  S   UNL     1       4.170  33.766  60.170  1.00  0.00    -0.129 SA
HETATM   25  C   UNL     1       2.421  34.233  60.173  1.00  0.00     0.096 C 
ENDBRANCH  20  24
BRANCH  23  26
HETATM   26  C   UNL     1       5.405  34.974  65.161  1.00  0.00     0.060 A 
HETATM   27  C   UNL     1       6.356  34.192  65.829  1.00  0.00     0.031 A 
HETATM   28  C   UNL     1       6.426  34.211  67.227  1.00  0.00     0.002 A 
HETATM   29  C   UNL     1       5.547  34.999  67.967  1.00  0.00     0.000 A 
HETATM   30  C   UNL     1       4.591  35.770  67.313  1.00  0.00     0.002 A 
HETATM   31  C   UNL     1       4.517  35.759  65.918  1.00  0.00     0.031 A 
ENDBRANCH  23  26
ENDBRANCH   1  19
TORSDOF 8
ENDMDL
MODEL 7
REMARK VINA RESULT:      -7.9      2.243      4.430
REMARK  8 active torsions:
REMARK  status: ('A' for Active; 'I' for Inactive)
REMARK    1  A    between atoms: S_2  and  C_3 
REMARK    2  A    between atoms: C_4  and  N_5 
REMARK       I    between atoms: N_5  and  C_6 
REMARK    3  A    between atoms: C_6  and  C_7 
REMARK       I    between atoms: C_7  and  N_8 
REMARK    4  A    between atoms: N_8  and  C_9 
REMARK    5  A    between atoms: C_9  and  C_10 
REMARK    6  A    between atoms: C_10  and  C_11 
REMARK    7  A    between atoms: C_13  and  O_14 
REMARK    8  A    between atoms: N_20  and  C_21 
ROOT
HETATM    1  N   UNL     1       7.283  29.855  55.652  1.00  0.00    -0.302 N 
HETATM    2  C   UNL     1       8.102  28.678  55.612  1.00  0.00     0.315 C 
HETATM    3  O   UNL     1       9.126  28.743  54.952  1.00  0.00    -0.262 OA
HETATM    4  H   UNL     1       7.755  30.701  55.351  1.00  0.00     0.171 HD
ENDROOT
BRANCH   2   5
HETATM    5  C   UNL     1       7.787  27.429  56.471  1.00  0.00     0.309 C 
HETATM    6  N   UNL     1       7.325  26.349  55.738  1.00  0.00    -0.353 N 
HETATM    7  H   UNL     1       7.303  26.439  54.725  1.00  0.00     0.162 HD
HETATM    8  O   UNL     1       7.980  27.421  57.677  1.00  0.00    -0.262 OA
BRANCH   6   9
HETATM    9  C   UNL     1       7.179  25.035  56.338  1.00  0.00     0.128 C 
BRANCH   9  10
HETATM   10  C   UNL     1       8.457  24.206  56.217  1.00  0.00     0.058 C 
BRANCH  10  11
HETATM   11  C   UNL     1       8.329  23.119  55.182  1.00  0.00    -0.054 A 
HETATM   12  C   UNL     1       8.708  21.803  55.483  1.00  0.00     0.043 A 
HETATM   13  C   UNL     1       8.599  20.811  54.510  1.00  0.00     0.066 A 
HETATM   14  C   UNL     1       8.124  21.107  53.240  1.00  0.00     0.036 A 
HETATM   15  C   UNL     1       7.750  22.413  52.930  1.00  0.00     0.003 A 
HETATM   16  C   UNL     1       7.854  23.417  53.896  1.00  0.00     0.007 A 
BRANCH  13  17
HETATM   17  O   UNL     1       8.951  19.520  54.769  1.00  0.00    -0.361 OA
HETATM   18  H   UNL     1       8.944  19.018  53.937  1.00  0.00     0.217 HD
ENDBRANCH  13  17
ENDBRANCH  10  11
ENDBRANCH   9  10
ENDBRANCH   6   9
ENDBRANCH   2   5
BRANCH   1  19
HETATM   19  C   UNL     1       6.189  29.983  56.495  1.00  0.00     0.150 A 
HETATM   20  C   UNL     1       4.937  29.506  56.177  1.00  0.00     0.065 A 
HETATM   21  C   UNL     1       4.127  29.848  57.266  1.00  0.00     0.161 A 
HETATM   22  N   UNL     1       4.798  30.497  58.216  1.00  0.00    -0.176 NA
HETATM   23  N   UNL     1       6.086  30.557  57.766  1.00  0.00    -0.216 N 
BRANCH  20  24
HETATM   24  S   UNL     1       4.475  28.690  54.707  1.00  0.00    -0.129 SA
HETATM   25  C   UNL     1       3.876  30.076  53.707  1.00  0.00     0.096 C 
ENDBRANCH  20  24
BRANCH  23  26
HETATM   26  C   UNL     1       7.111  31.079  58.611  1.00  0.00     0.060 A 
HETATM   27  C   UNL     1       6.830  31.939  59.681  1.00  0.00     0.031 A 
HETATM   28  C   UNL     1       7.871  32.441  60.470  1.00  0.00     0.002 A 
HETATM   29  C   UNL     1       9.193  32.096  60.198  1.00  0.00     0.000 A 
HETATM   30  C   UNL     1       9.482  31.252  59.131  1.00  0.00     0.002 A 
HETATM   31  C   UNL     1       8.449  30.745  58.340  1.00  0.00     0.031 A 
ENDBRANCH  23  26
ENDBRANCH   1  19
TORSDOF 8
ENDMDL
MODEL 8
REMARK VINA RESULT:      -7.8      2.327      3.738
REMARK  8 active torsions:
REMARK  status: ('A' for Active; 'I' for Inactive)
REMARK    1  A    between atoms: S_2  and  C_3 
REMARK    2  A    between atoms: C_4  and  N_5 
REMARK       I    between atoms: N_5  and  C_6 
REMARK    3  A    between atoms: C_6  and  C_7 
REMARK       I    between atoms: C_7  and  N_8 
REMARK    4  A    between atoms: N_8  and  C_9 
REMARK    5  A    between atoms: C_9  and  C_10 
REMARK    6  A    between atoms: C_10  and  C_11 
REMARK    7  A    between atoms: C_13  and  O_14 
REMARK    8  A    between atoms: N_20  and  C_21 
ROOT
HETATM    1  N   UNL     1       3.952  28.813  54.459  1.00  0.00    -0.302 N 
HETATM    2  C   UNL     1       4.476  28.015  53.388  1.00  0.00     0.315 C 
HETATM    3  O   UNL     1       3.673  27.600  52.569  1.00  0.00    -0.262 OA
HETATM    4  H   UNL     1       3.019  29.172  54.294  1.00  0.00     0.171 HD
ENDROOT
BRANCH   2   5
HETATM    5  C   UNL     1       5.997  27.804  53.190  1.00  0.00     0.309 C 
HETATM    6  N   UNL     1       6.427  26.524  53.499  1.00  0.00    -0.353 N 
HETATM    7  H   UNL     1       5.721  25.835  53.749  1.00  0.00     0.162 HD
HETATM    8  O   UNL     1       6.713  28.694  52.760  1.00  0.00    -0.262 OA
BRANCH   6   9
HETATM    9  C   UNL     1       7.771  26.080  53.178  1.00  0.00     0.128 C 
BRANCH   9  10
HETATM   10  C   UNL     1       7.766  24.802  52.339  1.00  0.00     0.058 C 
BRANCH  10  11
HETATM   11  C   UNL     1       8.009  23.575  53.178  1.00  0.00    -0.054 A 
HETATM   12  C   UNL     1       7.972  22.299  52.598  1.00  0.00     0.043 A 
HETATM   13  C   UNL     1       8.182  21.172  53.390  1.00  0.00     0.066 A 
HETATM   14  C   UNL     1       8.425  21.292  54.752  1.00  0.00     0.036 A 
HETATM   15  C   UNL     1       8.458  22.555  55.337  1.00  0.00     0.003 A 
HETATM   16  C   UNL     1       8.249  23.693  54.555  1.00  0.00     0.007 A 
BRANCH  13  17
HETATM   17  O   UNL     1       8.160  19.916  52.860  1.00  0.00    -0.361 OA
HETATM   18  H   UNL     1       8.839  19.853  52.168  1.00  0.00     0.217 HD
ENDBRANCH  13  17
ENDBRANCH  10  11
ENDBRANCH   9  10
ENDBRANCH   6   9
ENDBRANCH   2   5
BRANCH   1  19
HETATM   19  C   UNL     1       4.762  29.492  55.359  1.00  0.00     0.150 A 
HETATM   20  C   UNL     1       4.758  30.862  55.485  1.00  0.00     0.065 A 
HETATM   21  C   UNL     1       5.713  31.143  56.470  1.00  0.00     0.161 A 
HETATM   22  N   UNL     1       6.293  30.041  56.945  1.00  0.00    -0.176 NA
HETATM   23  N   UNL     1       5.687  29.007  56.289  1.00  0.00    -0.216 N 
BRANCH  20  24
HETATM   24  S   UNL     1       3.792  31.991  54.573  1.00  0.00    -0.129 SA
HETATM   25  C   UNL     1       2.208  31.886  55.444  1.00  0.00     0.096 C 
ENDBRANCH  20  24
BRANCH  23  26
HETATM   26  C   UNL     1       5.982  27.661  56.658  1.00  0.00     0.060 A 
HETATM   27  C   UNL     1       4.984  26.684  56.780  1.00  0.00     0.031 A 
HETATM   28  C   UNL     1       5.320  25.381  57.164  1.00  0.00     0.002 A 
HETATM   29  C   UNL     1       6.644  25.044  57.435  1.00  0.00     0.000 A 
HETATM   30  C   UNL     1       7.640  26.010  57.328  1.00  0.00     0.002 A 
HETATM   31  C   UNL     1       7.314  27.312  56.943  1.00  0.00     0.031 A 
ENDBRANCH  23  26
ENDBRANCH   1  19
TORSDOF 8
ENDMDL
MODEL 9
REMARK VINA RESULT:      -7.6      6.254     10.255
REMARK  8 active torsions:
REMARK  status: ('A' for Active; 'I' for Inactive)
REMARK    1  A    between atoms: S_2  and  C_3 
REMARK    2  A    between atoms: C_4  and  N_5 
REMARK       I    between atoms: N_5  and  C_6 
REMARK    3  A    between atoms: C_6  and  C_7 
REMARK       I    between atoms: C_7  and  N_8 
REMARK    4  A    between atoms: N_8  and  C_9 
REMARK    5  A    between atoms: C_9  and  C_10 
REMARK    6  A    between atoms: C_10  and  C_11 
REMARK    7  A    between atoms: C_13  and  O_14 
REMARK    8  A    between atoms: N_20  and  C_21 
ROOT
HETATM    1  N   UNL     1       3.787  32.282  62.528  1.00  0.00    -0.302 N 
HETATM    2  C   UNL     1       4.868  31.456  62.985  1.00  0.00     0.315 C 
HETATM    3  O   UNL     1       4.581  30.328  63.348  1.00  0.00    -0.262 OA
HETATM    4  H   UNL     1       2.940  31.773  62.303  1.00  0.00     0.171 HD
ENDROOT
BRANCH   2   5
HETATM    5  C   UNL     1       6.345  31.912  62.895  1.00  0.00     0.309 C 
HETATM    6  N   UNL     1       7.079  31.240  61.933  1.00  0.00    -0.353 N 
HETATM    7  H   UNL     1       6.585  30.578  61.337  1.00  0.00     0.162 HD
HETATM    8  O   UNL     1       6.776  32.815  63.594  1.00  0.00    -0.262 OA
BRANCH   6   9
HETATM    9  C   UNL     1       8.414  31.672  61.560  1.00  0.00     0.128 C 
BRANCH   9  10
HETATM   10  C   UNL     1       8.448  32.272  60.154  1.00  0.00     0.058 C 
BRANCH  10  11
HETATM   11  C   UNL     1       8.957  31.288  59.133  1.00  0.00    -0.054 A 
HETATM   12  C   UNL     1       8.279  30.081  58.912  1.00  0.00     0.043 A 
HETATM   13  C   UNL     1       8.770  29.172  57.976  1.00  0.00     0.066 A 
HETATM   14  C   UNL     1       9.929  29.443  57.259  1.00  0.00     0.036 A 
HETATM   15  C   UNL     1      10.611  30.637  57.477  1.00  0.00     0.003 A 
HETATM   16  C   UNL     1      10.130  31.557  58.412  1.00  0.00     0.007 A 
BRANCH  13  17
HETATM   17  O   UNL     1       8.135  27.992  57.729  1.00  0.00    -0.361 OA
HETATM   18  H   UNL     1       7.207  28.070  58.005  1.00  0.00     0.217 HD
ENDBRANCH  13  17
ENDBRANCH  10  11
ENDBRANCH   9  10
ENDBRANCH   6   9
ENDBRANCH   2   5
BRANCH   1  19
HETATM   19  C   UNL     1       3.986  33.517  61.927  1.00  0.00     0.150 A 
HETATM   20  C   UNL     1       3.978  33.697  60.562  1.00  0.00     0.065 A 
HETATM   21  C   UNL     1       4.229  35.061  60.370  1.00  0.00     0.161 A 
HETATM   22  N   UNL     1       4.389  35.715  61.520  1.00  0.00    -0.176 NA
HETATM   23  N   UNL     1       4.205  34.776  62.494  1.00  0.00    -0.216 N 
BRANCH  20  24
HETATM   24  S   UNL     1       3.745  32.466  59.349  1.00  0.00    -0.129 SA
HETATM   25  C   UNL     1       5.353  32.482  58.517  1.00  0.00     0.096 C 
ENDBRANCH  20  24
BRANCH  23  26
HETATM   26  C   UNL     1       4.176  35.170  63.865  1.00  0.00     0.060 A 
HETATM   27  C   UNL     1       3.415  34.487  64.823  1.00  0.00     0.031 A 
HETATM   28  C   UNL     1       3.404  34.923  66.153  1.00  0.00     0.002 A 
HETATM   29  C   UNL     1       4.141  36.042  66.535  1.00  0.00     0.000 A 
HETATM   30  C   UNL     1       4.891  36.733  65.589  1.00  0.00     0.002 A 
HETATM   31  C   UNL     1       4.910  36.303  64.260  1.00  0.00     0.031 A 
ENDBRANCH  23  26
ENDBRANCH   1  19
TORSDOF 8
ENDMDL
MODEL 10
REMARK VINA RESULT:      -7.4      6.430     10.249
REMARK  8 active torsions:
REMARK  status: ('A' for Active; 'I' for Inactive)
REMARK    1  A    between atoms: S_2  and  C_3 
REMARK    2  A    between atoms: C_4  and  N_5 
REMARK       I    between atoms: N_5  and  C_6 
REMARK    3  A    between atoms: C_6  and  C_7 
REMARK       I    between atoms: C_7  and  N_8 
REMARK    4  A    between atoms: N_8  and  C_9 
REMARK    5  A    between atoms: C_9  and  C_10 
REMARK    6  A    between atoms: C_10  and  C_11 
REMARK    7  A    between atoms: C_13  and  O_14 
REMARK    8  A    between atoms: N_20  and  C_21 
ROOT
HETATM    1  N   UNL     1       2.942  32.904  62.685  1.00  0.00    -0.302 N 
HETATM    2  C   UNL     1       3.575  31.988  61.780  1.00  0.00     0.315 C 
HETATM    3  O   UNL     1       3.170  30.837  61.791  1.00  0.00    -0.262 OA
HETATM    4  H   UNL     1       2.055  32.580  63.054  1.00  0.00     0.171 HD
ENDROOT
BRANCH   2   5
HETATM    5  C   UNL     1       4.620  32.455  60.738  1.00  0.00     0.309 C 
HETATM    6  N   UNL     1       5.893  31.958  60.963  1.00  0.00    -0.353 N 
HETATM    7  H   UNL     1       6.014  31.293  61.724  1.00  0.00     0.162 HD
HETATM    8  O   UNL     1       4.306  33.161  59.793  1.00  0.00    -0.262 OA
BRANCH   6   9
HETATM    9  C   UNL     1       6.951  32.114  59.981  1.00  0.00     0.128 C 
BRANCH   9  10
HETATM   10  C   UNL     1       8.185  31.285  60.335  1.00  0.00     0.058 C 
BRANCH  10  11
HETATM   11  C   UNL     1       8.667  30.464  59.166  1.00  0.00    -0.054 A 
HETATM   12  C   UNL     1       9.955  30.657  58.646  1.00  0.00     0.043 A 
HETATM   13  C   UNL     1      10.381  29.902  57.555  1.00  0.00     0.066 A 
HETATM   14  C   UNL     1       9.545  28.960  56.969  1.00  0.00     0.036 A 
HETATM   15  C   UNL     1       8.263  28.766  57.477  1.00  0.00     0.003 A 
HETATM   16  C   UNL     1       7.823  29.515  58.570  1.00  0.00     0.007 A 
BRANCH  13  17
HETATM   17  O   UNL     1      11.627  30.057  57.026  1.00  0.00    -0.361 OA
HETATM   18  H   UNL     1      12.284  29.983  57.738  1.00  0.00     0.217 HD
ENDBRANCH  13  17
ENDBRANCH  10  11
ENDBRANCH   9  10
ENDBRANCH   6   9
ENDBRANCH   2   5
BRANCH   1  19
HETATM   19  C   UNL     1       3.177  34.272  62.660  1.00  0.00     0.150 A 
HETATM   20  C   UNL     1       2.418  35.149  61.918  1.00  0.00     0.065 A 
HETATM   21  C   UNL     1       2.984  36.409  62.149  1.00  0.00     0.161 A 
HETATM   22  N   UNL     1       4.029  36.354  62.975  1.00  0.00    -0.176 NA
HETATM   23  N   UNL     1       4.137  35.038  63.326  1.00  0.00    -0.216 N 
BRANCH  20  24
HETATM   24  S   UNL     1       1.072  34.749  60.885  1.00  0.00    -0.129 SA
HETATM   25  C   UNL     1       1.386  35.823  59.462  1.00  0.00     0.096 C 
ENDBRANCH  20  24
BRANCH  23  26
HETATM   26  C   UNL     1       5.085  34.644  64.317  1.00  0.00     0.060 A 
HETATM   27  C   UNL     1       4.813  34.733  65.689  1.00  0.00     0.031 A 
HETATM   28  C   UNL     1       5.782  34.352  66.623  1.00  0.00     0.002 A 
HETATM   29  C   UNL     1       7.026  33.887  66.201  1.00  0.00     0.000 A 
HETATM   30  C   UNL     1       7.309  33.806  64.842  1.00  0.00     0.002 A 
HETATM   31  C   UNL     1       6.347  34.182  63.902  1.00  0.00     0.031 A 
ENDBRANCH  23  26
ENDBRANCH   1  19
TORSDOF 8
ENDMDL
