MODEL 1
REMARK VINA RESULT:     -11.5      0.000      0.000
REMARK  2 active torsions:
REMARK  status: ('A' for Active; 'I' for Inactive)
REMARK       I    between atoms: C_2  and  N_3 
REMARK       I    between atoms: C_2  and  N_21 
REMARK    1  A    between atoms: N_3  and  C_4 
REMARK    2  A    between atoms: C_7  and  C_10 
ROOT
HETATM    1  C   UNL     1       7.334  27.443  56.223  1.00  0.00     0.036 A 
HETATM    2  C   UNL     1       8.371  28.325  56.553  1.00  0.00     0.030 A 
HETATM    3  C   UNL     1       8.127  29.445  57.355  1.00  0.00     0.014 A 
HETATM    4  C   UNL     1       6.835  29.709  57.824  1.00  0.00    -0.024 A 
HETATM    5  C   UNL     1       5.793  28.848  57.465  1.00  0.00     0.014 A 
HETATM    6  C   UNL     1       6.042  27.723  56.672  1.00  0.00     0.030 A 
ENDROOT
BRANCH   1   7
HETATM    7  N   UNL     1       7.657  26.322  55.430  1.00  0.00    -0.309 N 
HETATM    8  C   UNL     1       7.704  24.999  55.843  1.00  0.00     0.327 C 
HETATM    9  O   UNL     1       7.592  24.656  57.018  1.00  0.00    -0.247 OA
HETATM   10  N   UNL     1       7.895  24.102  54.798  1.00  0.00    -0.299 N 
HETATM   11  C   UNL     1       7.837  24.403  53.357  1.00  0.00     0.138 C 
HETATM   12  C   UNL     1       8.148  22.722  54.944  1.00  0.00     0.045 A 
HETATM   13  C   UNL     1       7.862  23.069  52.600  1.00  0.00     0.061 C 
HETATM   14  C   UNL     1       8.175  22.101  53.694  1.00  0.00    -0.030 A 
HETATM   15  C   UNL     1       8.421  20.742  53.568  1.00  0.00     0.009 A 
HETATM   16  C   UNL     1       8.654  20.000  54.726  1.00  0.00     0.001 A 
HETATM   17  C   UNL     1       8.630  20.621  55.983  1.00  0.00     0.002 A 
HETATM   18  C   UNL     1       8.373  21.990  56.098  1.00  0.00     0.030 A 
HETATM   19  H   UNL     1       8.123  26.519  54.560  1.00  0.00     0.170 HD
ENDBRANCH   1   7
BRANCH   4  20
HETATM   20  C   UNL     1       6.569  30.867  58.702  1.00  0.00     0.001 A 
HETATM   21  C   UNL     1       5.487  31.611  58.409  1.00  0.00     0.104 A 
HETATM   22  N   UNL     1       5.113  32.695  59.158  1.00  0.00    -0.332 N 
HETATM   23  C   UNL     1       5.776  33.134  60.281  1.00  0.00     0.256 A 
HETATM   24  H   UNL     1       4.289  33.228  58.905  1.00  0.00     0.168 HD
HETATM   25  O   UNL     1       5.392  34.108  60.917  1.00  0.00    -0.267 OA
HETATM   26  C   UNL     1       6.979  32.360  60.672  1.00  0.00     0.043 A 
HETATM   27  C   UNL     1       7.710  32.741  61.803  1.00  0.00     0.018 A 
HETATM   28  C   UNL     1       7.368  31.256  59.893  1.00  0.00    -0.008 A 
HETATM   29  C   UNL     1       8.846  32.023  62.169  1.00  0.00     0.001 A 
HETATM   30  C   UNL     1       9.252  30.931  61.403  1.00  0.00     0.001 A 
HETATM   31  C   UNL     1       8.522  30.552  60.273  1.00  0.00     0.013 A 
ENDBRANCH   4  20
TORSDOF 2
ENDMDL
MODEL 2
REMARK VINA RESULT:     -11.3      1.007      1.189
REMARK  2 active torsions:
REMARK  status: ('A' for Active; 'I' for Inactive)
REMARK       I    between atoms: C_2  and  N_3 
REMARK       I    between atoms: C_2  and  N_21 
REMARK    1  A    between atoms: N_3  and  C_4 
REMARK    2  A    between atoms: C_7  and  C_10 
ROOT
HETATM    1  C   UNL     1       7.116  28.527  56.332  1.00  0.00     0.036 A 
HETATM    2  C   UNL     1       8.168  29.274  56.876  1.00  0.00     0.030 A 
HETATM    3  C   UNL     1       7.916  30.304  57.789  1.00  0.00     0.014 A 
HETATM    4  C   UNL     1       6.602  30.613  58.157  1.00  0.00    -0.024 A 
HETATM    5  C   UNL     1       5.549  29.892  57.586  1.00  0.00     0.014 A 
HETATM    6  C   UNL     1       5.805  28.856  56.682  1.00  0.00     0.030 A 
ENDROOT
BRANCH   1   7
HETATM    7  N   UNL     1       7.446  27.489  55.436  1.00  0.00    -0.309 N 
HETATM    8  C   UNL     1       7.310  26.128  55.657  1.00  0.00     0.327 C 
HETATM    9  O   UNL     1       6.997  25.650  56.745  1.00  0.00    -0.247 OA
HETATM   10  N   UNL     1       7.567  25.357  54.528  1.00  0.00    -0.299 N 
HETATM   11  C   UNL     1       7.748  25.846  53.151  1.00  0.00     0.138 C 
HETATM   12  C   UNL     1       7.668  23.950  54.508  1.00  0.00     0.045 A 
HETATM   13  C   UNL     1       7.759  24.626  52.220  1.00  0.00     0.061 C 
HETATM   14  C   UNL     1       7.819  23.497  53.196  1.00  0.00    -0.030 A 
HETATM   15  C   UNL     1       7.954  22.146  52.910  1.00  0.00     0.009 A 
HETATM   16  C   UNL     1       7.947  21.240  53.970  1.00  0.00     0.001 A 
HETATM   17  C   UNL     1       7.798  21.692  55.289  1.00  0.00     0.002 A 
HETATM   18  C   UNL     1       7.655  23.055  55.564  1.00  0.00     0.030 A 
HETATM   19  H   UNL     1       8.049  27.744  54.672  1.00  0.00     0.170 HD
ENDBRANCH   1   7
BRANCH   4  20
HETATM   20  C   UNL     1       6.321  31.673  59.147  1.00  0.00     0.001 A 
HETATM   21  C   UNL     1       5.320  32.523  58.856  1.00  0.00     0.104 A 
HETATM   22  N   UNL     1       4.940  33.533  59.700  1.00  0.00    -0.332 N 
HETATM   23  C   UNL     1       5.515  33.784  60.924  1.00  0.00     0.256 A 
HETATM   24  H   UNL     1       4.178  34.150  59.444  1.00  0.00     0.168 HD
HETATM   25  O   UNL     1       5.131  34.700  61.642  1.00  0.00    -0.267 OA
HETATM   26  C   UNL     1       6.627  32.884  61.319  1.00  0.00     0.043 A 
HETATM   27  C   UNL     1       7.265  33.073  62.551  1.00  0.00     0.018 A 
HETATM   28  C   UNL     1       7.022  31.857  60.445  1.00  0.00    -0.008 A 
HETATM   29  C   UNL     1       8.315  32.236  62.923  1.00  0.00     0.001 A 
HETATM   30  C   UNL     1       8.727  31.219  62.063  1.00  0.00     0.001 A 
HETATM   31  C   UNL     1       8.089  31.032  60.833  1.00  0.00     0.013 A 
ENDBRANCH   4  20
TORSDOF 2
ENDMDL
MODEL 3
REMARK VINA RESULT:     -10.9      6.215     10.278
REMARK  2 active torsions:
REMARK  status: ('A' for Active; 'I' for Inactive)
REMARK       I    between atoms: C_2  and  N_3 
REMARK       I    between atoms: C_2  and  N_21 
REMARK    1  A    between atoms: N_3  and  C_4 
REMARK    2  A    between atoms: C_7  and  C_10 
ROOT
HETATM    1  C   UNL     1       5.399  26.232  51.702  1.00  0.00     0.036 A 
HETATM    2  C   UNL     1       4.700  25.951  52.882  1.00  0.00     0.030 A 
HETATM    3  C   UNL     1       5.251  25.113  53.857  1.00  0.00     0.014 A 
HETATM    4  C   UNL     1       6.505  24.526  53.655  1.00  0.00    -0.024 A 
HETATM    5  C   UNL     1       7.187  24.775  52.460  1.00  0.00     0.014 A 
HETATM    6  C   UNL     1       6.639  25.624  51.492  1.00  0.00     0.030 A 
ENDROOT
BRANCH   1   7
HETATM    7  N   UNL     1       4.793  27.104  50.774  1.00  0.00    -0.309 N 
HETATM    8  C   UNL     1       5.161  28.414  50.504  1.00  0.00     0.327 C 
HETATM    9  O   UNL     1       6.002  29.026  51.158  1.00  0.00    -0.247 OA
HETATM   10  N   UNL     1       4.479  28.966  49.426  1.00  0.00    -0.299 N 
HETATM   11  C   UNL     1       3.614  28.252  48.471  1.00  0.00     0.138 C 
HETATM   12  C   UNL     1       4.529  30.322  49.038  1.00  0.00     0.045 A 
HETATM   13  C   UNL     1       3.289  29.217  47.323  1.00  0.00     0.061 C 
HETATM   14  C   UNL     1       3.819  30.510  47.850  1.00  0.00    -0.030 A 
HETATM   15  C   UNL     1       3.707  31.764  47.267  1.00  0.00     0.009 A 
HETATM   16  C   UNL     1       4.313  32.847  47.903  1.00  0.00     0.001 A 
HETATM   17  C   UNL     1       5.024  32.662  49.098  1.00  0.00     0.002 A 
HETATM   18  C   UNL     1       5.137  31.392  49.671  1.00  0.00     0.030 A 
HETATM   19  H   UNL     1       3.876  26.839  50.456  1.00  0.00     0.170 HD
ENDBRANCH   1   7
BRANCH   4  20
HETATM   20  C   UNL     1       7.116  23.667  54.690  1.00  0.00     0.001 A 
HETATM   21  C   UNL     1       7.091  24.131  55.952  1.00  0.00     0.104 A 
HETATM   22  N   UNL     1       7.599  23.423  57.009  1.00  0.00    -0.332 N 
HETATM   23  C   UNL     1       8.169  22.174  56.909  1.00  0.00     0.256 A 
HETATM   24  H   UNL     1       7.557  23.807  57.946  1.00  0.00     0.168 HD
HETATM   25  O   UNL     1       8.603  21.583  57.891  1.00  0.00    -0.267 OA
HETATM   26  C   UNL     1       8.230  21.592  55.546  1.00  0.00     0.043 A 
HETATM   27  C   UNL     1       8.795  20.325  55.360  1.00  0.00     0.018 A 
HETATM   28  C   UNL     1       7.720  22.328  54.463  1.00  0.00    -0.008 A 
HETATM   29  C   UNL     1       8.862  19.778  54.080  1.00  0.00     0.001 A 
HETATM   30  C   UNL     1       8.370  20.498  52.992  1.00  0.00     0.001 A 
HETATM   31  C   UNL     1       7.806  21.763  53.181  1.00  0.00     0.013 A 
ENDBRANCH   4  20
TORSDOF 2
ENDMDL
MODEL 4
REMARK VINA RESULT:     -10.5      1.123      2.294
REMARK  2 active torsions:
REMARK  status: ('A' for Active; 'I' for Inactive)
REMARK       I    between atoms: C_2  and  N_3 
REMARK       I    between atoms: C_2  and  N_21 
REMARK    1  A    between atoms: N_3  and  C_4 
REMARK    2  A    between atoms: C_7  and  C_10 
ROOT
HETATM    1  C   UNL     1       7.501  27.720  56.376  1.00  0.00     0.036 A 
HETATM    2  C   UNL     1       8.610  28.348  56.956  1.00  0.00     0.030 A 
HETATM    3  C   UNL     1       8.440  29.397  57.868  1.00  0.00     0.014 A 
HETATM    4  C   UNL     1       7.156  29.845  58.196  1.00  0.00    -0.024 A 
HETATM    5  C   UNL     1       6.050  29.243  57.589  1.00  0.00     0.014 A 
HETATM    6  C   UNL     1       6.222  28.187  56.687  1.00  0.00     0.030 A 
ENDROOT
BRANCH   1   7
HETATM    7  N   UNL     1       7.746  26.655  55.485  1.00  0.00    -0.309 N 
HETATM    8  C   UNL     1       7.567  25.304  55.738  1.00  0.00     0.327 C 
HETATM    9  O   UNL     1       7.290  24.857  56.849  1.00  0.00    -0.247 OA
HETATM   10  N   UNL     1       7.739  24.504  54.613  1.00  0.00    -0.299 N 
HETATM   11  C   UNL     1       7.870  24.962  53.219  1.00  0.00     0.138 C 
HETATM   12  C   UNL     1       7.783  23.094  54.614  1.00  0.00     0.045 A 
HETATM   13  C   UNL     1       7.788  23.727  52.313  1.00  0.00     0.061 C 
HETATM   14  C   UNL     1       7.852  22.613  53.305  1.00  0.00    -0.030 A 
HETATM   15  C   UNL     1       7.920  21.253  53.039  1.00  0.00     0.009 A 
HETATM   16  C   UNL     1       7.930  20.366  54.115  1.00  0.00     0.001 A 
HETATM   17  C   UNL     1       7.864  20.847  55.431  1.00  0.00     0.002 A 
HETATM   18  C   UNL     1       7.788  22.218  55.687  1.00  0.00     0.030 A 
HETATM   19  H   UNL     1       8.319  26.872  54.688  1.00  0.00     0.170 HD
ENDBRANCH   1   7
BRANCH   4  20
HETATM   20  C   UNL     1       6.960  30.927  59.183  1.00  0.00     0.001 A 
HETATM   21  C   UNL     1       7.877  31.025  60.163  1.00  0.00     0.104 A 
HETATM   22  N   UNL     1       7.827  31.998  61.125  1.00  0.00    -0.332 N 
HETATM   23  C   UNL     1       6.864  32.978  61.195  1.00  0.00     0.256 A 
HETATM   24  H   UNL     1       8.540  32.039  61.844  1.00  0.00     0.168 HD
HETATM   25  O   UNL     1       6.872  33.829  62.076  1.00  0.00    -0.267 OA
HETATM   26  C   UNL     1       5.817  32.939  60.144  1.00  0.00     0.043 A 
HETATM   27  C   UNL     1       4.801  33.901  60.144  1.00  0.00     0.018 A 
HETATM   28  C   UNL     1       5.864  31.931  59.166  1.00  0.00    -0.008 A 
HETATM   29  C   UNL     1       3.811  33.864  59.165  1.00  0.00     0.001 A 
HETATM   30  C   UNL     1       3.836  32.865  58.192  1.00  0.00     0.001 A 
HETATM   31  C   UNL     1       4.852  31.904  58.194  1.00  0.00     0.013 A 
ENDBRANCH   4  20
TORSDOF 2
ENDMDL
MODEL 5
REMARK VINA RESULT:     -10.4      2.173     10.153
REMARK  2 active torsions:
REMARK  status: ('A' for Active; 'I' for Inactive)
REMARK       I    between atoms: C_2  and  N_3 
REMARK       I    between atoms: C_2  and  N_21 
REMARK    1  A    between atoms: N_3  and  C_4 
REMARK    2  A    between atoms: C_7  and  C_10 
ROOT
HETATM    1  C   UNL     1       6.176  30.277  57.934  1.00  0.00     0.036 A 
HETATM    2  C   UNL     1       5.141  29.466  57.453  1.00  0.00     0.030 A 
HETATM    3  C   UNL     1       5.385  28.509  56.461  1.00  0.00     0.014 A 
HETATM    4  C   UNL     1       6.668  28.364  55.923  1.00  0.00    -0.024 A 
HETATM    5  C   UNL     1       7.694  29.199  56.376  1.00  0.00     0.014 A 
HETATM    6  C   UNL     1       7.450  30.147  57.376  1.00  0.00     0.030 A 
ENDROOT
BRANCH   1   7
HETATM    7  N   UNL     1       5.863  31.204  58.950  1.00  0.00    -0.309 N 
HETATM    8  C   UNL     1       6.631  31.504  60.064  1.00  0.00     0.327 C 
HETATM    9  O   UNL     1       7.645  30.882  60.371  1.00  0.00    -0.247 OA
HETATM   10  N   UNL     1       6.137  32.575  60.802  1.00  0.00    -0.299 N 
HETATM   11  C   UNL     1       5.058  33.495  60.404  1.00  0.00     0.138 C 
HETATM   12  C   UNL     1       6.617  32.986  62.063  1.00  0.00     0.045 A 
HETATM   13  C   UNL     1       5.034  34.650  61.413  1.00  0.00     0.061 C 
HETATM   14  C   UNL     1       5.974  34.159  62.464  1.00  0.00    -0.030 A 
HETATM   15  C   UNL     1       6.262  34.759  63.681  1.00  0.00     0.009 A 
HETATM   16  C   UNL     1       7.208  34.157  64.511  1.00  0.00     0.001 A 
HETATM   17  C   UNL     1       7.853  32.978  64.111  1.00  0.00     0.002 A 
HETATM   18  C   UNL     1       7.561  32.386  62.879  1.00  0.00     0.030 A 
HETATM   19  H   UNL     1       4.901  31.494  58.998  1.00  0.00     0.170 HD
ENDBRANCH   1   7
BRANCH   4  20
HETATM   20  C   UNL     1       6.949  27.334  54.902  1.00  0.00     0.001 A 
HETATM   21  C   UNL     1       6.787  27.696  53.616  1.00  0.00     0.104 A 
HETATM   22  N   UNL     1       7.039  26.847  52.572  1.00  0.00    -0.332 N 
HETATM   23  C   UNL     1       7.492  25.555  52.710  1.00  0.00     0.256 A 
HETATM   24  H   UNL     1       6.908  27.160  51.618  1.00  0.00     0.168 HD
HETATM   25  O   UNL     1       7.707  24.840  51.738  1.00  0.00    -0.267 OA
HETATM   26  C   UNL     1       7.699  25.082  54.100  1.00  0.00     0.043 A 
HETATM   27  C   UNL     1       8.159  23.779  54.326  1.00  0.00     0.018 A 
HETATM   28  C   UNL     1       7.427  25.952  55.170  1.00  0.00    -0.008 A 
HETATM   29  C   UNL     1       8.347  23.326  55.631  1.00  0.00     0.001 A 
HETATM   30  C   UNL     1       8.072  24.173  56.704  1.00  0.00     0.001 A 
HETATM   31  C   UNL     1       7.613  25.474  56.476  1.00  0.00     0.013 A 
ENDBRANCH   4  20
TORSDOF 2
ENDMDL
MODEL 6
REMARK VINA RESULT:     -10.3      2.079     10.308
REMARK  2 active torsions:
REMARK  status: ('A' for Active; 'I' for Inactive)
REMARK       I    between atoms: C_2  and  N_3 
REMARK       I    between atoms: C_2  and  N_21 
REMARK    1  A    between atoms: N_3  and  C_4 
REMARK    2  A    between atoms: C_7  and  C_10 
ROOT
HETATM    1  C   UNL     1       7.875  29.800  58.516  1.00  0.00     0.036 A 
HETATM    2  C   UNL     1       6.617  29.344  58.104  1.00  0.00     0.030 A 
HETATM    3  C   UNL     1       6.492  28.490  57.003  1.00  0.00     0.014 A 
HETATM    4  C   UNL     1       7.626  28.095  56.285  1.00  0.00    -0.024 A 
HETATM    5  C   UNL     1       8.879  28.580  56.673  1.00  0.00     0.014 A 
HETATM    6  C   UNL     1       9.002  29.424  57.782  1.00  0.00     0.030 A 
ENDROOT
BRANCH   1   7
HETATM    7  N   UNL     1       7.928  30.639  59.649  1.00  0.00    -0.309 N 
HETATM    8  C   UNL     1       6.986  31.584  60.025  1.00  0.00     0.327 C 
HETATM    9  O   UNL     1       6.029  31.900  59.321  1.00  0.00    -0.247 OA
HETATM   10  N   UNL     1       7.234  32.143  61.274  1.00  0.00    -0.299 N 
HETATM   11  C   UNL     1       8.227  31.686  62.262  1.00  0.00     0.138 C 
HETATM   12  C   UNL     1       6.541  33.239  61.829  1.00  0.00     0.045 A 
HETATM   13  C   UNL     1       7.967  32.443  63.570  1.00  0.00     0.061 C 
HETATM   14  C   UNL     1       6.967  33.466  63.139  1.00  0.00    -0.030 A 
HETATM   15  C   UNL     1       6.444  34.502  63.899  1.00  0.00     0.009 A 
HETATM   16  C   UNL     1       5.483  35.330  63.319  1.00  0.00     0.001 A 
HETATM   17  C   UNL     1       5.056  35.107  62.003  1.00  0.00     0.002 A 
HETATM   18  C   UNL     1       5.583  34.054  61.250  1.00  0.00     0.030 A 
HETATM   19  H   UNL     1       8.829  30.730  60.087  1.00  0.00     0.170 HD
ENDBRANCH   1   7
BRANCH   4  20
HETATM   20  C   UNL     1       7.514  27.165  55.142  1.00  0.00     0.001 A 
HETATM   21  C   UNL     1       7.357  27.718  53.926  1.00  0.00     0.104 A 
HETATM   22  N   UNL     1       7.267  26.971  52.782  1.00  0.00    -0.332 N 
HETATM   23  C   UNL     1       7.340  25.598  52.739  1.00  0.00     0.256 A 
HETATM   24  H   UNL     1       7.153  27.427  51.884  1.00  0.00     0.168 HD
HETATM   25  O   UNL     1       7.260  24.980  51.684  1.00  0.00    -0.267 OA
HETATM   26  C   UNL     1       7.518  24.914  54.043  1.00  0.00     0.043 A 
HETATM   27  C   UNL     1       7.601  23.517  54.086  1.00  0.00     0.018 A 
HETATM   28  C   UNL     1       7.596  25.683  55.217  1.00  0.00    -0.008 A 
HETATM   29  C   UNL     1       7.759  22.869  55.309  1.00  0.00     0.001 A 
HETATM   30  C   UNL     1       7.829  23.616  56.484  1.00  0.00     0.001 A 
HETATM   31  C   UNL     1       7.745  25.011  56.440  1.00  0.00     0.013 A 
ENDBRANCH   4  20
TORSDOF 2
ENDMDL
MODEL 7
REMARK VINA RESULT:     -10.3      2.361     10.395
REMARK  2 active torsions:
REMARK  status: ('A' for Active; 'I' for Inactive)
REMARK       I    between atoms: C_2  and  N_3 
REMARK       I    between atoms: C_2  and  N_21 
REMARK    1  A    between atoms: N_3  and  C_4 
REMARK    2  A    between atoms: C_7  and  C_10 
ROOT
HETATM    1  C   UNL     1       6.701  29.220  57.769  1.00  0.00     0.036 A 
HETATM    2  C   UNL     1       5.712  28.321  57.350  1.00  0.00     0.030 A 
HETATM    3  C   UNL     1       6.059  27.061  56.848  1.00  0.00     0.014 A 
HETATM    4  C   UNL     1       7.404  26.691  56.739  1.00  0.00    -0.024 A 
HETATM    5  C   UNL     1       8.393  27.603  57.122  1.00  0.00     0.014 A 
HETATM    6  C   UNL     1       8.043  28.857  57.635  1.00  0.00     0.030 A 
ENDROOT
BRANCH   1   7
HETATM    7  N   UNL     1       6.278  30.462  58.286  1.00  0.00    -0.309 N 
HETATM    8  C   UNL     1       5.685  31.496  57.579  1.00  0.00     0.327 C 
HETATM    9  O   UNL     1       5.576  31.500  56.355  1.00  0.00    -0.247 OA
HETATM   10  N   UNL     1       5.232  32.530  58.391  1.00  0.00    -0.299 N 
HETATM   11  C   UNL     1       5.139  32.520  59.861  1.00  0.00     0.138 C 
HETATM   12  C   UNL     1       4.746  33.773  57.933  1.00  0.00     0.045 A 
HETATM   13  C   UNL     1       4.358  33.770  60.288  1.00  0.00     0.061 C 
HETATM   14  C   UNL     1       4.271  34.530  59.005  1.00  0.00    -0.030 A 
HETATM   15  C   UNL     1       3.751  35.803  58.817  1.00  0.00     0.009 A 
HETATM   16  C   UNL     1       3.724  36.322  57.523  1.00  0.00     0.001 A 
HETATM   17  C   UNL     1       4.203  35.566  56.444  1.00  0.00     0.002 A 
HETATM   18  C   UNL     1       4.717  34.282  56.645  1.00  0.00     0.030 A 
HETATM   19  H   UNL     1       6.650  30.712  59.186  1.00  0.00     0.170 HD
ENDBRANCH   1   7
BRANCH   4  20
HETATM   20  C   UNL     1       7.785  25.352  56.245  1.00  0.00     0.001 A 
HETATM   21  C   UNL     1       8.122  24.438  57.173  1.00  0.00     0.104 A 
HETATM   22  N   UNL     1       8.468  23.153  56.851  1.00  0.00    -0.332 N 
HETATM   23  C   UNL     1       8.499  22.651  55.570  1.00  0.00     0.256 A 
HETATM   24  H   UNL     1       8.712  22.494  57.581  1.00  0.00     0.168 HD
HETATM   25  O   UNL     1       8.812  21.489  55.341  1.00  0.00    -0.267 OA
HETATM   26  C   UNL     1       8.136  23.600  54.489  1.00  0.00     0.043 A 
HETATM   27  C   UNL     1       8.143  23.167  53.158  1.00  0.00     0.018 A 
HETATM   28  C   UNL     1       7.794  24.921  54.822  1.00  0.00    -0.008 A 
HETATM   29  C   UNL     1       7.811  24.056  52.138  1.00  0.00     0.001 A 
HETATM   30  C   UNL     1       7.478  25.374  52.450  1.00  0.00     0.001 A 
HETATM   31  C   UNL     1       7.473  25.805  53.780  1.00  0.00     0.013 A 
ENDBRANCH   4  20
TORSDOF 2
ENDMDL
MODEL 8
REMARK VINA RESULT:     -10.2      2.417      3.426
REMARK  2 active torsions:
REMARK  status: ('A' for Active; 'I' for Inactive)
REMARK       I    between atoms: C_2  and  N_3 
REMARK       I    between atoms: C_2  and  N_21 
REMARK    1  A    between atoms: N_3  and  C_4 
REMARK    2  A    between atoms: C_7  and  C_10 
ROOT
HETATM    1  C   UNL     1       6.036  28.618  56.062  1.00  0.00     0.036 A 
HETATM    2  C   UNL     1       4.670  28.883  55.907  1.00  0.00     0.030 A 
HETATM    3  C   UNL     1       4.043  29.873  56.672  1.00  0.00     0.014 A 
HETATM    4  C   UNL     1       4.773  30.600  57.619  1.00  0.00    -0.024 A 
HETATM    5  C   UNL     1       6.129  30.310  57.800  1.00  0.00     0.014 A 
HETATM    6  C   UNL     1       6.756  29.328  57.026  1.00  0.00     0.030 A 
ENDROOT
BRANCH   1   7
HETATM    7  N   UNL     1       6.606  27.623  55.241  1.00  0.00    -0.309 N 
HETATM    8  C   UNL     1       6.599  26.256  55.469  1.00  0.00     0.327 C 
HETATM    9  O   UNL     1       6.195  25.748  56.512  1.00  0.00    -0.247 OA
HETATM   10  N   UNL     1       7.099  25.517  54.402  1.00  0.00    -0.299 N 
HETATM   11  C   UNL     1       7.413  26.018  53.053  1.00  0.00     0.138 C 
HETATM   12  C   UNL     1       7.364  24.131  54.424  1.00  0.00     0.045 A 
HETATM   13  C   UNL     1       7.695  24.805  52.158  1.00  0.00     0.061 C 
HETATM   14  C   UNL     1       7.749  23.694  53.155  1.00  0.00    -0.030 A 
HETATM   15  C   UNL     1       8.078  22.367  52.917  1.00  0.00     0.009 A 
HETATM   16  C   UNL     1       8.028  21.470  53.984  1.00  0.00     0.001 A 
HETATM   17  C   UNL     1       7.645  21.907  55.261  1.00  0.00     0.002 A 
HETATM   18  C   UNL     1       7.308  23.245  55.486  1.00  0.00     0.030 A 
HETATM   19  H   UNL     1       7.276  27.944  54.563  1.00  0.00     0.170 HD
ENDBRANCH   1   7
BRANCH   4  20
HETATM   20  C   UNL     1       4.134  31.672  58.409  1.00  0.00     0.001 A 
HETATM   21  C   UNL     1       3.510  31.300  59.541  1.00  0.00     0.104 A 
HETATM   22  N   UNL     1       2.901  32.197  60.377  1.00  0.00    -0.332 N 
HETATM   23  C   UNL     1       2.867  33.557  60.171  1.00  0.00     0.256 A 
HETATM   24  H   UNL     1       2.444  31.876  61.223  1.00  0.00     0.168 HD
HETATM   25  O   UNL     1       2.311  34.315  60.957  1.00  0.00    -0.267 OA
HETATM   26  C   UNL     1       3.539  34.047  58.943  1.00  0.00     0.043 A 
HETATM   27  C   UNL     1       3.550  35.418  58.660  1.00  0.00     0.018 A 
HETATM   28  C   UNL     1       4.152  33.122  58.080  1.00  0.00    -0.008 A 
HETATM   29  C   UNL     1       4.171  35.882  57.503  1.00  0.00     0.001 A 
HETATM   30  C   UNL     1       4.775  34.977  56.631  1.00  0.00     0.001 A 
HETATM   31  C   UNL     1       4.763  33.608  56.914  1.00  0.00     0.013 A 
ENDBRANCH   4  20
TORSDOF 2
ENDMDL
MODEL 9
REMARK VINA RESULT:     -10.2      2.624     10.320
REMARK  2 active torsions:
REMARK  status: ('A' for Active; 'I' for Inactive)
REMARK       I    between atoms: C_2  and  N_3 
REMARK       I    between atoms: C_2  and  N_21 
REMARK    1  A    between atoms: N_3  and  C_4 
REMARK    2  A    between atoms: C_7  and  C_10 
ROOT
HETATM    1  C   UNL     1       6.108  29.489  56.174  1.00  0.00     0.036 A 
HETATM    2  C   UNL     1       5.197  28.430  56.086  1.00  0.00     0.030 A 
HETATM    3  C   UNL     1       5.644  27.104  56.069  1.00  0.00     0.014 A 
HETATM    4  C   UNL     1       7.013  26.820  56.120  1.00  0.00    -0.024 A 
HETATM    5  C   UNL     1       7.925  27.879  56.170  1.00  0.00     0.014 A 
HETATM    6  C   UNL     1       7.475  29.204  56.199  1.00  0.00     0.030 A 
ENDROOT
BRANCH   1   7
HETATM    7  N   UNL     1       5.586  30.799  56.210  1.00  0.00    -0.309 N 
HETATM    8  C   UNL     1       5.470  31.615  57.325  1.00  0.00     0.327 C 
HETATM    9  O   UNL     1       5.697  31.229  58.469  1.00  0.00    -0.247 OA
HETATM   10  N   UNL     1       5.066  32.911  57.020  1.00  0.00    -0.299 N 
HETATM   11  C   UNL     1       4.969  33.510  55.678  1.00  0.00     0.138 C 
HETATM   12  C   UNL     1       4.708  33.896  57.963  1.00  0.00     0.045 A 
HETATM   13  C   UNL     1       4.727  35.014  55.855  1.00  0.00     0.061 C 
HETATM   14  C   UNL     1       4.466  35.112  57.322  1.00  0.00    -0.030 A 
HETATM   15  C   UNL     1       4.082  36.240  58.034  1.00  0.00     0.009 A 
HETATM   16  C   UNL     1       3.928  36.131  59.416  1.00  0.00     0.001 A 
HETATM   17  C   UNL     1       4.168  34.910  60.063  1.00  0.00     0.002 A 
HETATM   18  C   UNL     1       4.562  33.783  59.336  1.00  0.00     0.030 A 
HETATM   19  H   UNL     1       5.035  31.074  55.415  1.00  0.00     0.170 HD
ENDBRANCH   1   7
BRANCH   4  20
HETATM   20  C   UNL     1       7.499  25.425  56.139  1.00  0.00     0.001 A 
HETATM   21  C   UNL     1       7.779  24.898  57.345  1.00  0.00     0.104 A 
HETATM   22  N   UNL     1       8.211  23.609  57.505  1.00  0.00    -0.332 N 
HETATM   23  C   UNL     1       8.392  22.714  56.476  1.00  0.00     0.256 A 
HETATM   24  H   UNL     1       8.408  23.249  58.432  1.00  0.00     0.168 HD
HETATM   25  O   UNL     1       8.776  21.568  56.678  1.00  0.00    -0.267 OA
HETATM   26  C   UNL     1       8.099  23.220  55.113  1.00  0.00     0.043 A 
HETATM   27  C   UNL     1       8.258  22.371  54.011  1.00  0.00     0.018 A 
HETATM   28  C   UNL     1       7.668  24.548  54.951  1.00  0.00    -0.008 A 
HETATM   29  C   UNL     1       7.993  22.844  52.727  1.00  0.00     0.001 A 
HETATM   30  C   UNL     1       7.574  24.162  52.548  1.00  0.00     0.001 A 
HETATM   31  C   UNL     1       7.416  25.008  53.650  1.00  0.00     0.013 A 
ENDBRANCH   4  20
TORSDOF 2
ENDMDL
MODEL 10
REMARK VINA RESULT:      -9.7      2.736     10.252
REMARK  2 active torsions:
REMARK  status: ('A' for Active; 'I' for Inactive)
REMARK       I    between atoms: C_2  and  N_3 
REMARK       I    between atoms: C_2  and  N_21 
REMARK    1  A    between atoms: N_3  and  C_4 
REMARK    2  A    between atoms: C_7  and  C_10 
ROOT
HETATM    1  C   UNL     1       6.775  27.793  55.833  1.00  0.00     0.036 A 
HETATM    2  C   UNL     1       6.456  26.688  56.632  1.00  0.00     0.030 A 
HETATM    3  C   UNL     1       6.681  25.386  56.173  1.00  0.00     0.014 A 
HETATM    4  C   UNL     1       7.211  25.170  54.896  1.00  0.00    -0.024 A 
HETATM    5  C   UNL     1       7.495  26.272  54.083  1.00  0.00     0.014 A 
HETATM    6  C   UNL     1       7.280  27.573  54.549  1.00  0.00     0.030 A 
ENDROOT
BRANCH   1   7
HETATM    7  N   UNL     1       6.544  29.076  56.369  1.00  0.00    -0.309 N 
HETATM    8  C   UNL     1       5.437  29.881  56.147  1.00  0.00     0.327 C 
HETATM    9  O   UNL     1       4.562  29.612  55.327  1.00  0.00    -0.247 OA
HETATM   10  N   UNL     1       5.418  31.023  56.940  1.00  0.00    -0.299 N 
HETATM   11  C   UNL     1       6.305  31.321  58.078  1.00  0.00     0.138 C 
HETATM   12  C   UNL     1       4.508  32.093  56.807  1.00  0.00     0.045 A 
HETATM   13  C   UNL     1       5.752  32.562  58.789  1.00  0.00     0.061 C 
HETATM   14  C   UNL     1       4.698  33.019  57.834  1.00  0.00    -0.030 A 
HETATM   15  C   UNL     1       3.932  34.173  57.917  1.00  0.00     0.009 A 
HETATM   16  C   UNL     1       2.965  34.398  56.938  1.00  0.00     0.001 A 
HETATM   17  C   UNL     1       2.773  33.471  55.904  1.00  0.00     0.002 A 
HETATM   18  C   UNL     1       3.545  32.308  55.835  1.00  0.00     0.030 A 
HETATM   19  H   UNL     1       7.349  29.545  56.749  1.00  0.00     0.170 HD
ENDBRANCH   1   7
BRANCH   4  20
HETATM   20  C   UNL     1       7.487  23.802  54.411  1.00  0.00     0.001 A 
HETATM   21  C   UNL     1       7.393  23.600  53.084  1.00  0.00     0.104 A 
HETATM   22  N   UNL     1       7.649  22.387  52.502  1.00  0.00    -0.332 N 
HETATM   23  C   UNL     1       8.039  21.260  53.188  1.00  0.00     0.256 A 
HETATM   24  H   UNL     1       7.570  22.278  51.498  1.00  0.00     0.168 HD
HETATM   25  O   UNL     1       8.260  20.200  52.614  1.00  0.00    -0.267 OA
HETATM   26  C   UNL     1       8.170  21.404  54.658  1.00  0.00     0.043 A 
HETATM   27  C   UNL     1       8.562  20.303  55.429  1.00  0.00     0.018 A 
HETATM   28  C   UNL     1       7.893  22.647  55.253  1.00  0.00    -0.008 A 
HETATM   29  C   UNL     1       8.678  20.431  56.811  1.00  0.00     0.001 A 
HETATM   30  C   UNL     1       8.398  21.654  57.420  1.00  0.00     0.001 A 
HETATM   31  C   UNL     1       8.006  22.752  56.648  1.00  0.00     0.013 A 
ENDBRANCH   4  20
TORSDOF 2
ENDMDL
