MODEL 1
REMARK VINA RESULT:      -8.4      0.000      0.000
REMARK  7 active torsions:
REMARK  status: ('A' for Active; 'I' for Inactive)
REMARK    1  A    between atoms: O_2  and  C_3 
REMARK    2  A    between atoms: C_4  and  C_5 
REMARK    3  A    between atoms: C_5  and  N_6 
REMARK    4  A    between atoms: N_6  and  C_7 
REMARK    5  A    between atoms: C_9  and  N_10 
REMARK    6  A    between atoms: N_10  and  C_11 
REMARK    7  A    between atoms: C_11  and  C_12 
ROOT
HETATM    1  C   UNL     1       7.091  25.892  57.096  1.00  0.00     0.119 A 
HETATM    2  N   UNL     1       7.698  26.743  57.945  1.00  0.00    -0.207 NA
HETATM    3  C   UNL     1       7.532  28.057  57.744  1.00  0.00     0.181 A 
HETATM    4  N   UNL     1       6.776  28.554  56.774  1.00  0.00    -0.330 N 
HETATM    5  H   UNL     1       6.642  29.556  56.762  1.00  0.00     0.168 HD
HETATM    6  C   UNL     1       6.184  27.759  55.878  1.00  0.00     0.048 A 
HETATM    7  C   UNL     1       6.346  26.362  55.989  1.00  0.00     0.031 A 
HETATM    8  C   UNL     1       5.412  28.317  54.849  1.00  0.00     0.030 A 
HETATM    9  C   UNL     1       4.805  27.493  53.903  1.00  0.00     0.002 A 
HETATM   10  C   UNL     1       4.972  26.114  53.976  1.00  0.00     0.001 A 
HETATM   11  C   UNL     1       5.735  25.550  55.003  1.00  0.00     0.017 A 
ENDROOT
BRANCH   1  12
HETATM   12  N   UNL     1       7.266  24.512  57.279  1.00  0.00    -0.272 NA
HETATM   13  H   UNL     1       7.099  24.246  58.246  1.00  0.00     0.129 HD
BRANCH  12  14
HETATM   14  C   UNL     1       8.550  23.934  56.855  1.00  0.00     0.135 C 
BRANCH  14  15
HETATM   15  C   UNL     1       8.421  22.640  56.084  1.00  0.00    -0.012 A 
HETATM   16  C   UNL     1       8.338  22.706  54.680  1.00  0.00     0.075 A 
HETATM   17  C   UNL     1       8.290  21.541  53.909  1.00  0.00     0.037 A 
HETATM   18  C   UNL     1       8.276  20.296  54.535  1.00  0.00     0.003 A 
HETATM   19  C   UNL     1       8.319  20.214  55.924  1.00  0.00     0.001 A 
HETATM   20  C   UNL     1       8.396  21.378  56.695  1.00  0.00     0.011 A 
BRANCH  16  21
HETATM   21  O   UNL     1       8.379  23.956  54.112  1.00  0.00    -0.355 OA
HETATM   22  C   UNL     1       8.025  23.963  52.730  1.00  0.00     0.210 C 
ENDBRANCH  16  21
ENDBRANCH  14  15
ENDBRANCH  12  14
ENDBRANCH   1  12
BRANCH   3  23
HETATM   23  N   UNL     1       8.122  28.919  58.655  1.00  0.00    -0.259 NA
HETATM   24  H   UNL     1       8.839  28.351  59.117  1.00  0.00     0.130 HD
BRANCH  23  25
HETATM   25  C   UNL     1       8.709  30.134  58.113  1.00  0.00     0.121 C 
BRANCH  25  26
HETATM   26  C   UNL     1      10.068  29.780  57.589  1.00  0.00    -0.022 C 
HETATM   27  C   UNL     1      10.435  29.810  56.300  1.00  0.00     0.008 C 
ENDBRANCH  25  26
ENDBRANCH  23  25
ENDBRANCH   3  23
TORSDOF 7
ENDMDL
MODEL 2
REMARK VINA RESULT:      -8.2      2.221      3.202
REMARK  7 active torsions:
REMARK  status: ('A' for Active; 'I' for Inactive)
REMARK    1  A    between atoms: O_2  and  C_3 
REMARK    2  A    between atoms: C_4  and  C_5 
REMARK    3  A    between atoms: C_5  and  N_6 
REMARK    4  A    between atoms: N_6  and  C_7 
REMARK    5  A    between atoms: C_9  and  N_10 
REMARK    6  A    between atoms: N_10  and  C_11 
REMARK    7  A    between atoms: C_11  and  C_12 
ROOT
HETATM    1  C   UNL     1       6.558  26.058  53.324  1.00  0.00     0.119 A 
HETATM    2  N   UNL     1       7.140  26.822  54.268  1.00  0.00    -0.207 NA
HETATM    3  C   UNL     1       7.100  28.151  54.115  1.00  0.00     0.181 A 
HETATM    4  N   UNL     1       6.489  28.748  53.100  1.00  0.00    -0.330 N 
HETATM    5  H   UNL     1       6.437  29.757  53.122  1.00  0.00     0.168 HD
HETATM    6  C   UNL     1       5.932  28.041  52.112  1.00  0.00     0.048 A 
HETATM    7  C   UNL     1       5.971  26.632  52.171  1.00  0.00     0.031 A 
HETATM    8  C   UNL     1       5.318  28.702  51.039  1.00  0.00     0.030 A 
HETATM    9  C   UNL     1       4.749  27.970  49.999  1.00  0.00     0.002 A 
HETATM   10  C   UNL     1       4.798  26.580  50.022  1.00  0.00     0.001 A 
HETATM   11  C   UNL     1       5.403  25.914  51.092  1.00  0.00     0.017 A 
ENDROOT
BRANCH   1  12
HETATM   12  N   UNL     1       6.604  24.663  53.457  1.00  0.00    -0.272 NA
HETATM   13  H   UNL     1       6.277  24.371  54.374  1.00  0.00     0.129 HD
BRANCH  12  14
HETATM   14  C   UNL     1       7.891  24.002  53.192  1.00  0.00     0.135 C 
BRANCH  14  15
HETATM   15  C   UNL     1       8.067  22.681  53.903  1.00  0.00    -0.012 A 
HETATM   16  C   UNL     1       8.048  22.674  55.311  1.00  0.00     0.075 A 
HETATM   17  C   UNL     1       8.134  21.475  56.024  1.00  0.00     0.037 A 
HETATM   18  C   UNL     1       8.289  20.271  55.339  1.00  0.00     0.003 A 
HETATM   19  C   UNL     1       8.348  20.264  53.947  1.00  0.00     0.001 A 
HETATM   20  C   UNL     1       8.233  21.460  53.233  1.00  0.00     0.011 A 
BRANCH  16  21
HETATM   21  O   UNL     1       7.870  23.884  55.937  1.00  0.00    -0.355 OA
HETATM   22  C   UNL     1       8.723  24.070  57.065  1.00  0.00     0.210 C 
ENDBRANCH  16  21
ENDBRANCH  14  15
ENDBRANCH  12  14
ENDBRANCH   1  12
BRANCH   3  23
HETATM   23  N   UNL     1       7.658  28.924  55.121  1.00  0.00    -0.259 NA
HETATM   24  H   UNL     1       6.907  29.564  55.399  1.00  0.00     0.130 HD
BRANCH  23  25
HETATM   25  C   UNL     1       8.172  28.210  56.280  1.00  0.00     0.121 C 
BRANCH  25  26
HETATM   26  C   UNL     1       9.284  29.033  56.857  1.00  0.00    -0.022 C 
HETATM   27  C   UNL     1      10.215  29.686  56.147  1.00  0.00     0.008 C 
ENDBRANCH  25  26
ENDBRANCH  23  25
ENDBRANCH   3  23
TORSDOF 7
ENDMDL
MODEL 3
REMARK VINA RESULT:      -8.2      2.293      6.096
REMARK  7 active torsions:
REMARK  status: ('A' for Active; 'I' for Inactive)
REMARK    1  A    between atoms: O_2  and  C_3 
REMARK    2  A    between atoms: C_4  and  C_5 
REMARK    3  A    between atoms: C_5  and  N_6 
REMARK    4  A    between atoms: N_6  and  C_7 
REMARK    5  A    between atoms: C_9  and  N_10 
REMARK    6  A    between atoms: N_10  and  C_11 
REMARK    7  A    between atoms: C_11  and  C_12 
ROOT
HETATM    1  C   UNL     1       7.288  23.911  54.042  1.00  0.00     0.119 A 
HETATM    2  N   UNL     1       7.101  24.643  55.157  1.00  0.00    -0.207 NA
HETATM    3  C   UNL     1       7.415  24.089  56.334  1.00  0.00     0.181 A 
HETATM    4  N   UNL     1       7.929  22.871  56.450  1.00  0.00    -0.330 N 
HETATM    5  H   UNL     1       8.216  22.578  57.374  1.00  0.00     0.168 HD
HETATM    6  C   UNL     1       8.097  22.083  55.383  1.00  0.00     0.048 A 
HETATM    7  C   UNL     1       7.747  22.574  54.108  1.00  0.00     0.031 A 
HETATM    8  C   UNL     1       8.618  20.791  55.542  1.00  0.00     0.030 A 
HETATM    9  C   UNL     1       8.781  19.962  54.436  1.00  0.00     0.002 A 
HETATM   10  C   UNL     1       8.418  20.413  53.170  1.00  0.00     0.001 A 
HETATM   11  C   UNL     1       7.904  21.702  53.004  1.00  0.00     0.017 A 
ENDROOT
BRANCH   1  12
HETATM   12  N   UNL     1       6.950  24.468  52.800  1.00  0.00    -0.272 NA
HETATM   13  H   UNL     1       7.545  25.262  52.580  1.00  0.00     0.129 HD
BRANCH  12  14
HETATM   14  C   UNL     1       5.549  24.868  52.601  1.00  0.00     0.135 C 
BRANCH  14  15
HETATM   15  C   UNL     1       5.373  26.102  51.747  1.00  0.00    -0.012 A 
HETATM   16  C   UNL     1       5.651  27.357  52.323  1.00  0.00     0.075 A 
HETATM   17  C   UNL     1       5.576  28.528  51.563  1.00  0.00     0.037 A 
HETATM   18  C   UNL     1       5.176  28.464  50.229  1.00  0.00     0.003 A 
HETATM   19  C   UNL     1       4.860  27.235  49.655  1.00  0.00     0.001 A 
HETATM   20  C   UNL     1       4.963  26.061  50.406  1.00  0.00     0.011 A 
BRANCH  16  21
HETATM   21  O   UNL     1       6.064  27.362  53.632  1.00  0.00    -0.355 OA
HETATM   22  C   UNL     1       7.350  27.951  53.820  1.00  0.00     0.210 C 
ENDBRANCH  16  21
ENDBRANCH  14  15
ENDBRANCH  12  14
ENDBRANCH   1  12
BRANCH   3  23
HETATM   23  N   UNL     1       7.264  24.873  57.467  1.00  0.00    -0.259 NA
HETATM   24  H   UNL     1       8.206  24.927  57.868  1.00  0.00     0.130 HD
BRANCH  23  25
HETATM   25  C   UNL     1       6.721  26.207  57.266  1.00  0.00     0.121 C 
BRANCH  25  26
HETATM   26  C   UNL     1       7.826  27.185  57.528  1.00  0.00    -0.022 C 
HETATM   27  C   UNL     1       7.661  28.486  57.805  1.00  0.00     0.008 C 
ENDBRANCH  25  26
ENDBRANCH  23  25
ENDBRANCH   3  23
TORSDOF 7
ENDMDL
MODEL 4
REMARK VINA RESULT:      -8.1      2.219      6.552
REMARK  7 active torsions:
REMARK  status: ('A' for Active; 'I' for Inactive)
REMARK    1  A    between atoms: O_2  and  C_3 
REMARK    2  A    between atoms: C_4  and  C_5 
REMARK    3  A    between atoms: C_5  and  N_6 
REMARK    4  A    between atoms: N_6  and  C_7 
REMARK    5  A    between atoms: C_9  and  N_10 
REMARK    6  A    between atoms: N_10  and  C_11 
REMARK    7  A    between atoms: C_11  and  C_12 
ROOT
HETATM    1  C   UNL     1       8.152  24.224  55.212  1.00  0.00     0.119 A 
HETATM    2  N   UNL     1       7.964  24.931  54.081  1.00  0.00    -0.207 NA
HETATM    3  C   UNL     1       7.833  24.255  52.932  1.00  0.00     0.181 A 
HETATM    4  N   UNL     1       7.848  22.930  52.862  1.00  0.00    -0.330 N 
HETATM    5  H   UNL     1       7.651  22.514  51.962  1.00  0.00     0.168 HD
HETATM    6  C   UNL     1       8.073  22.180  53.945  1.00  0.00     0.048 A 
HETATM    7  C   UNL     1       8.269  22.814  55.189  1.00  0.00     0.031 A 
HETATM    8  C   UNL     1       8.109  20.783  53.833  1.00  0.00     0.030 A 
HETATM    9  C   UNL     1       8.359  19.997  54.956  1.00  0.00     0.002 A 
HETATM   10  C   UNL     1       8.581  20.600  56.190  1.00  0.00     0.001 A 
HETATM   11  C   UNL     1       8.540  21.993  56.309  1.00  0.00     0.017 A 
ENDROOT
BRANCH   1  12
HETATM   12  N   UNL     1       8.309  24.914  56.423  1.00  0.00    -0.272 NA
HETATM   13  H   UNL     1       8.893  24.392  57.071  1.00  0.00     0.129 HD
BRANCH  12  14
HETATM   14  C   UNL     1       7.085  25.322  57.129  1.00  0.00     0.135 C 
BRANCH  14  15
HETATM   15  C   UNL     1       6.503  26.633  56.653  1.00  0.00    -0.012 A 
HETATM   16  C   UNL     1       7.328  27.775  56.675  1.00  0.00     0.075 A 
HETATM   17  C   UNL     1       6.870  29.000  56.181  1.00  0.00     0.037 A 
HETATM   18  C   UNL     1       5.565  29.110  55.702  1.00  0.00     0.003 A 
HETATM   19  C   UNL     1       4.725  28.000  55.710  1.00  0.00     0.001 A 
HETATM   20  C   UNL     1       5.191  26.768  56.177  1.00  0.00     0.011 A 
BRANCH  16  21
HETATM   21  O   UNL     1       8.611  27.607  57.134  1.00  0.00    -0.355 OA
HETATM   22  C   UNL     1       9.378  28.810  57.128  1.00  0.00     0.210 C 
ENDBRANCH  16  21
ENDBRANCH  14  15
ENDBRANCH  12  14
ENDBRANCH   1  12
BRANCH   3  23
HETATM   23  N   UNL     1       7.589  24.993  51.784  1.00  0.00    -0.259 NA
HETATM   24  H   UNL     1       7.402  24.289  51.063  1.00  0.00     0.130 HD
BRANCH  23  25
HETATM   25  C   UNL     1       6.500  25.955  51.850  1.00  0.00     0.121 C 
BRANCH  25  26
HETATM   26  C   UNL     1       5.219  25.178  51.898  1.00  0.00    -0.022 C 
HETATM   27  C   UNL     1       4.493  24.946  53.001  1.00  0.00     0.008 C 
ENDBRANCH  25  26
ENDBRANCH  23  25
ENDBRANCH   3  23
TORSDOF 7
ENDMDL
MODEL 5
REMARK VINA RESULT:      -8.1      1.287      2.147
REMARK  7 active torsions:
REMARK  status: ('A' for Active; 'I' for Inactive)
REMARK    1  A    between atoms: O_2  and  C_3 
REMARK    2  A    between atoms: C_4  and  C_5 
REMARK    3  A    between atoms: C_5  and  N_6 
REMARK    4  A    between atoms: N_6  and  C_7 
REMARK    5  A    between atoms: C_9  and  N_10 
REMARK    6  A    between atoms: N_10  and  C_11 
REMARK    7  A    between atoms: C_11  and  C_12 
ROOT
HETATM    1  C   UNL     1       6.448  26.353  55.289  1.00  0.00     0.119 A 
HETATM    2  N   UNL     1       7.257  26.651  56.324  1.00  0.00    -0.207 NA
HETATM    3  C   UNL     1       7.190  27.885  56.840  1.00  0.00     0.181 A 
HETATM    4  N   UNL     1       6.346  28.811  56.403  1.00  0.00    -0.330 N 
HETATM    5  H   UNL     1       6.309  29.681  56.917  1.00  0.00     0.168 HD
HETATM    6  C   UNL     1       5.551  28.586  55.353  1.00  0.00     0.048 A 
HETATM    7  C   UNL     1       5.592  27.326  54.720  1.00  0.00     0.031 A 
HETATM    8  C   UNL     1       4.689  29.594  54.898  1.00  0.00     0.030 A 
HETATM    9  C   UNL     1       3.868  29.369  53.795  1.00  0.00     0.002 A 
HETATM   10  C   UNL     1       3.911  28.143  53.138  1.00  0.00     0.001 A 
HETATM   11  C   UNL     1       4.763  27.132  53.590  1.00  0.00     0.017 A 
ENDROOT
BRANCH   1  12
HETATM   12  N   UNL     1       6.515  25.072  54.724  1.00  0.00    -0.272 NA
HETATM   13  H   UNL     1       6.409  24.351  55.434  1.00  0.00     0.129 HD
BRANCH  12  14
HETATM   14  C   UNL     1       7.701  24.754  53.914  1.00  0.00     0.135 C 
BRANCH  14  15
HETATM   15  C   UNL     1       8.090  23.294  53.932  1.00  0.00    -0.012 A 
HETATM   16  C   UNL     1       8.788  22.804  55.054  1.00  0.00     0.075 A 
HETATM   17  C   UNL     1       9.112  21.449  55.161  1.00  0.00     0.037 A 
HETATM   18  C   UNL     1       8.785  20.574  54.126  1.00  0.00     0.003 A 
HETATM   19  C   UNL     1       8.129  21.049  52.994  1.00  0.00     0.001 A 
HETATM   20  C   UNL     1       7.779  22.399  52.899  1.00  0.00     0.011 A 
BRANCH  16  21
HETATM   21  O   UNL     1       9.065  23.702  56.055  1.00  0.00    -0.355 OA
HETATM   22  C   UNL     1       8.446  23.376  57.297  1.00  0.00     0.210 C 
ENDBRANCH  16  21
ENDBRANCH  14  15
ENDBRANCH  12  14
ENDBRANCH   1  12
BRANCH   3  23
HETATM   23  N   UNL     1       7.992  28.161  57.937  1.00  0.00    -0.259 NA
HETATM   24  H   UNL     1       8.625  27.357  57.998  1.00  0.00     0.130 HD
BRANCH  23  25
HETATM   25  C   UNL     1       8.749  29.402  57.891  1.00  0.00     0.121 C 
BRANCH  25  26
HETATM   26  C   UNL     1       9.904  29.188  56.960  1.00  0.00    -0.022 C 
HETATM   27  C   UNL     1      11.113  29.755  57.080  1.00  0.00     0.008 C 
ENDBRANCH  25  26
ENDBRANCH  23  25
ENDBRANCH   3  23
TORSDOF 7
ENDMDL
MODEL 6
REMARK VINA RESULT:      -8.0      3.478      5.762
REMARK  7 active torsions:
REMARK  status: ('A' for Active; 'I' for Inactive)
REMARK    1  A    between atoms: O_2  and  C_3 
REMARK    2  A    between atoms: C_4  and  C_5 
REMARK    3  A    between atoms: C_5  and  N_6 
REMARK    4  A    between atoms: N_6  and  C_7 
REMARK    5  A    between atoms: C_9  and  N_10 
REMARK    6  A    between atoms: N_10  and  C_11 
REMARK    7  A    between atoms: C_11  and  C_12 
ROOT
HETATM    1  C   UNL     1       5.636  25.624  52.761  1.00  0.00     0.119 A 
HETATM    2  N   UNL     1       5.576  25.660  51.416  1.00  0.00    -0.207 NA
HETATM    3  C   UNL     1       5.176  26.798  50.834  1.00  0.00     0.181 A 
HETATM    4  N   UNL     1       4.868  27.893  51.516  1.00  0.00    -0.330 N 
HETATM    5  H   UNL     1       4.664  28.727  50.981  1.00  0.00     0.168 HD
HETATM    6  C   UNL     1       4.868  27.904  52.852  1.00  0.00     0.048 A 
HETATM    7  C   UNL     1       5.233  26.731  53.546  1.00  0.00     0.031 A 
HETATM    8  C   UNL     1       4.512  29.070  53.544  1.00  0.00     0.030 A 
HETATM    9  C   UNL     1       4.497  29.082  54.936  1.00  0.00     0.002 A 
HETATM   10  C   UNL     1       4.827  27.930  55.643  1.00  0.00     0.001 A 
HETATM   11  C   UNL     1       5.189  26.765  54.960  1.00  0.00     0.017 A 
ENDROOT
BRANCH   1  12
HETATM   12  N   UNL     1       6.037  24.437  53.390  1.00  0.00    -0.272 NA
HETATM   13  H   UNL     1       5.807  24.450  54.380  1.00  0.00     0.129 HD
BRANCH  12  14
HETATM   14  C   UNL     1       7.446  24.041  53.247  1.00  0.00     0.135 C 
BRANCH  14  15
HETATM   15  C   UNL     1       7.763  22.669  53.796  1.00  0.00    -0.012 A 
HETATM   16  C   UNL     1       7.642  22.462  55.184  1.00  0.00     0.075 A 
HETATM   17  C   UNL     1       7.851  21.198  55.741  1.00  0.00     0.037 A 
HETATM   18  C   UNL     1       8.232  20.134  54.924  1.00  0.00     0.003 A 
HETATM   19  C   UNL     1       8.394  20.332  53.555  1.00  0.00     0.001 A 
HETATM   20  C   UNL     1       8.156  21.589  52.993  1.00  0.00     0.011 A 
BRANCH  16  21
HETATM   21  O   UNL     1       7.241  23.536  55.940  1.00  0.00    -0.355 OA
HETATM   22  C   UNL     1       8.198  23.925  56.924  1.00  0.00     0.210 C 
ENDBRANCH  16  21
ENDBRANCH  14  15
ENDBRANCH  12  14
ENDBRANCH   1  12
BRANCH   3  23
HETATM   23  N   UNL     1       5.168  26.835  49.449  1.00  0.00    -0.259 NA
HETATM   24  H   UNL     1       5.600  25.949  49.167  1.00  0.00     0.130 HD
BRANCH  23  25
HETATM   25  C   UNL     1       3.870  26.992  48.811  1.00  0.00     0.121 C 
BRANCH  25  26
HETATM   26  C   UNL     1       3.432  25.635  48.346  1.00  0.00    -0.022 C 
HETATM   27  C   UNL     1       2.858  25.367  47.165  1.00  0.00     0.008 C 
ENDBRANCH  25  26
ENDBRANCH  23  25
ENDBRANCH   3  23
TORSDOF 7
ENDMDL
MODEL 7
REMARK VINA RESULT:      -7.9      2.438      4.705
REMARK  7 active torsions:
REMARK  status: ('A' for Active; 'I' for Inactive)
REMARK    1  A    between atoms: O_2  and  C_3 
REMARK    2  A    between atoms: C_4  and  C_5 
REMARK    3  A    between atoms: C_5  and  N_6 
REMARK    4  A    between atoms: N_6  and  C_7 
REMARK    5  A    between atoms: C_9  and  N_10 
REMARK    6  A    between atoms: N_10  and  C_11 
REMARK    7  A    between atoms: C_11  and  C_12 
ROOT
HETATM    1  C   UNL     1       7.256  26.483  54.114  1.00  0.00     0.119 A 
HETATM    2  N   UNL     1       6.693  26.905  52.966  1.00  0.00    -0.207 NA
HETATM    3  C   UNL     1       6.163  28.134  52.940  1.00  0.00     0.181 A 
HETATM    4  N   UNL     1       6.196  28.962  53.976  1.00  0.00    -0.330 N 
HETATM    5  H   UNL     1       5.849  29.900  53.827  1.00  0.00     0.168 HD
HETATM    6  C   UNL     1       6.703  28.583  55.153  1.00  0.00     0.048 A 
HETATM    7  C   UNL     1       7.240  27.285  55.280  1.00  0.00     0.031 A 
HETATM    8  C   UNL     1       6.698  29.472  56.236  1.00  0.00     0.030 A 
HETATM    9  C   UNL     1       7.212  29.077  57.469  1.00  0.00     0.002 A 
HETATM   10  C   UNL     1       7.724  27.792  57.627  1.00  0.00     0.001 A 
HETATM   11  C   UNL     1       7.737  26.903  56.549  1.00  0.00     0.017 A 
ENDROOT
BRANCH   1  12
HETATM   12  N   UNL     1       7.801  25.192  54.167  1.00  0.00    -0.272 NA
HETATM   13  H   UNL     1       8.710  25.158  53.712  1.00  0.00     0.129 HD
BRANCH  12  14
HETATM   14  C   UNL     1       6.979  24.091  53.644  1.00  0.00     0.135 C 
BRANCH  14  15
HETATM   15  C   UNL     1       7.543  22.715  53.912  1.00  0.00    -0.012 A 
HETATM   16  C   UNL     1       7.739  22.324  55.251  1.00  0.00     0.075 A 
HETATM   17  C   UNL     1       8.189  21.039  55.565  1.00  0.00     0.037 A 
HETATM   18  C   UNL     1       8.496  20.143  54.542  1.00  0.00     0.003 A 
HETATM   19  C   UNL     1       8.345  20.527  53.212  1.00  0.00     0.001 A 
HETATM   20  C   UNL     1       7.867  21.802  52.898  1.00  0.00     0.011 A 
BRANCH  16  21
HETATM   21  O   UNL     1       7.399  23.236  56.221  1.00  0.00    -0.355 OA
HETATM   22  C   UNL     1       8.403  23.402  57.220  1.00  0.00     0.210 C 
ENDBRANCH  16  21
ENDBRANCH  14  15
ENDBRANCH  12  14
ENDBRANCH   1  12
BRANCH   3  23
HETATM   23  N   UNL     1       5.633  28.573  51.736  1.00  0.00    -0.259 NA
HETATM   24  H   UNL     1       6.426  28.557  51.087  1.00  0.00     0.130 HD
BRANCH  23  25
HETATM   25  C   UNL     1       4.521  27.805  51.198  1.00  0.00     0.121 C 
BRANCH  25  26
HETATM   26  C   UNL     1       4.957  27.249  49.876  1.00  0.00    -0.022 C 
HETATM   27  C   UNL     1       4.156  26.657  48.980  1.00  0.00     0.008 C 
ENDBRANCH  25  26
ENDBRANCH  23  25
ENDBRANCH   3  23
TORSDOF 7
ENDMDL
MODEL 8
REMARK VINA RESULT:      -7.9      2.118      4.788
REMARK  7 active torsions:
REMARK  status: ('A' for Active; 'I' for Inactive)
REMARK    1  A    between atoms: O_2  and  C_3 
REMARK    2  A    between atoms: C_4  and  C_5 
REMARK    3  A    between atoms: C_5  and  N_6 
REMARK    4  A    between atoms: N_6  and  C_7 
REMARK    5  A    between atoms: C_9  and  N_10 
REMARK    6  A    between atoms: N_10  and  C_11 
REMARK    7  A    between atoms: C_11  and  C_12 
ROOT
HETATM    1  C   UNL     1       7.484  28.737  55.929  1.00  0.00     0.119 A 
HETATM    2  N   UNL     1       6.209  28.687  56.362  1.00  0.00    -0.207 NA
HETATM    3  C   UNL     1       5.899  29.352  57.482  1.00  0.00     0.181 A 
HETATM    4  N   UNL     1       6.776  30.078  58.162  1.00  0.00    -0.330 N 
HETATM    5  H   UNL     1       6.423  30.614  58.944  1.00  0.00     0.168 HD
HETATM    6  C   UNL     1       8.062  30.129  57.804  1.00  0.00     0.048 A 
HETATM    7  C   UNL     1       8.484  29.420  56.661  1.00  0.00     0.031 A 
HETATM    8  C   UNL     1       8.970  30.885  58.560  1.00  0.00     0.030 A 
HETATM    9  C   UNL     1      10.314  30.930  58.199  1.00  0.00     0.002 A 
HETATM   10  C   UNL     1      10.759  30.217  57.091  1.00  0.00     0.001 A 
HETATM   11  C   UNL     1       9.859  29.467  56.329  1.00  0.00     0.017 A 
ENDROOT
BRANCH   1  12
HETATM   12  N   UNL     1       7.832  28.034  54.766  1.00  0.00    -0.272 NA
HETATM   13  H   UNL     1       8.162  28.665  54.040  1.00  0.00     0.129 HD
BRANCH  12  14
HETATM   14  C   UNL     1       6.813  27.148  54.183  1.00  0.00     0.135 C 
BRANCH  14  15
HETATM   15  C   UNL     1       7.296  25.742  53.914  1.00  0.00    -0.012 A 
HETATM   16  C   UNL     1       7.464  24.873  55.010  1.00  0.00     0.075 A 
HETATM   17  C   UNL     1       7.839  23.541  54.818  1.00  0.00     0.037 A 
HETATM   18  C   UNL     1       8.098  23.072  53.532  1.00  0.00     0.003 A 
HETATM   19  C   UNL     1       7.974  23.928  52.440  1.00  0.00     0.001 A 
HETATM   20  C   UNL     1       7.571  25.253  52.629  1.00  0.00     0.011 A 
BRANCH  16  21
HETATM   21  O   UNL     1       7.173  25.378  56.254  1.00  0.00    -0.355 OA
HETATM   22  C   UNL     1       8.253  25.265  57.179  1.00  0.00     0.210 C 
ENDBRANCH  16  21
ENDBRANCH  14  15
ENDBRANCH  12  14
ENDBRANCH   1  12
BRANCH   3  23
HETATM   23  N   UNL     1       4.573  29.332  57.887  1.00  0.00    -0.259 NA
HETATM   24  H   UNL     1       4.601  28.941  58.833  1.00  0.00     0.130 HD
BRANCH  23  25
HETATM   25  C   UNL     1       3.875  30.609  57.886  1.00  0.00     0.121 C 
BRANCH  25  26
HETATM   26  C   UNL     1       2.981  30.629  56.683  1.00  0.00    -0.022 C 
HETATM   27  C   UNL     1       3.087  31.478  55.651  1.00  0.00     0.008 C 
ENDBRANCH  25  26
ENDBRANCH  23  25
ENDBRANCH   3  23
TORSDOF 7
ENDMDL
MODEL 9
REMARK VINA RESULT:      -7.8      1.881      2.610
REMARK  7 active torsions:
REMARK  status: ('A' for Active; 'I' for Inactive)
REMARK    1  A    between atoms: O_2  and  C_3 
REMARK    2  A    between atoms: C_4  and  C_5 
REMARK    3  A    between atoms: C_5  and  N_6 
REMARK    4  A    between atoms: N_6  and  C_7 
REMARK    5  A    between atoms: C_9  and  N_10 
REMARK    6  A    between atoms: N_10  and  C_11 
REMARK    7  A    between atoms: C_11  and  C_12 
ROOT
HETATM    1  C   UNL     1       7.339  27.849  56.773  1.00  0.00     0.119 A 
HETATM    2  N   UNL     1       8.149  28.293  57.753  1.00  0.00    -0.207 NA
HETATM    3  C   UNL     1       7.747  29.349  58.472  1.00  0.00     0.181 A 
HETATM    4  N   UNL     1       6.582  29.954  58.285  1.00  0.00    -0.330 N 
HETATM    5  H   UNL     1       6.332  30.685  58.938  1.00  0.00     0.168 HD
HETATM    6  C   UNL     1       5.757  29.584  57.301  1.00  0.00     0.048 A 
HETATM    7  C   UNL     1       6.125  28.509  56.466  1.00  0.00     0.031 A 
HETATM    8  C   UNL     1       4.543  30.262  57.113  1.00  0.00     0.030 A 
HETATM    9  C   UNL     1       3.686  29.889  56.080  1.00  0.00     0.002 A 
HETATM   10  C   UNL     1       4.040  28.849  55.226  1.00  0.00     0.001 A 
HETATM   11  C   UNL     1       5.245  28.166  55.412  1.00  0.00     0.017 A 
ENDROOT
BRANCH   1  12
HETATM   12  N   UNL     1       7.749  26.755  55.998  1.00  0.00    -0.272 NA
HETATM   13  H   UNL     1       7.312  26.770  55.080  1.00  0.00     0.129 HD
BRANCH  12  14
HETATM   14  C   UNL     1       7.568  25.414  56.575  1.00  0.00     0.135 C 
BRANCH  14  15
HETATM   15  C   UNL     1       7.872  24.283  55.621  1.00  0.00    -0.012 A 
HETATM   16  C   UNL     1       7.040  24.116  54.497  1.00  0.00     0.075 A 
HETATM   17  C   UNL     1       7.313  23.134  53.542  1.00  0.00     0.037 A 
HETATM   18  C   UNL     1       8.394  22.273  53.722  1.00  0.00     0.003 A 
HETATM   19  C   UNL     1       9.204  22.399  54.848  1.00  0.00     0.001 A 
HETATM   20  C   UNL     1       8.949  23.400  55.789  1.00  0.00     0.011 A 
BRANCH  16  21
HETATM   21  O   UNL     1       6.003  25.005  54.355  1.00  0.00    -0.355 OA
HETATM   22  C   UNL     1       5.303  24.868  53.119  1.00  0.00     0.210 C 
ENDBRANCH  16  21
ENDBRANCH  14  15
ENDBRANCH  12  14
ENDBRANCH   1  12
BRANCH   3  23
HETATM   23  N   UNL     1       8.569  29.762  59.509  1.00  0.00    -0.259 NA
HETATM   24  H   UNL     1       9.117  28.929  59.748  1.00  0.00     0.130 HD
BRANCH  23  25
HETATM   25  C   UNL     1       9.450  30.886  59.232  1.00  0.00     0.121 C 
BRANCH  25  26
HETATM   26  C   UNL     1       9.177  31.935  60.267  1.00  0.00    -0.022 C 
HETATM   27  C   UNL     1       9.669  31.942  61.514  1.00  0.00     0.008 C 
ENDBRANCH  25  26
ENDBRANCH  23  25
ENDBRANCH   3  23
TORSDOF 7
ENDMDL
MODEL 10
REMARK VINA RESULT:      -7.6      1.924      4.047
REMARK  7 active torsions:
REMARK  status: ('A' for Active; 'I' for Inactive)
REMARK    1  A    between atoms: O_2  and  C_3 
REMARK    2  A    between atoms: C_4  and  C_5 
REMARK    3  A    between atoms: C_5  and  N_6 
REMARK    4  A    between atoms: N_6  and  C_7 
REMARK    5  A    between atoms: C_9  and  N_10 
REMARK    6  A    between atoms: N_10  and  C_11 
REMARK    7  A    between atoms: C_11  and  C_12 
ROOT
HETATM    1  C   UNL     1       6.791  26.248  55.318  1.00  0.00     0.119 A 
HETATM    2  N   UNL     1       5.761  26.194  54.451  1.00  0.00    -0.207 NA
HETATM    3  C   UNL     1       5.035  27.303  54.267  1.00  0.00     0.181 A 
HETATM    4  N   UNL     1       5.301  28.455  54.869  1.00  0.00    -0.330 N 
HETATM    5  H   UNL     1       4.749  29.257  54.595  1.00  0.00     0.168 HD
HETATM    6  C   UNL     1       6.282  28.557  55.770  1.00  0.00     0.048 A 
HETATM    7  C   UNL     1       7.068  27.421  56.059  1.00  0.00     0.031 A 
HETATM    8  C   UNL     1       6.521  29.782  56.410  1.00  0.00     0.030 A 
HETATM    9  C   UNL     1       7.534  29.890  57.360  1.00  0.00     0.002 A 
HETATM   10  C   UNL     1       8.304  28.777  57.682  1.00  0.00     0.001 A 
HETATM   11  C   UNL     1       8.076  27.555  57.043  1.00  0.00     0.017 A 
ENDROOT
BRANCH   1  12
HETATM   12  N   UNL     1       7.553  25.092  55.538  1.00  0.00    -0.272 NA
HETATM   13  H   UNL     1       8.213  24.938  54.781  1.00  0.00     0.129 HD
BRANCH  12  14
HETATM   14  C   UNL     1       6.823  23.839  55.779  1.00  0.00     0.135 C 
BRANCH  14  15
HETATM   15  C   UNL     1       7.440  22.626  55.121  1.00  0.00    -0.012 A 
HETATM   16  C   UNL     1       7.488  22.584  53.714  1.00  0.00     0.075 A 
HETATM   17  C   UNL     1       8.110  21.523  53.050  1.00  0.00     0.037 A 
HETATM   18  C   UNL     1       8.649  20.467  53.782  1.00  0.00     0.003 A 
HETATM   19  C   UNL     1       8.575  20.475  55.173  1.00  0.00     0.001 A 
HETATM   20  C   UNL     1       7.980  21.549  55.839  1.00  0.00     0.011 A 
BRANCH  16  21
HETATM   21  O   UNL     1       6.964  23.660  53.041  1.00  0.00    -0.355 OA
HETATM   22  C   UNL     1       7.905  24.309  52.188  1.00  0.00     0.210 C 
ENDBRANCH  16  21
ENDBRANCH  14  15
ENDBRANCH  12  14
ENDBRANCH   1  12
BRANCH   3  23
HETATM   23  N   UNL     1       4.011  27.245  53.334  1.00  0.00    -0.259 NA
HETATM   24  H   UNL     1       3.157  27.174  53.897  1.00  0.00     0.130 HD
BRANCH  23  25
HETATM   25  C   UNL     1       3.914  28.360  52.405  1.00  0.00     0.121 C 
BRANCH  25  26
HETATM   26  C   UNL     1       4.523  27.918  51.109  1.00  0.00    -0.022 C 
HETATM   27  C   UNL     1       4.996  26.690  50.853  1.00  0.00     0.008 C 
ENDBRANCH  25  26
ENDBRANCH  23  25
ENDBRANCH   3  23
TORSDOF 7
ENDMDL
