MODEL 1
REMARK VINA RESULT:     -10.8      0.000      0.000
REMARK  5 active torsions:
REMARK  status: ('A' for Active; 'I' for Inactive)
REMARK    1  A    between atoms: C_4  and  C_5 
REMARK       I    between atoms: C_5  and  N_6 
REMARK    2  A    between atoms: N_6  and  C_7 
REMARK    3  A    between atoms: C_7  and  C_8 
REMARK       I    between atoms: C_8  and  N_9 
REMARK    4  A    between atoms: N_9  and  C_10 
REMARK    5  A    between atoms: C_13  and  C_14 
ROOT
HETATM    1  C   UNL     1       9.334  29.799  57.450  1.00  0.00     0.241 C 
HETATM    2  N   UNL     1       8.422  28.969  58.057  1.00  0.00    -0.304 N 
HETATM    3  O   UNL     1       9.815  29.664  56.327  1.00  0.00    -0.271 OA
HETATM    4  H   UNL     1       8.212  29.097  59.041  1.00  0.00     0.171 HD
ENDROOT
BRANCH   2   5
HETATM    5  C   UNL     1       7.887  27.868  57.457  1.00  0.00     0.173 A 
HETATM    6  S   UNL     1       6.249  28.059  57.013  1.00  0.00    -0.061 SA
HETATM    7  C   UNL     1       6.242  26.442  56.433  1.00  0.00     0.086 A 
HETATM    8  C   UNL     1       7.487  25.874  56.620  1.00  0.00     0.078 A 
HETATM    9  N   UNL     1       8.432  26.712  57.191  1.00  0.00    -0.223 NA
BRANCH   8  10
HETATM   10  C   UNL     1       7.880  24.485  56.360  1.00  0.00     0.021 A 
HETATM   11  C   UNL     1       7.865  23.784  55.113  1.00  0.00     0.004 A 
HETATM   12  C   UNL     1       8.261  22.469  55.389  1.00  0.00     0.043 A 
HETATM   13  C   UNL     1       7.567  24.110  53.771  1.00  0.00     0.014 A 
HETATM   14  C   UNL     1       8.340  21.473  54.407  1.00  0.00     0.030 A 
HETATM   15  N   UNL     1       8.536  22.396  56.735  1.00  0.00    -0.364 N 
HETATM   16  C   UNL     1       8.021  21.825  53.094  1.00  0.00     0.002 A 
HETATM   17  C   UNL     1       7.645  23.126  52.777  1.00  0.00     0.001 A 
HETATM   18  H   UNL     1       8.853  21.564  57.213  1.00  0.00     0.165 HD
HETATM   19  C   UNL     1       8.322  23.606  57.327  1.00  0.00     0.103 A 
ENDBRANCH   8  10
ENDBRANCH   2   5
BRANCH   1  20
HETATM   20  C   UNL     1       9.875  30.896  58.385  1.00  0.00     0.226 C 
BRANCH  20  21
HETATM   21  N   UNL     1       8.898  31.588  59.222  1.00  0.00    -0.348 N 
HETATM   22  C   UNL     1       8.673  31.230  60.529  1.00  0.00     0.252 C 
HETATM   23  O   UNL     1       9.098  30.176  60.992  1.00  0.00    -0.268 OA
HETATM   24  H   UNL     1       8.402  32.372  58.818  1.00  0.00     0.163 HD
BRANCH  22  25
HETATM   25  C   UNL     1       7.808  32.121  61.342  1.00  0.00     0.033 A 
HETATM   26  C   UNL     1       6.675  32.672  60.731  1.00  0.00     0.023 A 
HETATM   27  C   UNL     1       5.816  33.505  61.455  1.00  0.00    -0.061 A 
HETATM   28  C   UNL     1       4.620  34.130  60.797  1.00  0.00     0.048 C 
HETATM   29  C   UNL     1       6.105  33.779  62.798  1.00  0.00     0.013 A 
HETATM   30  C   UNL     1       7.221  33.209  63.429  1.00  0.00    -0.061 A 
HETATM   31  C   UNL     1       8.079  32.383  62.691  1.00  0.00     0.023 A 
HETATM   32  C   UNL     1       7.494  33.509  64.874  1.00  0.00     0.048 C 
ENDBRANCH  22  25
ENDBRANCH  20  21
ENDBRANCH   1  20
TORSDOF 5
ENDMDL
MODEL 2
REMARK VINA RESULT:     -10.7      0.407      1.650
REMARK  5 active torsions:
REMARK  status: ('A' for Active; 'I' for Inactive)
REMARK    1  A    between atoms: C_4  and  C_5 
REMARK       I    between atoms: C_5  and  N_6 
REMARK    2  A    between atoms: N_6  and  C_7 
REMARK    3  A    between atoms: C_7  and  C_8 
REMARK       I    between atoms: C_8  and  N_9 
REMARK    4  A    between atoms: N_9  and  C_10 
REMARK    5  A    between atoms: C_13  and  C_14 
ROOT
HETATM    1  C   UNL     1       9.650  29.869  57.261  1.00  0.00     0.241 C 
HETATM    2  N   UNL     1       8.670  29.033  57.742  1.00  0.00    -0.304 N 
HETATM    3  O   UNL     1      10.244  29.764  56.191  1.00  0.00    -0.271 OA
HETATM    4  H   UNL     1       8.360  29.134  58.702  1.00  0.00     0.171 HD
ENDROOT
BRANCH   2   5
HETATM    5  C   UNL     1       8.190  27.960  57.054  1.00  0.00     0.173 A 
HETATM    6  S   UNL     1       6.822  28.316  56.095  1.00  0.00    -0.061 SA
HETATM    7  C   UNL     1       6.753  26.668  55.621  1.00  0.00     0.086 A 
HETATM    8  C   UNL     1       7.775  25.964  56.226  1.00  0.00     0.078 A 
HETATM    9  N   UNL     1       8.609  26.724  57.033  1.00  0.00    -0.223 NA
BRANCH   8  10
HETATM   10  C   UNL     1       8.015  24.518  56.173  1.00  0.00     0.021 A 
HETATM   11  C   UNL     1       7.949  23.656  55.034  1.00  0.00     0.004 A 
HETATM   12  C   UNL     1       8.188  22.357  55.501  1.00  0.00     0.043 A 
HETATM   13  C   UNL     1       7.721  23.822  53.649  1.00  0.00     0.014 A 
HETATM   14  C   UNL     1       8.177  21.231  54.668  1.00  0.00     0.030 A 
HETATM   15  N   UNL     1       8.422  22.443  56.854  1.00  0.00    -0.364 N 
HETATM   16  C   UNL     1       7.930  21.429  53.308  1.00  0.00     0.002 A 
HETATM   17  C   UNL     1       7.711  22.706  52.802  1.00  0.00     0.001 A 
HETATM   18  H   UNL     1       8.632  21.656  57.453  1.00  0.00     0.165 HD
HETATM   19  C   UNL     1       8.333  23.740  57.267  1.00  0.00     0.103 A 
ENDBRANCH   8  10
ENDBRANCH   2   5
BRANCH   1  20
HETATM   20  C   UNL     1      10.101  30.929  58.283  1.00  0.00     0.226 C 
BRANCH  20  21
HETATM   21  N   UNL     1       9.051  31.585  59.058  1.00  0.00    -0.348 N 
HETATM   22  C   UNL     1       8.716  31.175  60.326  1.00  0.00     0.252 C 
HETATM   23  O   UNL     1       9.105  30.104  60.783  1.00  0.00    -0.268 OA
HETATM   24  H   UNL     1       8.586  32.382  58.643  1.00  0.00     0.163 HD
BRANCH  22  25
HETATM   25  C   UNL     1       7.778  32.030  61.095  1.00  0.00     0.033 A 
HETATM   26  C   UNL     1       8.089  32.309  62.432  1.00  0.00     0.023 A 
HETATM   27  C   UNL     1       7.248  33.122  63.199  1.00  0.00    -0.061 A 
HETATM   28  C   UNL     1       7.554  33.394  64.643  1.00  0.00     0.048 C 
HETATM   29  C   UNL     1       6.093  33.654  62.610  1.00  0.00     0.013 A 
HETATM   30  C   UNL     1       5.788  33.406  61.263  1.00  0.00    -0.061 A 
HETATM   31  C   UNL     1       6.633  32.582  60.509  1.00  0.00     0.023 A 
HETATM   32  C   UNL     1       4.552  34.004  60.658  1.00  0.00     0.048 C 
ENDBRANCH  22  25
ENDBRANCH  20  21
ENDBRANCH   1  20
TORSDOF 5
ENDMDL
MODEL 3
REMARK VINA RESULT:     -10.7      1.456      2.049
REMARK  5 active torsions:
REMARK  status: ('A' for Active; 'I' for Inactive)
REMARK    1  A    between atoms: C_4  and  C_5 
REMARK       I    between atoms: C_5  and  N_6 
REMARK    2  A    between atoms: N_6  and  C_7 
REMARK    3  A    between atoms: C_7  and  C_8 
REMARK       I    between atoms: C_8  and  N_9 
REMARK    4  A    between atoms: N_9  and  C_10 
REMARK    5  A    between atoms: C_13  and  C_14 
ROOT
HETATM    1  C   UNL     1       8.696  28.914  56.744  1.00  0.00     0.241 C 
HETATM    2  N   UNL     1       8.137  27.787  57.298  1.00  0.00    -0.304 N 
HETATM    3  O   UNL     1       8.700  29.223  55.555  1.00  0.00    -0.271 OA
HETATM    4  H   UNL     1       8.326  27.565  58.269  1.00  0.00     0.171 HD
ENDROOT
BRANCH   2   5
HETATM    5  C   UNL     1       7.460  26.849  56.578  1.00  0.00     0.173 A 
HETATM    6  S   UNL     1       5.761  27.009  56.668  1.00  0.00    -0.061 SA
HETATM    7  C   UNL     1       5.600  25.618  55.676  1.00  0.00     0.086 A 
HETATM    8  C   UNL     1       6.850  25.130  55.347  1.00  0.00     0.078 A 
HETATM    9  N   UNL     1       7.913  25.861  55.855  1.00  0.00    -0.223 NA
BRANCH   8  10
HETATM   10  C   UNL     1       7.161  23.904  54.605  1.00  0.00     0.021 A 
HETATM   11  C   UNL     1       7.656  22.665  55.120  1.00  0.00     0.004 A 
HETATM   12  C   UNL     1       7.860  21.827  54.017  1.00  0.00     0.043 A 
HETATM   13  C   UNL     1       7.951  22.146  56.401  1.00  0.00     0.014 A 
HETATM   14  C   UNL     1       8.369  20.526  54.129  1.00  0.00     0.030 A 
HETATM   15  N   UNL     1       7.470  22.521  52.895  1.00  0.00    -0.364 N 
HETATM   16  C   UNL     1       8.667  20.051  55.407  1.00  0.00     0.002 A 
HETATM   17  C   UNL     1       8.457  20.845  56.530  1.00  0.00     0.001 A 
HETATM   18  H   UNL     1       7.501  22.156  51.953  1.00  0.00     0.165 HD
HETATM   19  C   UNL     1       7.036  23.768  53.238  1.00  0.00     0.103 A 
ENDBRANCH   8  10
ENDBRANCH   2   5
BRANCH   1  20
HETATM   20  C   UNL     1       9.511  29.746  57.751  1.00  0.00     0.226 C 
BRANCH  20  21
HETATM   21  N   UNL     1       8.780  30.310  58.882  1.00  0.00    -0.348 N 
HETATM   22  C   UNL     1       8.940  31.618  59.275  1.00  0.00     0.252 C 
HETATM   23  O   UNL     1       9.864  32.310  58.857  1.00  0.00    -0.268 OA
HETATM   24  H   UNL     1       8.120  29.714  59.363  1.00  0.00     0.163 HD
BRANCH  22  25
HETATM   25  C   UNL     1       8.009  32.140  60.306  1.00  0.00     0.033 A 
HETATM   26  C   UNL     1       6.696  32.435  59.917  1.00  0.00     0.023 A 
HETATM   27  C   UNL     1       5.772  32.915  60.851  1.00  0.00    -0.061 A 
HETATM   28  C   UNL     1       4.375  33.269  60.433  1.00  0.00     0.048 C 
HETATM   29  C   UNL     1       6.178  33.095  62.179  1.00  0.00     0.013 A 
HETATM   30  C   UNL     1       7.482  32.774  62.587  1.00  0.00    -0.061 A 
HETATM   31  C   UNL     1       8.401  32.303  61.640  1.00  0.00     0.023 A 
HETATM   32  C   UNL     1       7.881  32.963  64.021  1.00  0.00     0.048 C 
ENDBRANCH  22  25
ENDBRANCH  20  21
ENDBRANCH   1  20
TORSDOF 5
ENDMDL
MODEL 4
REMARK VINA RESULT:     -10.4      1.512      1.658
REMARK  5 active torsions:
REMARK  status: ('A' for Active; 'I' for Inactive)
REMARK    1  A    between atoms: C_4  and  C_5 
REMARK       I    between atoms: C_5  and  N_6 
REMARK    2  A    between atoms: N_6  and  C_7 
REMARK    3  A    between atoms: C_7  and  C_8 
REMARK       I    between atoms: C_8  and  N_9 
REMARK    4  A    between atoms: N_9  and  C_10 
REMARK    5  A    between atoms: C_13  and  C_14 
ROOT
HETATM    1  C   UNL     1       7.573  28.952  57.494  1.00  0.00     0.241 C 
HETATM    2  N   UNL     1       7.102  28.632  56.243  1.00  0.00    -0.304 N 
HETATM    3  O   UNL     1       7.861  28.166  58.392  1.00  0.00    -0.271 OA
HETATM    4  H   UNL     1       6.757  29.370  55.638  1.00  0.00     0.171 HD
ENDROOT
BRANCH   2   5
HETATM    5  C   UNL     1       6.919  27.353  55.810  1.00  0.00     0.173 A 
HETATM    6  S   UNL     1       5.533  27.152  54.831  1.00  0.00    -0.061 SA
HETATM    7  C   UNL     1       5.883  25.475  54.719  1.00  0.00     0.086 A 
HETATM    8  C   UNL     1       7.029  25.188  55.434  1.00  0.00     0.078 A 
HETATM    9  N   UNL     1       7.628  26.282  56.040  1.00  0.00    -0.223 NA
BRANCH   8  10
HETATM   10  C   UNL     1       7.617  23.867  55.682  1.00  0.00     0.021 A 
HETATM   11  C   UNL     1       7.819  22.804  54.748  1.00  0.00     0.004 A 
HETATM   12  C   UNL     1       8.344  21.728  55.474  1.00  0.00     0.043 A 
HETATM   13  C   UNL     1       7.623  22.624  53.360  1.00  0.00     0.014 A 
HETATM   14  C   UNL     1       8.649  20.489  54.893  1.00  0.00     0.030 A 
HETATM   15  N   UNL     1       8.485  22.142  56.779  1.00  0.00    -0.364 N 
HETATM   16  C   UNL     1       8.427  20.340  53.523  1.00  0.00     0.002 A 
HETATM   17  C   UNL     1       7.927  21.393  52.763  1.00  0.00     0.001 A 
HETATM   18  H   UNL     1       8.852  21.570  57.527  1.00  0.00     0.165 HD
HETATM   19  C   UNL     1       8.062  23.431  56.913  1.00  0.00     0.103 A 
ENDBRANCH   8  10
ENDBRANCH   2   5
BRANCH   1  20
HETATM   20  C   UNL     1       7.569  30.465  57.776  1.00  0.00     0.226 C 
BRANCH  20  21
HETATM   21  N   UNL     1       7.084  30.890  59.086  1.00  0.00    -0.348 N 
HETATM   22  C   UNL     1       7.601  31.985  59.736  1.00  0.00     0.252 C 
HETATM   23  O   UNL     1       8.643  32.521  59.370  1.00  0.00    -0.268 OA
HETATM   24  H   UNL     1       6.324  30.366  59.501  1.00  0.00     0.163 HD
BRANCH  22  25
HETATM   25  C   UNL     1       6.905  32.442  60.964  1.00  0.00     0.033 A 
HETATM   26  C   UNL     1       5.515  32.606  60.910  1.00  0.00     0.023 A 
HETATM   27  C   UNL     1       4.807  33.019  62.043  1.00  0.00    -0.061 A 
HETATM   28  C   UNL     1       3.322  33.233  61.982  1.00  0.00     0.048 C 
HETATM   29  C   UNL     1       5.507  33.265  63.231  1.00  0.00     0.013 A 
HETATM   30  C   UNL     1       6.895  33.075  63.306  1.00  0.00    -0.061 A 
HETATM   31  C   UNL     1       7.594  32.670  62.162  1.00  0.00     0.023 A 
HETATM   32  C   UNL     1       7.613  33.332  64.598  1.00  0.00     0.048 C 
ENDBRANCH  22  25
ENDBRANCH  20  21
ENDBRANCH   1  20
TORSDOF 5
ENDMDL
MODEL 5
REMARK VINA RESULT:     -10.4      1.443      2.529
REMARK  5 active torsions:
REMARK  status: ('A' for Active; 'I' for Inactive)
REMARK    1  A    between atoms: C_4  and  C_5 
REMARK       I    between atoms: C_5  and  N_6 
REMARK    2  A    between atoms: N_6  and  C_7 
REMARK    3  A    between atoms: C_7  and  C_8 
REMARK       I    between atoms: C_8  and  N_9 
REMARK    4  A    between atoms: N_9  and  C_10 
REMARK    5  A    between atoms: C_13  and  C_14 
ROOT
HETATM    1  C   UNL     1       7.523  29.078  57.725  1.00  0.00     0.241 C 
HETATM    2  N   UNL     1       7.644  27.711  57.794  1.00  0.00    -0.304 N 
HETATM    3  O   UNL     1       6.960  29.722  56.843  1.00  0.00    -0.271 OA
HETATM    4  H   UNL     1       8.258  27.301  58.489  1.00  0.00     0.171 HD
ENDROOT
BRANCH   2   5
HETATM    5  C   UNL     1       7.107  26.859  56.876  1.00  0.00     0.173 A 
HETATM    6  S   UNL     1       5.402  26.776  56.933  1.00  0.00    -0.061 SA
HETATM    7  C   UNL     1       5.439  25.606  55.677  1.00  0.00     0.086 A 
HETATM    8  C   UNL     1       6.747  25.362  55.304  1.00  0.00     0.078 A 
HETATM    9  N   UNL     1       7.697  26.106  55.987  1.00  0.00    -0.223 NA
BRANCH   8  10
HETATM   10  C   UNL     1       7.228  24.364  54.344  1.00  0.00     0.021 A 
HETATM   11  C   UNL     1       7.532  22.987  54.583  1.00  0.00     0.004 A 
HETATM   12  C   UNL     1       8.020  22.469  53.377  1.00  0.00     0.043 A 
HETATM   13  C   UNL     1       7.445  22.106  55.685  1.00  0.00     0.014 A 
HETATM   14  C   UNL     1       8.449  21.144  53.231  1.00  0.00     0.030 A 
HETATM   15  N   UNL     1       7.976  23.483  52.447  1.00  0.00    -0.364 N 
HETATM   16  C   UNL     1       8.367  20.306  54.345  1.00  0.00     0.002 A 
HETATM   17  C   UNL     1       7.866  20.777  55.555  1.00  0.00     0.001 A 
HETATM   18  H   UNL     1       8.262  23.390  51.482  1.00  0.00     0.165 HD
HETATM   19  C   UNL     1       7.489  24.624  53.014  1.00  0.00     0.103 A 
ENDBRANCH   8  10
ENDBRANCH   2   5
BRANCH   1  20
HETATM   20  C   UNL     1       8.325  29.815  58.814  1.00  0.00     0.226 C 
BRANCH  20  21
HETATM   21  N   UNL     1       7.574  30.699  59.701  1.00  0.00    -0.348 N 
HETATM   22  C   UNL     1       8.075  31.114  60.912  1.00  0.00     0.252 C 
HETATM   23  O   UNL     1       9.061  30.587  61.418  1.00  0.00    -0.268 OA
HETATM   24  H   UNL     1       6.671  31.028  59.385  1.00  0.00     0.163 HD
BRANCH  22  25
HETATM   25  C   UNL     1       7.318  32.162  61.640  1.00  0.00     0.033 A 
HETATM   26  C   UNL     1       7.690  32.443  62.961  1.00  0.00     0.023 A 
HETATM   27  C   UNL     1       7.022  33.433  63.689  1.00  0.00    -0.061 A 
HETATM   28  C   UNL     1       7.390  33.713  65.117  1.00  0.00     0.048 C 
HETATM   29  C   UNL     1       5.977  34.138  63.079  1.00  0.00     0.013 A 
HETATM   30  C   UNL     1       5.615  33.886  61.747  1.00  0.00    -0.061 A 
HETATM   31  C   UNL     1       6.286  32.886  61.031  1.00  0.00     0.023 A 
HETATM   32  C   UNL     1       4.501  34.670  61.117  1.00  0.00     0.048 C 
ENDBRANCH  22  25
ENDBRANCH  20  21
ENDBRANCH   1  20
TORSDOF 5
ENDMDL
MODEL 6
REMARK VINA RESULT:     -10.1      1.926      2.735
REMARK  5 active torsions:
REMARK  status: ('A' for Active; 'I' for Inactive)
REMARK    1  A    between atoms: C_4  and  C_5 
REMARK       I    between atoms: C_5  and  N_6 
REMARK    2  A    between atoms: N_6  and  C_7 
REMARK    3  A    between atoms: C_7  and  C_8 
REMARK       I    between atoms: C_8  and  N_9 
REMARK    4  A    between atoms: N_9  and  C_10 
REMARK    5  A    between atoms: C_13  and  C_14 
ROOT
HETATM    1  C   UNL     1       6.680  29.215  56.044  1.00  0.00     0.241 C 
HETATM    2  N   UNL     1       5.798  28.162  56.013  1.00  0.00    -0.304 N 
HETATM    3  O   UNL     1       7.838  29.215  55.633  1.00  0.00    -0.271 OA
HETATM    4  H   UNL     1       4.920  28.235  56.517  1.00  0.00     0.171 HD
ENDROOT
BRANCH   2   5
HETATM    5  C   UNL     1       6.092  26.946  55.473  1.00  0.00     0.173 A 
HETATM    6  S   UNL     1       5.331  26.662  53.970  1.00  0.00    -0.061 SA
HETATM    7  C   UNL     1       6.043  25.100  53.931  1.00  0.00     0.086 A 
HETATM    8  C   UNL     1       6.809  24.907  55.064  1.00  0.00     0.078 A 
HETATM    9  N   UNL     1       6.846  25.986  55.934  1.00  0.00    -0.223 NA
BRANCH   8  10
HETATM   10  C   UNL     1       7.501  23.680  55.473  1.00  0.00     0.021 A 
HETATM   11  C   UNL     1       7.830  22.545  54.667  1.00  0.00     0.004 A 
HETATM   12  C   UNL     1       8.422  21.607  55.522  1.00  0.00     0.043 A 
HETATM   13  C   UNL     1       7.703  22.199  53.303  1.00  0.00     0.014 A 
HETATM   14  C   UNL     1       8.856  20.346  55.091  1.00  0.00     0.030 A 
HETATM   15  N   UNL     1       8.478  22.171  56.776  1.00  0.00    -0.364 N 
HETATM   16  C   UNL     1       8.698  20.030  53.740  1.00  0.00     0.002 A 
HETATM   17  C   UNL     1       8.135  20.944  52.856  1.00  0.00     0.001 A 
HETATM   18  H   UNL     1       8.866  21.719  57.593  1.00  0.00     0.165 HD
HETATM   19  C   UNL     1       7.938  23.423  56.755  1.00  0.00     0.103 A 
ENDBRANCH   8  10
ENDBRANCH   2   5
BRANCH   1  20
HETATM   20  C   UNL     1       6.147  30.433  56.821  1.00  0.00     0.226 C 
BRANCH  20  21
HETATM   21  N   UNL     1       6.762  30.710  58.116  1.00  0.00    -0.348 N 
HETATM   22  C   UNL     1       6.520  31.874  58.805  1.00  0.00     0.252 C 
HETATM   23  O   UNL     1       5.972  32.836  58.274  1.00  0.00    -0.268 OA
HETATM   24  H   UNL     1       7.360  29.999  58.516  1.00  0.00     0.163 HD
BRANCH  22  25
HETATM   25  C   UNL     1       7.037  31.967  60.192  1.00  0.00     0.033 A 
HETATM   26  C   UNL     1       8.074  31.103  60.567  1.00  0.00     0.023 A 
HETATM   27  C   UNL     1       8.610  31.158  61.857  1.00  0.00    -0.061 A 
HETATM   28  C   UNL     1       9.695  30.210  62.277  1.00  0.00     0.048 C 
HETATM   29  C   UNL     1       8.095  32.089  62.768  1.00  0.00     0.013 A 
HETATM   30  C   UNL     1       7.077  32.980  62.396  1.00  0.00    -0.061 A 
HETATM   31  C   UNL     1       6.543  32.909  61.103  1.00  0.00     0.023 A 
HETATM   32  C   UNL     1       6.559  33.977  63.391  1.00  0.00     0.048 C 
ENDBRANCH  22  25
ENDBRANCH  20  21
ENDBRANCH   1  20
TORSDOF 5
ENDMDL
MODEL 7
REMARK VINA RESULT:     -10.1      2.263     10.719
REMARK  5 active torsions:
REMARK  status: ('A' for Active; 'I' for Inactive)
REMARK    1  A    between atoms: C_4  and  C_5 
REMARK       I    between atoms: C_5  and  N_6 
REMARK    2  A    between atoms: N_6  and  C_7 
REMARK    3  A    between atoms: C_7  and  C_8 
REMARK       I    between atoms: C_8  and  N_9 
REMARK    4  A    between atoms: N_9  and  C_10 
REMARK    5  A    between atoms: C_13  and  C_14 
ROOT
HETATM    1  C   UNL     1       5.901  27.806  56.077  1.00  0.00     0.241 C 
HETATM    2  N   UNL     1       6.860  28.784  55.966  1.00  0.00    -0.304 N 
HETATM    3  O   UNL     1       5.297  27.484  57.098  1.00  0.00    -0.271 OA
HETATM    4  H   UNL     1       7.396  28.858  55.107  1.00  0.00     0.171 HD
ENDROOT
BRANCH   2   5
HETATM    5  C   UNL     1       7.256  29.575  57.002  1.00  0.00     0.173 A 
HETATM    6  S   UNL     1       8.872  29.308  57.489  1.00  0.00    -0.061 SA
HETATM    7  C   UNL     1       8.669  30.482  58.725  1.00  0.00     0.086 A 
HETATM    8  C   UNL     1       7.387  30.993  58.679  1.00  0.00     0.078 A 
HETATM    9  N   UNL     1       6.589  30.477  57.669  1.00  0.00    -0.223 NA
BRANCH   8  10
HETATM   10  C   UNL     1       6.770  31.938  59.616  1.00  0.00     0.021 A 
HETATM   11  C   UNL     1       7.162  32.228  60.960  1.00  0.00     0.004 A 
HETATM   12  C   UNL     1       6.226  33.141  61.461  1.00  0.00     0.043 A 
HETATM   13  C   UNL     1       8.210  31.827  61.819  1.00  0.00     0.014 A 
HETATM   14  C   UNL     1       6.269  33.641  62.770  1.00  0.00     0.030 A 
HETATM   15  N   UNL     1       5.334  33.414  60.449  1.00  0.00    -0.364 N 
HETATM   16  C   UNL     1       7.309  33.210  63.597  1.00  0.00     0.002 A 
HETATM   17  C   UNL     1       8.270  32.321  63.129  1.00  0.00     0.001 A 
HETATM   18  H   UNL     1       4.553  34.051  60.527  1.00  0.00     0.165 HD
HETATM   19  C   UNL     1       5.659  32.705  59.330  1.00  0.00     0.103 A 
ENDBRANCH   8  10
ENDBRANCH   2   5
BRANCH   1  20
HETATM   20  C   UNL     1       5.728  26.974  54.794  1.00  0.00     0.226 C 
BRANCH  20  21
HETATM   21  N   UNL     1       6.102  25.564  54.867  1.00  0.00    -0.348 N 
HETATM   22  C   UNL     1       7.011  25.005  54.002  1.00  0.00     0.252 C 
HETATM   23  O   UNL     1       7.378  25.586  52.985  1.00  0.00    -0.268 OA
HETATM   24  H   UNL     1       5.689  25.004  55.601  1.00  0.00     0.163 HD
BRANCH  22  25
HETATM   25  C   UNL     1       7.464  23.621  54.288  1.00  0.00     0.033 A 
HETATM   26  C   UNL     1       7.631  23.248  55.627  1.00  0.00     0.023 A 
HETATM   27  C   UNL     1       8.040  21.951  55.954  1.00  0.00    -0.061 A 
HETATM   28  C   UNL     1       8.258  21.555  57.386  1.00  0.00     0.048 C 
HETATM   29  C   UNL     1       8.279  21.032  54.924  1.00  0.00     0.013 A 
HETATM   30  C   UNL     1       8.086  21.386  53.581  1.00  0.00    -0.061 A 
HETATM   31  C   UNL     1       7.685  22.690  53.265  1.00  0.00     0.023 A 
HETATM   32  C   UNL     1       8.336  20.373  52.501  1.00  0.00     0.048 C 
ENDBRANCH  22  25
ENDBRANCH  20  21
ENDBRANCH   1  20
TORSDOF 5
ENDMDL
MODEL 8
REMARK VINA RESULT:     -10.0      2.424     10.444
REMARK  5 active torsions:
REMARK  status: ('A' for Active; 'I' for Inactive)
REMARK    1  A    between atoms: C_4  and  C_5 
REMARK       I    between atoms: C_5  and  N_6 
REMARK    2  A    between atoms: N_6  and  C_7 
REMARK    3  A    between atoms: C_7  and  C_8 
REMARK       I    between atoms: C_8  and  N_9 
REMARK    4  A    between atoms: N_9  and  C_10 
REMARK    5  A    between atoms: C_13  and  C_14 
ROOT
HETATM    1  C   UNL     1       5.899  28.068  55.491  1.00  0.00     0.241 C 
HETATM    2  N   UNL     1       6.704  29.169  55.660  1.00  0.00    -0.304 N 
HETATM    3  O   UNL     1       5.043  27.658  56.271  1.00  0.00    -0.271 OA
HETATM    4  H   UNL     1       7.475  29.323  55.020  1.00  0.00     0.171 HD
ENDROOT
BRANCH   2   5
HETATM    5  C   UNL     1       6.632  29.998  56.739  1.00  0.00     0.173 A 
HETATM    6  S   UNL     1       5.521  31.281  56.545  1.00  0.00    -0.061 SA
HETATM    7  C   UNL     1       5.961  31.867  58.098  1.00  0.00     0.086 A 
HETATM    8  C   UNL     1       6.922  31.044  58.653  1.00  0.00     0.078 A 
HETATM    9  N   UNL     1       7.284  29.959  57.870  1.00  0.00    -0.223 NA
BRANCH   8  10
HETATM   10  C   UNL     1       7.640  31.239  59.917  1.00  0.00     0.021 A 
HETATM   11  C   UNL     1       7.199  31.943  61.081  1.00  0.00     0.004 A 
HETATM   12  C   UNL     1       8.261  31.912  61.993  1.00  0.00     0.043 A 
HETATM   13  C   UNL     1       6.014  32.603  61.477  1.00  0.00     0.014 A 
HETATM   14  C   UNL     1       8.207  32.527  63.251  1.00  0.00     0.030 A 
HETATM   15  N   UNL     1       9.279  31.190  61.415  1.00  0.00    -0.364 N 
HETATM   16  C   UNL     1       7.027  33.186  63.603  1.00  0.00     0.002 A 
HETATM   17  C   UNL     1       5.943  33.220  62.733  1.00  0.00     0.001 A 
HETATM   18  H   UNL     1      10.170  30.998  61.854  1.00  0.00     0.165 HD
HETATM   19  C   UNL     1       8.912  30.770  60.170  1.00  0.00     0.103 A 
ENDBRANCH   8  10
ENDBRANCH   2   5
BRANCH   1  20
HETATM   20  C   UNL     1       6.266  27.231  54.252  1.00  0.00     0.226 C 
BRANCH  20  21
HETATM   21  N   UNL     1       6.486  25.803  54.464  1.00  0.00    -0.348 N 
HETATM   22  C   UNL     1       7.452  25.104  53.779  1.00  0.00     0.252 C 
HETATM   23  O   UNL     1       8.015  25.575  52.796  1.00  0.00    -0.268 OA
HETATM   24  H   UNL     1       5.920  25.336  55.161  1.00  0.00     0.163 HD
BRANCH  22  25
HETATM   25  C   UNL     1       7.722  23.710  54.211  1.00  0.00     0.033 A 
HETATM   26  C   UNL     1       7.889  22.735  53.220  1.00  0.00     0.023 A 
HETATM   27  C   UNL     1       8.161  21.409  53.570  1.00  0.00    -0.061 A 
HETATM   28  C   UNL     1       8.305  20.352  52.514  1.00  0.00     0.048 C 
HETATM   29  C   UNL     1       8.265  21.071  54.925  1.00  0.00     0.013 A 
HETATM   30  C   UNL     1       8.129  22.044  55.927  1.00  0.00    -0.061 A 
HETATM   31  C   UNL     1       7.847  23.367  55.563  1.00  0.00     0.023 A 
HETATM   32  C   UNL     1       8.261  21.652  57.369  1.00  0.00     0.048 C 
ENDBRANCH  22  25
ENDBRANCH  20  21
ENDBRANCH   1  20
TORSDOF 5
ENDMDL
MODEL 9
REMARK VINA RESULT:      -9.7      2.483     10.239
REMARK  5 active torsions:
REMARK  status: ('A' for Active; 'I' for Inactive)
REMARK    1  A    between atoms: C_4  and  C_5 
REMARK       I    between atoms: C_5  and  N_6 
REMARK    2  A    between atoms: N_6  and  C_7 
REMARK    3  A    between atoms: C_7  and  C_8 
REMARK       I    between atoms: C_8  and  N_9 
REMARK    4  A    between atoms: N_9  and  C_10 
REMARK    5  A    between atoms: C_13  and  C_14 
ROOT
HETATM    1  C   UNL     1       9.671  30.902  58.339  1.00  0.00     0.241 C 
HETATM    2  N   UNL     1       8.774  30.282  59.175  1.00  0.00    -0.304 N 
HETATM    3  O   UNL     1      10.251  31.965  58.545  1.00  0.00    -0.271 OA
HETATM    4  H   UNL     1       8.246  29.485  58.833  1.00  0.00     0.171 HD
ENDROOT
BRANCH   2   5
HETATM    5  C   UNL     1       8.424  30.765  60.399  1.00  0.00     0.173 A 
HETATM    6  S   UNL     1       9.559  30.414  61.626  1.00  0.00    -0.061 SA
HETATM    7  C   UNL     1       8.539  31.197  62.763  1.00  0.00     0.086 A 
HETATM    8  C   UNL     1       7.408  31.670  62.129  1.00  0.00     0.078 A 
HETATM    9  N   UNL     1       7.363  31.434  60.763  1.00  0.00    -0.223 NA
BRANCH   8  10
HETATM   10  C   UNL     1       6.240  32.307  62.746  1.00  0.00     0.021 A 
HETATM   11  C   UNL     1       6.171  32.993  63.999  1.00  0.00     0.004 A 
HETATM   12  C   UNL     1       4.832  33.359  64.182  1.00  0.00     0.043 A 
HETATM   13  C   UNL     1       7.092  33.357  65.007  1.00  0.00     0.014 A 
HETATM   14  C   UNL     1       4.371  34.032  65.321  1.00  0.00     0.030 A 
HETATM   15  N   UNL     1       4.136  32.942  63.070  1.00  0.00    -0.364 N 
HETATM   16  C   UNL     1       5.305  34.361  66.305  1.00  0.00     0.002 A 
HETATM   17  C   UNL     1       6.648  34.034  66.151  1.00  0.00     0.001 A 
HETATM   18  H   UNL     1       3.145  33.082  62.925  1.00  0.00     0.165 HD
HETATM   19  C   UNL     1       4.976  32.319  62.194  1.00  0.00     0.103 A 
ENDBRANCH   8  10
ENDBRANCH   2   5
BRANCH   1  20
HETATM   20  C   UNL     1       9.797  30.218  56.965  1.00  0.00     0.226 C 
BRANCH  20  21
HETATM   21  N   UNL     1       9.284  28.855  56.859  1.00  0.00    -0.348 N 
HETATM   22  C   UNL     1       8.002  28.589  56.441  1.00  0.00     0.252 C 
HETATM   23  O   UNL     1       7.151  29.470  56.363  1.00  0.00    -0.268 OA
HETATM   24  H   UNL     1       9.915  28.095  57.077  1.00  0.00     0.163 HD
BRANCH  22  25
HETATM   25  C   UNL     1       7.649  27.171  56.182  1.00  0.00     0.033 A 
HETATM   26  C   UNL     1       6.704  26.901  55.183  1.00  0.00     0.023 A 
HETATM   27  C   UNL     1       6.347  25.582  54.886  1.00  0.00    -0.061 A 
HETATM   28  C   UNL     1       5.308  25.286  53.844  1.00  0.00     0.048 C 
HETATM   29  C   UNL     1       6.947  24.536  55.600  1.00  0.00     0.013 A 
HETATM   30  C   UNL     1       7.916  24.793  56.581  1.00  0.00    -0.061 A 
HETATM   31  C   UNL     1       8.260  26.119  56.876  1.00  0.00     0.023 A 
HETATM   32  C   UNL     1       8.552  23.650  57.317  1.00  0.00     0.048 C 
ENDBRANCH  22  25
ENDBRANCH  20  21
ENDBRANCH   1  20
TORSDOF 5
ENDMDL
MODEL 10
REMARK VINA RESULT:      -9.6      7.026     11.128
REMARK  5 active torsions:
REMARK  status: ('A' for Active; 'I' for Inactive)
REMARK    1  A    between atoms: C_4  and  C_5 
REMARK       I    between atoms: C_5  and  N_6 
REMARK    2  A    between atoms: N_6  and  C_7 
REMARK    3  A    between atoms: C_7  and  C_8 
REMARK       I    between atoms: C_8  and  N_9 
REMARK    4  A    between atoms: N_9  and  C_10 
REMARK    5  A    between atoms: C_13  and  C_14 
ROOT
HETATM    1  C   UNL     1       5.099  27.518  52.989  1.00  0.00     0.241 C 
HETATM    2  N   UNL     1       5.730  27.597  51.771  1.00  0.00    -0.304 N 
HETATM    3  O   UNL     1       3.932  27.814  53.232  1.00  0.00    -0.271 OA
HETATM    4  H   UNL     1       6.735  27.468  51.723  1.00  0.00     0.171 HD
ENDROOT
BRANCH   2   5
HETATM    5  C   UNL     1       5.110  27.997  50.625  1.00  0.00     0.173 A 
HETATM    6  S   UNL     1       5.414  29.628  50.215  1.00  0.00    -0.061 SA
HETATM    7  C   UNL     1       4.386  29.453  48.851  1.00  0.00     0.086 A 
HETATM    8  C   UNL     1       3.885  28.167  48.805  1.00  0.00     0.078 A 
HETATM    9  N   UNL     1       4.327  27.331  49.821  1.00  0.00    -0.223 NA
BRANCH   8  10
HETATM   10  C   UNL     1       2.895  27.629  47.866  1.00  0.00     0.021 A 
HETATM   11  C   UNL     1       1.712  28.265  47.375  1.00  0.00     0.004 A 
HETATM   12  C   UNL     1       1.062  27.327  46.563  1.00  0.00     0.043 A 
HETATM   13  C   UNL     1       1.111  29.536  47.516  1.00  0.00     0.014 A 
HETATM   14  C   UNL     1      -0.157  27.585  45.922  1.00  0.00     0.030 A 
HETATM   15  N   UNL     1       1.841  26.193  46.540  1.00  0.00    -0.364 N 
HETATM   16  C   UNL     1      -0.732  28.845  46.098  1.00  0.00     0.002 A 
HETATM   17  C   UNL     1      -0.106  29.811  46.878  1.00  0.00     0.001 A 
HETATM   18  H   UNL     1       1.618  25.353  46.024  1.00  0.00     0.165 HD
HETATM   19  C   UNL     1       2.953  26.368  47.311  1.00  0.00     0.103 A 
ENDBRANCH   8  10
ENDBRANCH   2   5
BRANCH   1  20
HETATM   20  C   UNL     1       6.051  27.159  54.145  1.00  0.00     0.226 C 
BRANCH  20  21
HETATM   21  N   UNL     1       6.350  25.743  54.336  1.00  0.00    -0.348 N 
HETATM   22  C   UNL     1       7.358  25.111  53.647  1.00  0.00     0.252 C 
HETATM   23  O   UNL     1       7.899  25.629  52.675  1.00  0.00    -0.268 OA
HETATM   24  H   UNL     1       5.808  25.233  55.021  1.00  0.00     0.163 HD
BRANCH  22  25
HETATM   25  C   UNL     1       7.704  23.728  54.059  1.00  0.00     0.033 A 
HETATM   26  C   UNL     1       7.806  23.456  55.430  1.00  0.00     0.023 A 
HETATM   27  C   UNL     1       8.114  22.167  55.874  1.00  0.00    -0.061 A 
HETATM   28  C   UNL     1       8.262  21.877  57.340  1.00  0.00     0.048 C 
HETATM   29  C   UNL     1       8.317  21.152  54.931  1.00  0.00     0.013 A 
HETATM   30  C   UNL     1       8.188  21.404  53.557  1.00  0.00    -0.061 A 
HETATM   31  C   UNL     1       7.889  22.703  53.123  1.00  0.00     0.023 A 
HETATM   32  C   UNL     1       8.397  20.292  52.572  1.00  0.00     0.048 C 
ENDBRANCH  22  25
ENDBRANCH  20  21
ENDBRANCH   1  20
TORSDOF 5
ENDMDL
