MODEL 1
REMARK VINA RESULT:      -8.8      0.000      0.000
REMARK  8 active torsions:
REMARK  status: ('A' for Active; 'I' for Inactive)
REMARK    1  A    between atoms: C_2  and  C_3 
REMARK    2  A    between atoms: C_3  and  C_4 
REMARK    3  A    between atoms: C_8  and  C_9 
REMARK       I    between atoms: C_9  and  N_10 
REMARK    4  A    between atoms: N_10  and  C_11 
REMARK    5  A    between atoms: N_10  and  C_17 
REMARK    6  A    between atoms: C_17  and  C_18 
REMARK    7  A    between atoms: C_18  and  O_19 
REMARK    8  A    between atoms: C_18  and  C_20 
ROOT
HETATM    1  C   UNL     1       7.735  26.309  57.294  1.00  0.00     0.272 C 
HETATM    2  N   UNL     1       7.179  25.760  56.121  1.00  0.00    -0.339 N 
HETATM    3  O   UNL     1       7.994  25.578  58.252  1.00  0.00    -0.266 OA
ENDROOT
BRANCH   2   4
HETATM    4  C   UNL     1       6.701  26.568  54.965  1.00  0.00     0.087 C 
HETATM    5  C   UNL     1       7.785  26.738  53.888  1.00  0.00     0.025 C 
HETATM    6  C   UNL     1       7.725  25.720  52.756  1.00  0.00     0.002 C 
HETATM    7  C   UNL     1       6.334  25.654  52.145  1.00  0.00     0.000 C 
HETATM    8  C   UNL     1       5.308  25.247  53.190  1.00  0.00     0.002 C 
HETATM    9  C   UNL     1       5.315  26.175  54.406  1.00  0.00     0.025 C 
ENDBRANCH   2   4
BRANCH   2  10
HETATM   10  C   UNL     1       6.964  24.298  56.145  1.00  0.00     0.163 C 
BRANCH  10  11
HETATM   11  C   UNL     1       8.256  23.446  56.271  1.00  0.00     0.169 C 
BRANCH  11  12
HETATM   12  O   UNL     1       8.414  22.817  57.542  1.00  0.00    -0.389 OA
HETATM   13  H   UNL     1       8.880  21.968  57.408  1.00  0.00     0.210 HD
ENDBRANCH  11  12
BRANCH  11  14
HETATM   14  C   UNL     1       8.286  22.344  55.228  1.00  0.00    -0.028 A 
HETATM   15  C   UNL     1       8.716  21.053  55.564  1.00  0.00     0.010 A 
HETATM   16  C   UNL     1       8.750  20.043  54.598  1.00  0.00     0.001 A 
HETATM   17  C   UNL     1       8.357  20.310  53.288  1.00  0.00     0.000 A 
HETATM   18  C   UNL     1       7.919  21.586  52.942  1.00  0.00     0.001 A 
HETATM   19  C   UNL     1       7.876  22.594  53.906  1.00  0.00     0.010 A 
ENDBRANCH  11  14
ENDBRANCH  10  11
ENDBRANCH   2  10
BRANCH   1  20
HETATM   20  C   UNL     1       7.979  27.723  57.379  1.00  0.00     0.119 A 
HETATM   21  N   UNL     1       9.104  28.378  56.964  1.00  0.00    -0.273 N 
HETATM   22  N   UNL     1       9.073  29.706  57.174  1.00  0.00    -0.179 NA
HETATM   23  H   UNL     1       9.931  27.984  56.532  1.00  0.00     0.189 HD
HETATM   24  C   UNL     1       7.931  29.899  57.846  1.00  0.00     0.057 A 
HETATM   25  C   UNL     1       7.221  28.690  58.012  1.00  0.00     0.065 A 
BRANCH  24  26
HETATM   26  C   UNL     1       7.546  31.254  58.335  1.00  0.00     0.061 C 
BRANCH  26  27
HETATM   27  C   UNL     1       7.846  31.435  59.825  1.00  0.00     0.002 C 
HETATM   28  C   UNL     1       9.226  32.032  60.048  1.00  0.00     0.005 C 
ENDBRANCH  26  27
ENDBRANCH  24  26
ENDBRANCH   1  20
TORSDOF 8
ENDMDL
MODEL 2
REMARK VINA RESULT:      -8.4      0.965      1.420
REMARK  8 active torsions:
REMARK  status: ('A' for Active; 'I' for Inactive)
REMARK    1  A    between atoms: C_2  and  C_3 
REMARK    2  A    between atoms: C_3  and  C_4 
REMARK    3  A    between atoms: C_8  and  C_9 
REMARK       I    between atoms: C_9  and  N_10 
REMARK    4  A    between atoms: N_10  and  C_11 
REMARK    5  A    between atoms: N_10  and  C_17 
REMARK    6  A    between atoms: C_17  and  C_18 
REMARK    7  A    between atoms: C_18  and  O_19 
REMARK    8  A    between atoms: C_18  and  C_20 
ROOT
HETATM    1  C   UNL     1       6.944  26.480  57.035  1.00  0.00     0.272 C 
HETATM    2  N   UNL     1       6.700  25.796  55.827  1.00  0.00    -0.339 N 
HETATM    3  O   UNL     1       7.107  25.844  58.078  1.00  0.00    -0.266 OA
ENDROOT
BRANCH   2   4
HETATM    4  C   UNL     1       6.351  26.465  54.544  1.00  0.00     0.087 C 
HETATM    5  C   UNL     1       7.588  26.716  53.666  1.00  0.00     0.025 C 
HETATM    6  C   UNL     1       7.863  25.636  52.627  1.00  0.00     0.002 C 
HETATM    7  C   UNL     1       6.628  25.351  51.786  1.00  0.00     0.000 C 
HETATM    8  C   UNL     1       5.483  24.871  52.662  1.00  0.00     0.002 C 
HETATM    9  C   UNL     1       5.151  25.860  53.781  1.00  0.00     0.025 C 
ENDBRANCH   2   4
BRANCH   2  10
HETATM   10  C   UNL     1       6.676  24.321  55.927  1.00  0.00     0.163 C 
BRANCH  10  11
HETATM   11  C   UNL     1       8.063  23.654  56.125  1.00  0.00     0.169 C 
BRANCH  11  12
HETATM   12  O   UNL     1       8.311  23.218  57.461  1.00  0.00    -0.389 OA
HETATM   13  H   UNL     1       7.469  22.896  57.840  1.00  0.00     0.210 HD
ENDBRANCH  11  12
BRANCH  11  14
HETATM   14  C   UNL     1       8.217  22.438  55.230  1.00  0.00    -0.028 A 
HETATM   15  C   UNL     1       7.935  22.519  53.859  1.00  0.00     0.010 A 
HETATM   16  C   UNL     1       8.070  21.395  53.039  1.00  0.00     0.001 A 
HETATM   17  C   UNL     1       8.487  20.179  53.578  1.00  0.00     0.000 A 
HETATM   18  C   UNL     1       8.779  20.086  54.937  1.00  0.00     0.001 A 
HETATM   19  C   UNL     1       8.653  21.209  55.756  1.00  0.00     0.010 A 
ENDBRANCH  11  14
ENDBRANCH  10  11
ENDBRANCH   2  10
BRANCH   1  20
HETATM   20  C   UNL     1       6.982  27.917  57.052  1.00  0.00     0.119 A 
HETATM   21  N   UNL     1       8.099  28.699  56.974  1.00  0.00    -0.273 N 
HETATM   22  N   UNL     1       7.847  30.019  57.024  1.00  0.00    -0.179 NA
HETATM   23  H   UNL     1       9.063  28.402  56.888  1.00  0.00     0.189 HD
HETATM   24  C   UNL     1       6.529  30.087  57.250  1.00  0.00     0.057 A 
HETATM   25  C   UNL     1       5.947  28.801  57.291  1.00  0.00     0.065 A 
BRANCH  24  26
HETATM   26  C   UNL     1       5.847  31.400  57.441  1.00  0.00     0.061 C 
BRANCH  26  27
HETATM   27  C   UNL     1       5.515  31.667  58.910  1.00  0.00     0.002 C 
HETATM   28  C   UNL     1       6.708  32.242  59.657  1.00  0.00     0.005 C 
ENDBRANCH  26  27
ENDBRANCH  24  26
ENDBRANCH   1  20
TORSDOF 8
ENDMDL
MODEL 3
REMARK VINA RESULT:      -8.0      2.878      5.602
REMARK  8 active torsions:
REMARK  status: ('A' for Active; 'I' for Inactive)
REMARK    1  A    between atoms: C_2  and  C_3 
REMARK    2  A    between atoms: C_3  and  C_4 
REMARK    3  A    between atoms: C_8  and  C_9 
REMARK       I    between atoms: C_9  and  N_10 
REMARK    4  A    between atoms: N_10  and  C_11 
REMARK    5  A    between atoms: N_10  and  C_17 
REMARK    6  A    between atoms: C_17  and  C_18 
REMARK    7  A    between atoms: C_18  and  O_19 
REMARK    8  A    between atoms: C_18  and  C_20 
ROOT
HETATM    1  C   UNL     1       5.156  25.931  53.749  1.00  0.00     0.272 C 
HETATM    2  N   UNL     1       5.754  26.191  54.999  1.00  0.00    -0.339 N 
HETATM    3  O   UNL     1       5.092  24.775  53.328  1.00  0.00    -0.266 OA
ENDROOT
BRANCH   2   4
HETATM    4  C   UNL     1       6.008  27.556  55.536  1.00  0.00     0.087 C 
HETATM    5  C   UNL     1       5.963  27.593  57.072  1.00  0.00     0.025 C 
HETATM    6  C   UNL     1       7.317  27.450  57.754  1.00  0.00     0.002 C 
HETATM    7  C   UNL     1       8.324  28.446  57.200  1.00  0.00     0.000 C 
HETATM    8  C   UNL     1       8.529  28.228  55.710  1.00  0.00     0.002 C 
HETATM    9  C   UNL     1       7.218  28.298  54.924  1.00  0.00     0.025 C 
ENDBRANCH   2   4
BRANCH   2  10
HETATM   10  C   UNL     1       6.256  25.003  55.721  1.00  0.00     0.163 C 
BRANCH  10  11
HETATM   11  C   UNL     1       7.724  24.612  55.404  1.00  0.00     0.169 C 
BRANCH  11  12
HETATM   12  O   UNL     1       8.594  24.661  56.534  1.00  0.00    -0.389 OA
HETATM   13  H   UNL     1       8.055  24.849  57.328  1.00  0.00     0.210 HD
ENDBRANCH  11  12
BRANCH  11  14
HETATM   14  C   UNL     1       7.804  23.203  54.846  1.00  0.00    -0.028 A 
HETATM   15  C   UNL     1       7.984  22.986  53.473  1.00  0.00     0.010 A 
HETATM   16  C   UNL     1       8.050  21.686  52.962  1.00  0.00     0.001 A 
HETATM   17  C   UNL     1       7.937  20.590  53.816  1.00  0.00     0.000 A 
HETATM   18  C   UNL     1       7.769  20.790  55.183  1.00  0.00     0.001 A 
HETATM   19  C   UNL     1       7.710  22.087  55.696  1.00  0.00     0.010 A 
ENDBRANCH  11  14
ENDBRANCH  10  11
ENDBRANCH   2  10
BRANCH   1  20
HETATM   20  C   UNL     1       4.640  27.016  52.960  1.00  0.00     0.119 A 
HETATM   21  N   UNL     1       3.397  27.573  53.061  1.00  0.00    -0.273 N 
HETATM   22  N   UNL     1       3.171  28.572  52.190  1.00  0.00    -0.179 NA
HETATM   23  H   UNL     1       2.651  27.321  53.700  1.00  0.00     0.189 HD
HETATM   24  C   UNL     1       4.272  28.587  51.427  1.00  0.00     0.057 A 
HETATM   25  C   UNL     1       5.211  27.625  51.859  1.00  0.00     0.065 A 
BRANCH  24  26
HETATM   26  C   UNL     1       4.396  29.526  50.275  1.00  0.00     0.061 C 
BRANCH  26  27
HETATM   27  C   UNL     1       5.528  29.126  49.327  1.00  0.00     0.002 C 
HETATM   28  C   UNL     1       5.025  28.237  48.200  1.00  0.00     0.005 C 
ENDBRANCH  26  27
ENDBRANCH  24  26
ENDBRANCH   1  20
TORSDOF 8
ENDMDL
MODEL 4
REMARK VINA RESULT:      -7.6      1.701      2.022
REMARK  8 active torsions:
REMARK  status: ('A' for Active; 'I' for Inactive)
REMARK    1  A    between atoms: C_2  and  C_3 
REMARK    2  A    between atoms: C_3  and  C_4 
REMARK    3  A    between atoms: C_8  and  C_9 
REMARK       I    between atoms: C_9  and  N_10 
REMARK    4  A    between atoms: N_10  and  C_11 
REMARK    5  A    between atoms: N_10  and  C_17 
REMARK    6  A    between atoms: C_17  and  C_18 
REMARK    7  A    between atoms: C_18  and  O_19 
REMARK    8  A    between atoms: C_18  and  C_20 
ROOT
HETATM    1  C   UNL     1       7.821  26.882  56.450  1.00  0.00     0.272 C 
HETATM    2  N   UNL     1       6.787  26.850  55.492  1.00  0.00    -0.339 N 
HETATM    3  O   UNL     1       8.236  25.830  56.941  1.00  0.00    -0.266 OA
ENDROOT
BRANCH   2   4
HETATM    4  C   UNL     1       6.119  28.061  54.943  1.00  0.00     0.087 C 
HETATM    5  C   UNL     1       6.745  28.517  53.615  1.00  0.00     0.025 C 
HETATM    6  C   UNL     1       6.046  27.992  52.367  1.00  0.00     0.002 C 
HETATM    7  C   UNL     1       4.553  28.274  52.408  1.00  0.00     0.000 C 
HETATM    8  C   UNL     1       3.914  27.605  53.614  1.00  0.00     0.002 C 
HETATM    9  C   UNL     1       4.574  28.022  54.930  1.00  0.00     0.025 C 
ENDBRANCH   2   4
BRANCH   2  10
HETATM   10  C   UNL     1       6.289  25.503  55.142  1.00  0.00     0.163 C 
BRANCH  10  11
HETATM   11  C   UNL     1       6.921  24.879  53.869  1.00  0.00     0.169 C 
BRANCH  11  12
HETATM   12  O   UNL     1       8.100  25.546  53.420  1.00  0.00    -0.389 OA
HETATM   13  H   UNL     1       8.832  24.898  53.409  1.00  0.00     0.210 HD
ENDBRANCH  11  12
BRANCH  11  14
HETATM   14  C   UNL     1       7.297  23.427  54.102  1.00  0.00    -0.028 A 
HETATM   15  C   UNL     1       7.333  22.897  55.399  1.00  0.00     0.010 A 
HETATM   16  C   UNL     1       7.689  21.562  55.610  1.00  0.00     0.001 A 
HETATM   17  C   UNL     1       8.012  20.742  54.530  1.00  0.00     0.000 A 
HETATM   18  C   UNL     1       7.971  21.252  53.236  1.00  0.00     0.001 A 
HETATM   19  C   UNL     1       7.609  22.583  53.022  1.00  0.00     0.010 A 
ENDBRANCH  11  14
ENDBRANCH  10  11
ENDBRANCH   2  10
BRANCH   1  20
HETATM   20  C   UNL     1       8.374  28.141  56.868  1.00  0.00     0.119 A 
HETATM   21  N   UNL     1       9.417  28.803  56.283  1.00  0.00    -0.273 N 
HETATM   22  N   UNL     1       9.738  29.960  56.886  1.00  0.00    -0.179 NA
HETATM   23  H   UNL     1       9.956  28.523  55.472  1.00  0.00     0.189 HD
HETATM   24  C   UNL     1       8.943  29.993  57.963  1.00  0.00     0.057 A 
HETATM   25  C   UNL     1       8.085  28.872  58.004  1.00  0.00     0.065 A 
BRANCH  24  26
HETATM   26  C   UNL     1       9.034  31.105  58.953  1.00  0.00     0.061 C 
BRANCH  26  27
HETATM   27  C   UNL     1       8.117  30.880  60.157  1.00  0.00     0.002 C 
HETATM   28  C   UNL     1       7.091  31.994  60.293  1.00  0.00     0.005 C 
ENDBRANCH  26  27
ENDBRANCH  24  26
ENDBRANCH   1  20
TORSDOF 8
ENDMDL
MODEL 5
REMARK VINA RESULT:      -7.5      3.682      6.043
REMARK  8 active torsions:
REMARK  status: ('A' for Active; 'I' for Inactive)
REMARK    1  A    between atoms: C_2  and  C_3 
REMARK    2  A    between atoms: C_3  and  C_4 
REMARK    3  A    between atoms: C_8  and  C_9 
REMARK       I    between atoms: C_9  and  N_10 
REMARK    4  A    between atoms: N_10  and  C_11 
REMARK    5  A    between atoms: N_10  and  C_17 
REMARK    6  A    between atoms: C_17  and  C_18 
REMARK    7  A    between atoms: C_18  and  O_19 
REMARK    8  A    between atoms: C_18  and  C_20 
ROOT
HETATM    1  C   UNL     1       5.975  26.651  52.054  1.00  0.00     0.272 C 
HETATM    2  N   UNL     1       6.669  26.825  53.269  1.00  0.00    -0.339 N 
HETATM    3  O   UNL     1       6.130  25.617  51.401  1.00  0.00    -0.266 OA
ENDROOT
BRANCH   2   4
HETATM    4  C   UNL     1       6.663  28.086  54.060  1.00  0.00     0.087 C 
HETATM    5  C   UNL     1       5.410  28.210  54.943  1.00  0.00     0.025 C 
HETATM    6  C   UNL     1       5.587  27.720  56.375  1.00  0.00     0.002 C 
HETATM    7  C   UNL     1       6.801  28.358  57.032  1.00  0.00     0.000 C 
HETATM    8  C   UNL     1       8.067  28.017  56.265  1.00  0.00     0.002 C 
HETATM    9  C   UNL     1       7.983  28.420  54.791  1.00  0.00     0.025 C 
ENDBRANCH   2   4
BRANCH   2  10
HETATM   10  C   UNL     1       7.541  25.701  53.668  1.00  0.00     0.163 C 
BRANCH  10  11
HETATM   11  C   UNL     1       6.932  24.739  54.723  1.00  0.00     0.169 C 
BRANCH  11  12
HETATM   12  O   UNL     1       5.506  24.748  54.760  1.00  0.00    -0.389 OA
HETATM   13  H   UNL     1       5.204  25.677  54.726  1.00  0.00     0.210 HD
ENDBRANCH  11  12
BRANCH  11  14
HETATM   14  C   UNL     1       7.358  23.305  54.464  1.00  0.00    -0.028 A 
HETATM   15  C   UNL     1       7.494  22.398  55.524  1.00  0.00     0.010 A 
HETATM   16  C   UNL     1       7.894  21.080  55.282  1.00  0.00     0.001 A 
HETATM   17  C   UNL     1       8.162  20.655  53.982  1.00  0.00     0.000 A 
HETATM   18  C   UNL     1       8.021  21.543  52.919  1.00  0.00     0.001 A 
HETATM   19  C   UNL     1       7.615  22.857  53.157  1.00  0.00     0.010 A 
ENDBRANCH  11  14
ENDBRANCH  10  11
ENDBRANCH   2  10
BRANCH   1  20
HETATM   20  C   UNL     1       5.104  27.686  51.569  1.00  0.00     0.119 A 
HETATM   21  N   UNL     1       3.772  27.819  51.841  1.00  0.00    -0.273 N 
HETATM   22  N   UNL     1       3.194  28.877  51.246  1.00  0.00    -0.179 NA
HETATM   23  H   UNL     1       3.193  27.224  52.422  1.00  0.00     0.189 HD
HETATM   24  C   UNL     1       4.166  29.383  50.476  1.00  0.00     0.057 A 
HETATM   25  C   UNL     1       5.372  28.665  50.632  1.00  0.00     0.065 A 
BRANCH  24  26
HETATM   26  C   UNL     1       3.910  30.550  49.584  1.00  0.00     0.061 C 
BRANCH  26  27
HETATM   27  C   UNL     1       4.971  30.680  48.489  1.00  0.00     0.002 C 
HETATM   28  C   UNL     1       4.516  30.033  47.191  1.00  0.00     0.005 C 
ENDBRANCH  26  27
ENDBRANCH  24  26
ENDBRANCH   1  20
TORSDOF 8
ENDMDL
MODEL 6
REMARK VINA RESULT:      -7.5      5.534      8.652
REMARK  8 active torsions:
REMARK  status: ('A' for Active; 'I' for Inactive)
REMARK    1  A    between atoms: C_2  and  C_3 
REMARK    2  A    between atoms: C_3  and  C_4 
REMARK    3  A    between atoms: C_8  and  C_9 
REMARK       I    between atoms: C_9  and  N_10 
REMARK    4  A    between atoms: N_10  and  C_11 
REMARK    5  A    between atoms: N_10  and  C_17 
REMARK    6  A    between atoms: C_17  and  C_18 
REMARK    7  A    between atoms: C_18  and  O_19 
REMARK    8  A    between atoms: C_18  and  C_20 
ROOT
HETATM    1  C   UNL     1       4.529  28.799  52.410  1.00  0.00     0.272 C 
HETATM    2  N   UNL     1       4.388  28.674  51.013  1.00  0.00    -0.339 N 
HETATM    3  O   UNL     1       3.776  29.546  53.039  1.00  0.00    -0.266 OA
ENDROOT
BRANCH   2   4
HETATM    4  C   UNL     1       5.328  27.914  50.144  1.00  0.00     0.087 C 
HETATM    5  C   UNL     1       4.963  26.423  50.061  1.00  0.00     0.025 C 
HETATM    6  C   UNL     1       4.098  26.043  48.865  1.00  0.00     0.002 C 
HETATM    7  C   UNL     1       4.703  26.545  47.564  1.00  0.00     0.000 C 
HETATM    8  C   UNL     1       4.831  28.059  47.581  1.00  0.00     0.002 C 
HETATM    9  C   UNL     1       5.643  28.562  48.777  1.00  0.00     0.025 C 
ENDBRANCH   2   4
BRANCH   2  10
HETATM   10  C   UNL     1       3.297  29.469  50.412  1.00  0.00     0.163 C 
BRANCH  10  11
HETATM   11  C   UNL     1       1.940  28.728  50.277  1.00  0.00     0.169 C 
BRANCH  11  12
HETATM   12  O   UNL     1       0.876  29.329  51.014  1.00  0.00    -0.389 OA
HETATM   13  H   UNL     1       0.200  28.644  51.188  1.00  0.00     0.210 HD
ENDBRANCH  11  12
BRANCH  11  14
HETATM   14  C   UNL     1       1.493  28.667  48.828  1.00  0.00    -0.028 A 
HETATM   15  C   UNL     1       1.546  29.808  48.015  1.00  0.00     0.010 A 
HETATM   16  C   UNL     1       1.125  29.750  46.683  1.00  0.00     0.001 A 
HETATM   17  C   UNL     1       0.648  28.554  46.149  1.00  0.00     0.000 A 
HETATM   18  C   UNL     1       0.599  27.411  46.943  1.00  0.00     0.001 A 
HETATM   19  C   UNL     1       1.025  27.465  48.271  1.00  0.00     0.010 A 
ENDBRANCH  11  14
ENDBRANCH  10  11
ENDBRANCH   2  10
BRANCH   1  20
HETATM   20  C   UNL     1       5.563  28.074  53.096  1.00  0.00     0.119 A 
HETATM   21  N   UNL     1       6.851  28.485  53.286  1.00  0.00    -0.273 N 
HETATM   22  N   UNL     1       7.615  27.603  53.955  1.00  0.00    -0.179 NA
HETATM   23  H   UNL     1       7.279  29.353  52.986  1.00  0.00     0.189 HD
HETATM   24  C   UNL     1       6.817  26.538  54.108  1.00  0.00     0.057 A 
HETATM   25  C   UNL     1       5.531  26.778  53.575  1.00  0.00     0.065 A 
BRANCH  24  26
HETATM   26  C   UNL     1       7.314  25.291  54.756  1.00  0.00     0.061 C 
BRANCH  26  27
HETATM   27  C   UNL     1       6.908  24.037  53.978  1.00  0.00     0.002 C 
HETATM   28  C   UNL     1       7.895  23.726  52.865  1.00  0.00     0.005 C 
ENDBRANCH  26  27
ENDBRANCH  24  26
ENDBRANCH   1  20
TORSDOF 8
ENDMDL
MODEL 7
REMARK VINA RESULT:      -7.3      3.466      5.038
REMARK  8 active torsions:
REMARK  status: ('A' for Active; 'I' for Inactive)
REMARK    1  A    between atoms: C_2  and  C_3 
REMARK    2  A    between atoms: C_3  and  C_4 
REMARK    3  A    between atoms: C_8  and  C_9 
REMARK       I    between atoms: C_9  and  N_10 
REMARK    4  A    between atoms: N_10  and  C_11 
REMARK    5  A    between atoms: N_10  and  C_17 
REMARK    6  A    between atoms: C_17  and  C_18 
REMARK    7  A    between atoms: C_18  and  O_19 
REMARK    8  A    between atoms: C_18  and  C_20 
ROOT
HETATM    1  C   UNL     1       6.049  26.615  52.817  1.00  0.00     0.272 C 
HETATM    2  N   UNL     1       6.557  26.131  54.040  1.00  0.00    -0.339 N 
HETATM    3  O   UNL     1       6.497  26.186  51.752  1.00  0.00    -0.266 OA
ENDROOT
BRANCH   2   4
HETATM    4  C   UNL     1       6.189  26.679  55.373  1.00  0.00     0.087 C 
HETATM    5  C   UNL     1       5.723  25.582  56.344  1.00  0.00     0.025 C 
HETATM    6  C   UNL     1       6.812  25.033  57.257  1.00  0.00     0.002 C 
HETATM    7  C   UNL     1       7.540  26.152  57.984  1.00  0.00     0.000 C 
HETATM    8  C   UNL     1       8.198  27.098  56.993  1.00  0.00     0.002 C 
HETATM    9  C   UNL     1       7.200  27.674  55.987  1.00  0.00     0.025 C 
ENDBRANCH   2   4
BRANCH   2  10
HETATM   10  C   UNL     1       7.610  25.100  53.925  1.00  0.00     0.163 C 
BRANCH  10  11
HETATM   11  C   UNL     1       7.206  23.833  53.124  1.00  0.00     0.169 C 
BRANCH  11  12
HETATM   12  O   UNL     1       7.768  23.771  51.814  1.00  0.00    -0.389 OA
HETATM   13  H   UNL     1       7.593  22.882  51.447  1.00  0.00     0.210 HD
ENDBRANCH  11  12
BRANCH  11  14
HETATM   14  C   UNL     1       7.636  22.571  53.848  1.00  0.00    -0.028 A 
HETATM   15  C   UNL     1       7.569  22.490  55.246  1.00  0.00     0.010 A 
HETATM   16  C   UNL     1       7.973  21.327  55.909  1.00  0.00     0.001 A 
HETATM   17  C   UNL     1       8.448  20.235  55.186  1.00  0.00     0.000 A 
HETATM   18  C   UNL     1       8.511  20.298  53.796  1.00  0.00     0.001 A 
HETATM   19  C   UNL     1       8.100  21.454  53.131  1.00  0.00     0.010 A 
ENDBRANCH  11  14
ENDBRANCH  10  11
ENDBRANCH   2  10
BRANCH   1  20
HETATM   20  C   UNL     1       5.026  27.625  52.814  1.00  0.00     0.119 A 
HETATM   21  N   UNL     1       3.684  27.420  52.971  1.00  0.00    -0.273 N 
HETATM   22  N   UNL     1       2.948  28.543  52.916  1.00  0.00    -0.179 NA
HETATM   23  H   UNL     1       3.201  26.541  53.118  1.00  0.00     0.189 HD
HETATM   24  C   UNL     1       3.837  29.495  52.605  1.00  0.00     0.057 A 
HETATM   25  C   UNL     1       5.145  28.969  52.515  1.00  0.00     0.065 A 
BRANCH  24  26
HETATM   26  C   UNL     1       3.408  30.906  52.381  1.00  0.00     0.061 C 
BRANCH  26  27
HETATM   27  C   UNL     1       3.295  31.687  53.691  1.00  0.00     0.002 C 
HETATM   28  C   UNL     1       2.222  32.761  53.611  1.00  0.00     0.005 C 
ENDBRANCH  26  27
ENDBRANCH  24  26
ENDBRANCH   1  20
TORSDOF 8
ENDMDL
MODEL 8
REMARK VINA RESULT:      -7.1      2.599      3.137
REMARK  8 active torsions:
REMARK  status: ('A' for Active; 'I' for Inactive)
REMARK    1  A    between atoms: C_2  and  C_3 
REMARK    2  A    between atoms: C_3  and  C_4 
REMARK    3  A    between atoms: C_8  and  C_9 
REMARK       I    between atoms: C_9  and  N_10 
REMARK    4  A    between atoms: N_10  and  C_11 
REMARK    5  A    between atoms: N_10  and  C_17 
REMARK    6  A    between atoms: C_17  and  C_18 
REMARK    7  A    between atoms: C_18  and  O_19 
REMARK    8  A    between atoms: C_18  and  C_20 
ROOT
HETATM    1  C   UNL     1       6.803  28.062  55.249  1.00  0.00     0.272 C 
HETATM    2  N   UNL     1       6.527  27.078  54.278  1.00  0.00    -0.339 N 
HETATM    3  O   UNL     1       7.837  27.993  55.916  1.00  0.00    -0.266 OA
ENDROOT
BRANCH   2   4
HETATM    4  C   UNL     1       5.248  26.988  53.521  1.00  0.00     0.087 C 
HETATM    5  C   UNL     1       5.322  27.716  52.169  1.00  0.00     0.025 C 
HETATM    6  C   UNL     1       5.684  26.828  50.985  1.00  0.00     0.002 C 
HETATM    7  C   UNL     1       4.782  25.606  50.914  1.00  0.00     0.000 C 
HETATM    8  C   UNL     1       4.910  24.770  52.177  1.00  0.00     0.002 C 
HETATM    9  C   UNL     1       4.619  25.578  53.443  1.00  0.00     0.025 C 
ENDBRANCH   2   4
BRANCH   2  10
HETATM   10  C   UNL     1       7.552  26.023  54.134  1.00  0.00     0.163 C 
BRANCH  10  11
HETATM   11  C   UNL     1       7.630  25.017  55.313  1.00  0.00     0.169 C 
BRANCH  11  12
HETATM   12  O   UNL     1       6.508  25.068  56.194  1.00  0.00    -0.389 OA
HETATM   13  H   UNL     1       5.937  24.297  56.007  1.00  0.00     0.210 HD
ENDBRANCH  11  12
BRANCH  11  14
HETATM   14  C   UNL     1       7.727  23.590  54.807  1.00  0.00    -0.028 A 
HETATM   15  C   UNL     1       7.900  23.326  53.441  1.00  0.00     0.010 A 
HETATM   16  C   UNL     1       7.981  22.010  52.977  1.00  0.00     0.001 A 
HETATM   17  C   UNL     1       7.891  20.943  53.871  1.00  0.00     0.000 A 
HETATM   18  C   UNL     1       7.729  21.191  55.232  1.00  0.00     0.001 A 
HETATM   19  C   UNL     1       7.655  22.505  55.698  1.00  0.00     0.010 A 
ENDBRANCH  11  14
ENDBRANCH  10  11
ENDBRANCH   2  10
BRANCH   1  20
HETATM   20  C   UNL     1       5.868  29.130  55.476  1.00  0.00     0.119 A 
HETATM   21  N   UNL     1       5.440  30.042  54.553  1.00  0.00    -0.273 N 
HETATM   22  N   UNL     1       4.569  30.944  55.037  1.00  0.00    -0.179 NA
HETATM   23  H   UNL     1       5.702  30.110  53.576  1.00  0.00     0.189 HD
HETATM   24  C   UNL     1       4.515  30.668  56.346  1.00  0.00     0.057 A 
HETATM   25  C   UNL     1       5.320  29.554  56.671  1.00  0.00     0.065 A 
BRANCH  24  26
HETATM   26  C   UNL     1       3.695  31.499  57.275  1.00  0.00     0.061 C 
BRANCH  26  27
HETATM   27  C   UNL     1       3.448  30.795  58.611  1.00  0.00     0.002 C 
HETATM   28  C   UNL     1       3.423  31.782  59.766  1.00  0.00     0.005 C 
ENDBRANCH  26  27
ENDBRANCH  24  26
ENDBRANCH   1  20
TORSDOF 8
ENDMDL
MODEL 9
REMARK VINA RESULT:      -6.7      3.248      7.416
REMARK  8 active torsions:
REMARK  status: ('A' for Active; 'I' for Inactive)
REMARK    1  A    between atoms: C_2  and  C_3 
REMARK    2  A    between atoms: C_3  and  C_4 
REMARK    3  A    between atoms: C_8  and  C_9 
REMARK       I    between atoms: C_9  and  N_10 
REMARK    4  A    between atoms: N_10  and  C_11 
REMARK    5  A    between atoms: N_10  and  C_17 
REMARK    6  A    between atoms: C_17  and  C_18 
REMARK    7  A    between atoms: C_18  and  O_19 
REMARK    8  A    between atoms: C_18  and  C_20 
ROOT
HETATM    1  C   UNL     1       7.012  25.682  53.117  1.00  0.00     0.272 C 
HETATM    2  N   UNL     1       6.409  26.830  53.672  1.00  0.00    -0.339 N 
HETATM    3  O   UNL     1       7.097  25.564  51.894  1.00  0.00    -0.266 OA
ENDROOT
BRANCH   2   4
HETATM    4  C   UNL     1       6.129  27.008  55.123  1.00  0.00     0.087 C 
HETATM    5  C   UNL     1       7.081  28.022  55.778  1.00  0.00     0.025 C 
HETATM    6  C   UNL     1       6.543  29.445  55.854  1.00  0.00     0.002 C 
HETATM    7  C   UNL     1       5.163  29.482  56.491  1.00  0.00     0.000 C 
HETATM    8  C   UNL     1       4.177  28.656  55.681  1.00  0.00     0.002 C 
HETATM    9  C   UNL     1       4.642  27.210  55.495  1.00  0.00     0.025 C 
ENDBRANCH   2   4
BRANCH   2  10
HETATM   10  C   UNL     1       5.931  27.830  52.694  1.00  0.00     0.163 C 
BRANCH  10  11
HETATM   11  C   UNL     1       4.644  27.433  51.922  1.00  0.00     0.169 C 
BRANCH  11  12
HETATM   12  O   UNL     1       3.497  28.206  52.270  1.00  0.00    -0.389 OA
HETATM   13  H   UNL     1       3.174  27.900  53.141  1.00  0.00     0.210 HD
ENDBRANCH  11  12
BRANCH  11  14
HETATM   14  C   UNL     1       4.838  27.582  50.425  1.00  0.00    -0.028 A 
HETATM   15  C   UNL     1       4.518  26.531  49.554  1.00  0.00     0.010 A 
HETATM   16  C   UNL     1       4.706  26.670  48.175  1.00  0.00     0.001 A 
HETATM   17  C   UNL     1       5.215  27.858  47.652  1.00  0.00     0.000 A 
HETATM   18  C   UNL     1       5.528  28.913  48.505  1.00  0.00     0.001 A 
HETATM   19  C   UNL     1       5.335  28.779  49.880  1.00  0.00     0.010 A 
ENDBRANCH  11  14
ENDBRANCH  10  11
ENDBRANCH   2  10
BRANCH   1  20
HETATM   20  C   UNL     1       7.505  24.643  53.979  1.00  0.00     0.119 A 
HETATM   21  N   UNL     1       8.434  24.786  54.971  1.00  0.00    -0.273 N 
HETATM   22  N   UNL     1       8.723  23.643  55.618  1.00  0.00    -0.179 NA
HETATM   23  H   UNL     1       8.913  25.631  55.260  1.00  0.00     0.189 HD
HETATM   24  C   UNL     1       8.035  22.711  54.948  1.00  0.00     0.057 A 
HETATM   25  C   UNL     1       7.272  23.283  53.906  1.00  0.00     0.065 A 
BRANCH  24  26
HETATM   26  C   UNL     1       8.136  21.268  55.313  1.00  0.00     0.061 C 
BRANCH  26  27
HETATM   27  C   UNL     1       7.755  20.352  54.149  1.00  0.00     0.002 C 
HETATM   28  C   UNL     1       8.837  20.323  53.082  1.00  0.00     0.005 C 
ENDBRANCH  26  27
ENDBRANCH  24  26
ENDBRANCH   1  20
TORSDOF 8
ENDMDL
MODEL 10
REMARK VINA RESULT:      -6.7      5.509      9.155
REMARK  8 active torsions:
REMARK  status: ('A' for Active; 'I' for Inactive)
REMARK    1  A    between atoms: C_2  and  C_3 
REMARK    2  A    between atoms: C_3  and  C_4 
REMARK    3  A    between atoms: C_8  and  C_9 
REMARK       I    between atoms: C_9  and  N_10 
REMARK    4  A    between atoms: N_10  and  C_11 
REMARK    5  A    between atoms: N_10  and  C_17 
REMARK    6  A    between atoms: C_17  and  C_18 
REMARK    7  A    between atoms: C_18  and  O_19 
REMARK    8  A    between atoms: C_18  and  C_20 
ROOT
HETATM    1  C   UNL     1       4.360  28.056  52.302  1.00  0.00     0.272 C 
HETATM    2  N   UNL     1       4.364  28.347  50.922  1.00  0.00    -0.339 N 
HETATM    3  O   UNL     1       3.860  28.855  53.096  1.00  0.00    -0.266 OA
ENDROOT
BRANCH   2   4
HETATM    4  C   UNL     1       5.062  27.524  49.897  1.00  0.00     0.087 C 
HETATM    5  C   UNL     1       4.363  26.174  49.663  1.00  0.00     0.025 C 
HETATM    6  C   UNL     1       3.377  26.159  48.501  1.00  0.00     0.002 C 
HETATM    7  C   UNL     1       4.016  26.688  47.227  1.00  0.00     0.000 C 
HETATM    8  C   UNL     1       4.487  28.120  47.417  1.00  0.00     0.002 C 
HETATM    9  C   UNL     1       5.449  28.265  48.598  1.00  0.00     0.025 C 
ENDBRANCH   2   4
BRANCH   2  10
HETATM   10  C   UNL     1       3.730  29.627  50.542  1.00  0.00     0.163 C 
BRANCH  10  11
HETATM   11  C   UNL     1       4.617  30.885  50.739  1.00  0.00     0.169 C 
BRANCH  11  12
HETATM   12  O   UNL     1       5.923  30.600  51.240  1.00  0.00    -0.389 OA
HETATM   13  H   UNL     1       6.561  30.704  50.506  1.00  0.00     0.210 HD
ENDBRANCH  11  12
BRANCH  11  14
HETATM   14  C   UNL     1       4.800  31.633  49.432  1.00  0.00    -0.028 A 
HETATM   15  C   UNL     1       3.763  31.693  48.491  1.00  0.00     0.010 A 
HETATM   16  C   UNL     1       3.937  32.377  47.285  1.00  0.00     0.001 A 
HETATM   17  C   UNL     1       5.148  33.009  47.005  1.00  0.00     0.000 A 
HETATM   18  C   UNL     1       6.184  32.966  47.934  1.00  0.00     0.001 A 
HETATM   19  C   UNL     1       6.009  32.290  49.143  1.00  0.00     0.010 A 
ENDBRANCH  11  14
ENDBRANCH  10  11
ENDBRANCH   2  10
BRANCH   1  20
HETATM   20  C   UNL     1       4.958  26.840  52.781  1.00  0.00     0.119 A 
HETATM   21  N   UNL     1       4.294  25.724  53.207  1.00  0.00    -0.273 N 
HETATM   22  N   UNL     1       5.102  24.729  53.615  1.00  0.00    -0.179 NA
HETATM   23  H   UNL     1       3.293  25.572  53.249  1.00  0.00     0.189 HD
HETATM   24  C   UNL     1       6.328  25.263  53.550  1.00  0.00     0.057 A 
HETATM   25  C   UNL     1       6.288  26.584  53.050  1.00  0.00     0.065 A 
BRANCH  24  26
HETATM   26  C   UNL     1       7.527  24.493  53.989  1.00  0.00     0.061 C 
BRANCH  26  27
HETATM   27  C   UNL     1       8.103  23.634  52.861  1.00  0.00     0.002 C 
HETATM   28  C   UNL     1       7.824  22.156  53.085  1.00  0.00     0.005 C 
ENDBRANCH  26  27
ENDBRANCH  24  26
ENDBRANCH   1  20
TORSDOF 8
ENDMDL
