MODEL 1
REMARK VINA RESULT:      -9.4      0.000      0.000
REMARK  4 active torsions:
REMARK  status: ('A' for Active; 'I' for Inactive)
REMARK    1  A    between atoms: C_2  and  C_3 
REMARK    2  A    between atoms: C_4  and  C_5 
REMARK       I    between atoms: C_5  and  N_6 
REMARK    3  A    between atoms: N_6  and  C_7 
REMARK    4  A    between atoms: C_14  and  C_15 
REMARK       I    between atoms: C_15  and  N_16 
ROOT
HETATM    1  C   UNL     1       8.686  28.910  57.440  1.00  0.00     0.035 A 
HETATM    2  C   UNL     1       7.989  29.591  58.447  1.00  0.00     0.046 A 
HETATM    3  C   UNL     1       8.561  30.739  59.039  1.00  0.00     0.030 A 
HETATM    4  C   UNL     1       9.807  31.168  58.601  1.00  0.00     0.063 A 
HETATM    5  N   UNL     1      10.093  32.276  59.349  1.00  0.00    -0.277 N 
HETATM    6  H   UNL     1      10.927  32.851  59.300  1.00  0.00     0.189 HD
HETATM    7  N   UNL     1       9.143  32.608  60.239  1.00  0.00    -0.168 NA
HETATM    8  C   UNL     1       8.188  31.667  60.059  1.00  0.00     0.156 A 
HETATM    9  C   UNL     1      10.527  30.521  57.596  1.00  0.00     0.034 A 
HETATM   10  C   UNL     1       9.940  29.383  57.029  1.00  0.00     0.032 A 
ENDROOT
BRANCH   1  11
HETATM   11  N   UNL     1       8.211  27.739  56.806  1.00  0.00    -0.324 N 
HETATM   12  C   UNL     1       6.922  27.247  56.812  1.00  0.00     0.245 C 
HETATM   13  O   UNL     1       5.936  27.756  57.326  1.00  0.00    -0.268 OA
HETATM   14  H   UNL     1       8.910  27.199  56.315  1.00  0.00     0.169 HD
BRANCH  12  15
HETATM   15  C   UNL     1       6.825  25.937  56.105  1.00  0.00     0.075 C 
HETATM   16  C   UNL     1       7.935  25.367  55.609  1.00  0.00     0.017 C 
BRANCH  16  17
HETATM   17  C   UNL     1       7.959  24.093  54.879  1.00  0.00    -0.036 A 
HETATM   18  C   UNL     1       7.682  24.010  53.506  1.00  0.00     0.013 A 
HETATM   19  C   UNL     1       7.759  22.783  52.839  1.00  0.00     0.024 A 
HETATM   20  C   UNL     1       8.125  21.635  53.538  1.00  0.00     0.034 A 
HETATM   21  C   UNL     1       8.416  21.703  54.897  1.00  0.00     0.024 A 
HETATM   22 CL   UNL     1       8.225  20.129  52.713  1.00  0.00    -0.084 Cl
HETATM   23  C   UNL     1       8.340  22.930  55.564  1.00  0.00     0.013 A 
ENDBRANCH  16  17
ENDBRANCH  12  15
ENDBRANCH   1  11
BRANCH   8  24
HETATM   24  C   UNL     1       6.956  31.673  60.861  1.00  0.00     0.270 C 
HETATM   25  N   UNL     1       7.070  31.034  62.065  1.00  0.00    -0.365 N 
HETATM   26  H   UNL     1       7.960  30.615  62.310  1.00  0.00     0.159 HD
HETATM   27  H   UNL     1       6.275  30.986  62.681  1.00  0.00     0.159 HD
HETATM   28  O   UNL     1       5.901  32.194  60.518  1.00  0.00    -0.266 OA
ENDBRANCH   8  24
TORSDOF 4
ENDMDL
MODEL 2
REMARK VINA RESULT:      -9.2      5.601      9.960
REMARK  4 active torsions:
REMARK  status: ('A' for Active; 'I' for Inactive)
REMARK    1  A    between atoms: C_2  and  C_3 
REMARK    2  A    between atoms: C_4  and  C_5 
REMARK       I    between atoms: C_5  and  N_6 
REMARK    3  A    between atoms: N_6  and  C_7 
REMARK    4  A    between atoms: C_14  and  C_15 
REMARK       I    between atoms: C_15  and  N_16 
ROOT
HETATM    1  C   UNL     1       7.869  30.133  58.355  1.00  0.00     0.035 A 
HETATM    2  C   UNL     1       6.770  29.704  57.598  1.00  0.00     0.046 A 
HETATM    3  C   UNL     1       6.979  29.154  56.313  1.00  0.00     0.030 A 
HETATM    4  C   UNL     1       8.278  29.048  55.833  1.00  0.00     0.063 A 
HETATM    5  N   UNL     1       8.161  28.495  54.589  1.00  0.00    -0.277 N 
HETATM    6  H   UNL     1       8.910  28.274  53.942  1.00  0.00     0.189 HD
HETATM    7  N   UNL     1       6.898  28.231  54.213  1.00  0.00    -0.168 NA
HETATM    8  C   UNL     1       6.155  28.633  55.269  1.00  0.00     0.156 A 
HETATM    9  C   UNL     1       9.396  29.457  56.560  1.00  0.00     0.034 A 
HETATM   10  C   UNL     1       9.162  30.002  57.829  1.00  0.00     0.032 A 
ENDROOT
BRANCH   1  11
HETATM   11  N   UNL     1       7.763  30.719  59.637  1.00  0.00    -0.324 N 
HETATM   12  C   UNL     1       8.394  31.858  60.093  1.00  0.00     0.245 C 
HETATM   13  O   UNL     1       9.126  32.605  59.459  1.00  0.00    -0.268 OA
HETATM   14  H   UNL     1       7.172  30.225  60.291  1.00  0.00     0.169 HD
BRANCH  12  15
HETATM   15  C   UNL     1       8.103  32.115  61.533  1.00  0.00     0.075 C 
HETATM   16  C   UNL     1       6.989  32.780  61.877  1.00  0.00     0.017 C 
BRANCH  16  17
HETATM   17  C   UNL     1       6.611  33.107  63.258  1.00  0.00    -0.036 A 
HETATM   18  C   UNL     1       7.561  33.339  64.262  1.00  0.00     0.013 A 
HETATM   19  C   UNL     1       7.159  33.691  65.555  1.00  0.00     0.024 A 
HETATM   20  C   UNL     1       5.804  33.826  65.847  1.00  0.00     0.034 A 
HETATM   21  C   UNL     1       4.848  33.614  64.858  1.00  0.00     0.024 A 
HETATM   22 CL   UNL     1       5.312  34.266  67.435  1.00  0.00    -0.084 Cl
HETATM   23  C   UNL     1       5.251  33.262  63.565  1.00  0.00     0.013 A 
ENDBRANCH  16  17
ENDBRANCH  12  15
ENDBRANCH   1  11
BRANCH   8  24
HETATM   24  C   UNL     1       4.690  28.514  55.255  1.00  0.00     0.270 C 
HETATM   25  N   UNL     1       4.186  27.710  56.241  1.00  0.00    -0.365 N 
HETATM   26  H   UNL     1       4.832  27.268  56.885  1.00  0.00     0.159 HD
HETATM   27  H   UNL     1       3.191  27.567  56.307  1.00  0.00     0.159 HD
HETATM   28  O   UNL     1       3.951  29.069  54.450  1.00  0.00    -0.266 OA
ENDBRANCH   8  24
TORSDOF 4
ENDMDL
MODEL 3
REMARK VINA RESULT:      -9.1      4.601      9.522
REMARK  4 active torsions:
REMARK  status: ('A' for Active; 'I' for Inactive)
REMARK    1  A    between atoms: C_2  and  C_3 
REMARK    2  A    between atoms: C_4  and  C_5 
REMARK       I    between atoms: C_5  and  N_6 
REMARK    3  A    between atoms: N_6  and  C_7 
REMARK    4  A    between atoms: C_14  and  C_15 
REMARK       I    between atoms: C_15  and  N_16 
ROOT
HETATM    1  C   UNL     1       7.602  25.857  56.009  1.00  0.00     0.035 A 
HETATM    2  C   UNL     1       7.948  24.533  56.311  1.00  0.00     0.046 A 
HETATM    3  C   UNL     1       8.031  23.578  55.273  1.00  0.00     0.030 A 
HETATM    4  C   UNL     1       7.770  23.981  53.970  1.00  0.00     0.063 A 
HETATM    5  N   UNL     1       7.922  22.858  53.206  1.00  0.00    -0.277 N 
HETATM    6  H   UNL     1       7.807  22.779  52.202  1.00  0.00     0.189 HD
HETATM    7  N   UNL     1       8.259  21.756  53.895  1.00  0.00    -0.168 NA
HETATM    8  C   UNL     1       8.330  22.185  55.177  1.00  0.00     0.156 A 
HETATM    9  C   UNL     1       7.430  25.291  53.630  1.00  0.00     0.034 A 
HETATM   10  C   UNL     1       7.351  26.217  54.677  1.00  0.00     0.032 A 
ENDROOT
BRANCH   1  11
HETATM   11  N   UNL     1       7.468  26.877  56.978  1.00  0.00    -0.324 N 
HETATM   12  C   UNL     1       8.072  28.118  56.978  1.00  0.00     0.245 C 
HETATM   13  O   UNL     1       8.798  28.590  56.114  1.00  0.00    -0.268 OA
HETATM   14  H   UNL     1       6.878  26.651  57.766  1.00  0.00     0.169 HD
BRANCH  12  15
HETATM   15  C   UNL     1       7.757  28.888  58.216  1.00  0.00     0.075 C 
HETATM   16  C   UNL     1       8.559  29.896  58.592  1.00  0.00     0.017 C 
BRANCH  16  17
HETATM   17  C   UNL     1       8.360  30.709  59.800  1.00  0.00    -0.036 A 
HETATM   18  C   UNL     1       7.302  31.620  59.926  1.00  0.00     0.013 A 
HETATM   19  C   UNL     1       7.122  32.342  61.110  1.00  0.00     0.024 A 
HETATM   20  C   UNL     1       7.992  32.147  62.180  1.00  0.00     0.034 A 
HETATM   21  C   UNL     1       9.039  31.235  62.077  1.00  0.00     0.024 A 
HETATM   22 CL   UNL     1       7.765  33.030  63.638  1.00  0.00    -0.084 Cl
HETATM   23  C   UNL     1       9.218  30.513  60.892  1.00  0.00     0.013 A 
ENDBRANCH  16  17
ENDBRANCH  12  15
ENDBRANCH   1  11
BRANCH   8  24
HETATM   24  C   UNL     1       8.676  21.262  56.267  1.00  0.00     0.270 C 
HETATM   25  N   UNL     1       9.423  20.186  55.872  1.00  0.00    -0.365 N 
HETATM   26  H   UNL     1       9.673  20.102  54.894  1.00  0.00     0.159 HD
HETATM   27  H   UNL     1       9.704  19.498  56.552  1.00  0.00     0.159 HD
HETATM   28  O   UNL     1       8.345  21.407  57.438  1.00  0.00    -0.266 OA
ENDBRANCH   8  24
TORSDOF 4
ENDMDL
MODEL 4
REMARK VINA RESULT:      -9.1      4.576      9.424
REMARK  4 active torsions:
REMARK  status: ('A' for Active; 'I' for Inactive)
REMARK    1  A    between atoms: C_2  and  C_3 
REMARK    2  A    between atoms: C_4  and  C_5 
REMARK       I    between atoms: C_5  and  N_6 
REMARK    3  A    between atoms: N_6  and  C_7 
REMARK    4  A    between atoms: C_14  and  C_15 
REMARK       I    between atoms: C_15  and  N_16 
ROOT
HETATM    1  C   UNL     1       7.437  26.468  56.693  1.00  0.00     0.035 A 
HETATM    2  C   UNL     1       6.742  26.222  55.501  1.00  0.00     0.046 A 
HETATM    3  C   UNL     1       6.995  25.036  54.777  1.00  0.00     0.030 A 
HETATM    4  C   UNL     1       7.929  24.135  55.271  1.00  0.00     0.063 A 
HETATM    5  N   UNL     1       7.957  23.109  54.369  1.00  0.00    -0.277 N 
HETATM    6  H   UNL     1       8.530  22.273  54.407  1.00  0.00     0.189 HD
HETATM    7  N   UNL     1       7.124  23.261  53.326  1.00  0.00    -0.168 NA
HETATM    8  C   UNL     1       6.520  24.448  53.564  1.00  0.00     0.156 A 
HETATM    9  C   UNL     1       8.635  24.342  56.457  1.00  0.00     0.034 A 
HETATM   10  C   UNL     1       8.369  25.528  57.154  1.00  0.00     0.032 A 
ENDROOT
BRANCH   1  11
HETATM   11  N   UNL     1       7.275  27.635  57.473  1.00  0.00    -0.324 N 
HETATM   12  C   UNL     1       7.812  28.884  57.236  1.00  0.00     0.245 C 
HETATM   13  O   UNL     1       8.489  29.230  56.279  1.00  0.00    -0.268 OA
HETATM   14  H   UNL     1       6.719  27.523  58.309  1.00  0.00     0.169 HD
BRANCH  12  15
HETATM   15  C   UNL     1       7.490  29.844  58.332  1.00  0.00     0.075 C 
HETATM   16  C   UNL     1       8.383  30.056  59.311  1.00  0.00     0.017 C 
BRANCH  16  17
HETATM   17  C   UNL     1       8.168  30.960  60.449  1.00  0.00    -0.036 A 
HETATM   18  C   UNL     1       7.263  32.030  60.397  1.00  0.00     0.013 A 
HETATM   19  C   UNL     1       7.054  32.840  61.518  1.00  0.00     0.024 A 
HETATM   20  C   UNL     1       7.741  32.577  62.701  1.00  0.00     0.034 A 
HETATM   21  C   UNL     1       8.632  31.510  62.774  1.00  0.00     0.024 A 
HETATM   22 CL   UNL     1       7.478  33.571  64.080  1.00  0.00    -0.084 Cl
HETATM   23  C   UNL     1       8.839  30.700  61.652  1.00  0.00     0.013 A 
ENDBRANCH  16  17
ENDBRANCH  12  15
ENDBRANCH   1  11
BRANCH   8  24
HETATM   24  C   UNL     1       5.519  24.989  52.635  1.00  0.00     0.270 C 
HETATM   25  N   UNL     1       4.242  24.989  53.129  1.00  0.00    -0.365 N 
HETATM   26  H   UNL     1       4.083  24.628  54.062  1.00  0.00     0.159 HD
HETATM   27  H   UNL     1       3.488  25.339  52.560  1.00  0.00     0.159 HD
HETATM   28  O   UNL     1       5.763  25.412  51.511  1.00  0.00    -0.266 OA
ENDBRANCH   8  24
TORSDOF 4
ENDMDL
MODEL 5
REMARK VINA RESULT:      -9.1      2.997      5.465
REMARK  4 active torsions:
REMARK  status: ('A' for Active; 'I' for Inactive)
REMARK    1  A    between atoms: C_2  and  C_3 
REMARK    2  A    between atoms: C_4  and  C_5 
REMARK       I    between atoms: C_5  and  N_6 
REMARK    3  A    between atoms: N_6  and  C_7 
REMARK    4  A    between atoms: C_14  and  C_15 
REMARK       I    between atoms: C_15  and  N_16 
ROOT
HETATM    1  C   UNL     1       7.288  31.737  61.609  1.00  0.00     0.035 A 
HETATM    2  C   UNL     1       6.013  32.311  61.714  1.00  0.00     0.046 A 
HETATM    3  C   UNL     1       5.693  33.102  62.840  1.00  0.00     0.030 A 
HETATM    4  C   UNL     1       6.660  33.296  63.819  1.00  0.00     0.063 A 
HETATM    5  N   UNL     1       6.065  34.083  64.764  1.00  0.00    -0.277 N 
HETATM    6  H   UNL     1       6.477  34.425  65.626  1.00  0.00     0.189 HD
HETATM    7  N   UNL     1       4.794  34.421  64.490  1.00  0.00    -0.168 NA
HETATM    8  C   UNL     1       4.549  33.821  63.302  1.00  0.00     0.156 A 
HETATM    9  C   UNL     1       7.941  32.748  63.745  1.00  0.00     0.034 A 
HETATM   10  C   UNL     1       8.231  31.964  62.621  1.00  0.00     0.032 A 
ENDROOT
BRANCH   1  11
HETATM   11  N   UNL     1       7.694  30.911  60.537  1.00  0.00    -0.324 N 
HETATM   12  C   UNL     1       8.451  31.272  59.440  1.00  0.00     0.245 C 
HETATM   13  O   UNL     1       8.955  32.362  59.214  1.00  0.00    -0.268 OA
HETATM   14  H   UNL     1       7.368  29.956  60.579  1.00  0.00     0.169 HD
BRANCH  12  15
HETATM   15  C   UNL     1       8.600  30.144  58.474  1.00  0.00     0.075 C 
HETATM   16  C   UNL     1       7.529  29.403  58.151  1.00  0.00     0.017 C 
BRANCH  16  17
HETATM   17  C   UNL     1       7.560  28.259  57.229  1.00  0.00    -0.036 A 
HETATM   18  C   UNL     1       7.617  26.933  57.681  1.00  0.00     0.013 A 
HETATM   19  C   UNL     1       7.600  25.871  56.771  1.00  0.00     0.024 A 
HETATM   20  C   UNL     1       7.513  26.129  55.405  1.00  0.00     0.034 A 
HETATM   21  C   UNL     1       7.440  27.439  54.941  1.00  0.00     0.024 A 
HETATM   22 CL   UNL     1       7.484  24.821  54.288  1.00  0.00    -0.084 Cl
HETATM   23  C   UNL     1       7.457  28.501  55.852  1.00  0.00     0.013 A 
ENDBRANCH  16  17
ENDBRANCH  12  15
ENDBRANCH   1  11
BRANCH   8  24
HETATM   24  C   UNL     1       3.240  33.945  62.646  1.00  0.00     0.270 C 
HETATM   25  N   UNL     1       2.190  33.511  63.409  1.00  0.00    -0.365 N 
HETATM   26  H   UNL     1       2.380  33.146  64.334  1.00  0.00     0.159 HD
HETATM   27  H   UNL     1       1.254  33.555  63.039  1.00  0.00     0.159 HD
HETATM   28  O   UNL     1       3.062  34.392  61.519  1.00  0.00    -0.266 OA
ENDBRANCH   8  24
TORSDOF 4
ENDMDL
MODEL 6
REMARK VINA RESULT:      -8.9      6.753      9.448
REMARK  4 active torsions:
REMARK  status: ('A' for Active; 'I' for Inactive)
REMARK    1  A    between atoms: C_2  and  C_3 
REMARK    2  A    between atoms: C_4  and  C_5 
REMARK       I    between atoms: C_5  and  N_6 
REMARK    3  A    between atoms: N_6  and  C_7 
REMARK    4  A    between atoms: C_14  and  C_15 
REMARK       I    between atoms: C_15  and  N_16 
ROOT
HETATM    1  C   UNL     1       4.853  27.308  50.378  1.00  0.00     0.035 A 
HETATM    2  C   UNL     1       3.860  27.043  49.425  1.00  0.00     0.046 A 
HETATM    3  C   UNL     1       3.551  28.017  48.449  1.00  0.00     0.030 A 
HETATM    4  C   UNL     1       4.248  29.219  48.457  1.00  0.00     0.063 A 
HETATM    5  N   UNL     1       3.734  29.943  47.419  1.00  0.00    -0.277 N 
HETATM    6  H   UNL     1       4.005  30.876  47.128  1.00  0.00     0.189 HD
HETATM    7  N   UNL     1       2.760  29.322  46.733  1.00  0.00    -0.168 NA
HETATM    8  C   UNL     1       2.635  28.128  47.358  1.00  0.00     0.156 A 
HETATM    9  C   UNL     1       5.248  29.514  49.385  1.00  0.00     0.034 A 
HETATM   10  C   UNL     1       5.532  28.534  50.344  1.00  0.00     0.032 A 
ENDROOT
BRANCH   1  11
HETATM   11  N   UNL     1       5.216  26.410  51.408  1.00  0.00    -0.324 N 
HETATM   12  C   UNL     1       4.870  26.482  52.742  1.00  0.00     0.245 C 
HETATM   13  O   UNL     1       4.144  27.308  53.277  1.00  0.00    -0.268 OA
HETATM   14  H   UNL     1       5.815  25.647  51.126  1.00  0.00     0.169 HD
BRANCH  12  15
HETATM   15  C   UNL     1       5.517  25.401  53.541  1.00  0.00     0.075 C 
HETATM   16  C   UNL     1       6.487  24.657  52.987  1.00  0.00     0.017 C 
BRANCH  16  17
HETATM   17  C   UNL     1       7.179  23.556  53.669  1.00  0.00    -0.036 A 
HETATM   18  C   UNL     1       7.839  22.535  52.969  1.00  0.00     0.013 A 
HETATM   19  C   UNL     1       8.525  21.529  53.657  1.00  0.00     0.024 A 
HETATM   20  C   UNL     1       8.564  21.544  55.049  1.00  0.00     0.034 A 
HETATM   21  C   UNL     1       7.927  22.557  55.759  1.00  0.00     0.024 A 
HETATM   22 CL   UNL     1       9.414  20.309  55.893  1.00  0.00    -0.084 Cl
HETATM   23  C   UNL     1       7.242  23.564  55.070  1.00  0.00     0.013 A 
ENDBRANCH  16  17
ENDBRANCH  12  15
ENDBRANCH   1  11
BRANCH   8  24
HETATM   24  C   UNL     1       1.653  27.134  46.905  1.00  0.00     0.270 C 
HETATM   25  N   UNL     1       2.207  25.973  46.439  1.00  0.00    -0.365 N 
HETATM   26  H   UNL     1       3.216  25.884  46.437  1.00  0.00     0.159 HD
HETATM   27  H   UNL     1       1.609  25.235  46.104  1.00  0.00     0.159 HD
HETATM   28  O   UNL     1       0.437  27.292  46.926  1.00  0.00    -0.266 OA
ENDBRANCH   8  24
TORSDOF 4
ENDMDL
MODEL 7
REMARK VINA RESULT:      -8.7      4.765      9.420
REMARK  4 active torsions:
REMARK  status: ('A' for Active; 'I' for Inactive)
REMARK    1  A    between atoms: C_2  and  C_3 
REMARK    2  A    between atoms: C_4  and  C_5 
REMARK       I    between atoms: C_5  and  N_6 
REMARK    3  A    between atoms: N_6  and  C_7 
REMARK    4  A    between atoms: C_14  and  C_15 
REMARK       I    between atoms: C_15  and  N_16 
ROOT
HETATM    1  C   UNL     1       7.528  24.814  54.443  1.00  0.00     0.035 A 
HETATM    2  C   UNL     1       7.782  23.598  55.094  1.00  0.00     0.046 A 
HETATM    3  C   UNL     1       7.986  22.427  54.331  1.00  0.00     0.030 A 
HETATM    4  C   UNL     1       7.934  22.512  52.945  1.00  0.00     0.063 A 
HETATM    5  N   UNL     1       8.161  21.242  52.495  1.00  0.00    -0.277 N 
HETATM    6  H   UNL     1       8.193  20.929  51.531  1.00  0.00     0.189 HD
HETATM    7  N   UNL     1       8.355  20.332  53.465  1.00  0.00    -0.168 NA
HETATM    8  C   UNL     1       8.250  21.050  54.607  1.00  0.00     0.156 A 
HETATM    9  C   UNL     1       7.692  23.705  52.263  1.00  0.00     0.034 A 
HETATM   10  C   UNL     1       7.489  24.850  53.042  1.00  0.00     0.032 A 
ENDROOT
BRANCH   1  11
HETATM   11  N   UNL     1       7.285  26.032  55.117  1.00  0.00    -0.324 N 
HETATM   12  C   UNL     1       6.149  26.813  55.052  1.00  0.00     0.245 C 
HETATM   13  O   UNL     1       5.117  26.573  54.441  1.00  0.00    -0.268 OA
HETATM   14  H   UNL     1       8.046  26.370  55.688  1.00  0.00     0.169 HD
BRANCH  12  15
HETATM   15  C   UNL     1       6.298  28.075  55.834  1.00  0.00     0.075 C 
HETATM   16  C   UNL     1       7.159  28.119  56.863  1.00  0.00     0.017 C 
BRANCH  16  17
HETATM   17  C   UNL     1       7.375  29.297  57.715  1.00  0.00    -0.036 A 
HETATM   18  C   UNL     1       6.427  30.324  57.828  1.00  0.00     0.013 A 
HETATM   19  C   UNL     1       6.652  31.407  58.685  1.00  0.00     0.024 A 
HETATM   20  C   UNL     1       7.820  31.462  59.441  1.00  0.00     0.034 A 
HETATM   21  C   UNL     1       8.764  30.443  59.351  1.00  0.00     0.024 A 
HETATM   22 CL   UNL     1       8.091  32.791  60.499  1.00  0.00    -0.084 Cl
HETATM   23  C   UNL     1       8.538  29.360  58.494  1.00  0.00     0.013 A 
ENDBRANCH  16  17
ENDBRANCH  12  15
ENDBRANCH   1  11
BRANCH   8  24
HETATM   24  C   UNL     1       8.400  20.410  55.922  1.00  0.00     0.270 C 
HETATM   25  N   UNL     1       9.671  19.984  56.193  1.00  0.00    -0.365 N 
HETATM   26  H   UNL     1      10.392  20.130  55.496  1.00  0.00     0.159 HD
HETATM   27  H   UNL     1       9.867  19.529  57.071  1.00  0.00     0.159 HD
HETATM   28  O   UNL     1       7.492  20.253  56.731  1.00  0.00    -0.266 OA
ENDBRANCH   8  24
TORSDOF 4
ENDMDL
MODEL 8
REMARK VINA RESULT:      -8.7      6.340      9.136
REMARK  4 active torsions:
REMARK  status: ('A' for Active; 'I' for Inactive)
REMARK    1  A    between atoms: C_2  and  C_3 
REMARK    2  A    between atoms: C_4  and  C_5 
REMARK       I    between atoms: C_5  and  N_6 
REMARK    3  A    between atoms: N_6  and  C_7 
REMARK    4  A    between atoms: C_14  and  C_15 
REMARK       I    between atoms: C_15  and  N_16 
ROOT
HETATM    1  C   UNL     1       6.208  24.860  54.298  1.00  0.00     0.035 A 
HETATM    2  C   UNL     1       6.730  23.560  54.269  1.00  0.00     0.046 A 
HETATM    3  C   UNL     1       7.417  23.057  55.397  1.00  0.00     0.030 A 
HETATM    4  C   UNL     1       7.554  23.870  56.515  1.00  0.00     0.063 A 
HETATM    5  N   UNL     1       8.253  23.124  57.422  1.00  0.00    -0.277 N 
HETATM    6  H   UNL     1       8.537  23.401  58.355  1.00  0.00     0.189 HD
HETATM    7  N   UNL     1       8.588  21.895  56.994  1.00  0.00    -0.168 NA
HETATM    8  C   UNL     1       8.077  21.838  55.742  1.00  0.00     0.156 A 
HETATM    9  C   UNL     1       7.041  25.165  56.583  1.00  0.00     0.034 A 
HETATM   10  C   UNL     1       6.368  25.641  55.451  1.00  0.00     0.032 A 
ENDROOT
BRANCH   1  11
HETATM   11  N   UNL     1       5.530  25.461  53.214  1.00  0.00    -0.324 N 
HETATM   12  C   UNL     1       6.039  25.753  51.964  1.00  0.00     0.245 C 
HETATM   13  O   UNL     1       7.159  25.501  51.542  1.00  0.00    -0.268 OA
HETATM   14  H   UNL     1       4.571  25.723  53.394  1.00  0.00     0.169 HD
BRANCH  12  15
HETATM   15  C   UNL     1       5.044  26.469  51.114  1.00  0.00     0.075 C 
HETATM   16  C   UNL     1       4.741  25.986  49.899  1.00  0.00     0.017 C 
BRANCH  16  17
HETATM   17  C   UNL     1       3.794  26.616  48.969  1.00  0.00    -0.036 A 
HETATM   18  C   UNL     1       3.209  25.915  47.904  1.00  0.00     0.013 A 
HETATM   19  C   UNL     1       2.278  26.539  47.068  1.00  0.00     0.024 A 
HETATM   20  C   UNL     1       1.918  27.865  47.299  1.00  0.00     0.034 A 
HETATM   21  C   UNL     1       2.478  28.570  48.360  1.00  0.00     0.024 A 
HETATM   22 CL   UNL     1       0.768  28.629  46.273  1.00  0.00    -0.084 Cl
HETATM   23  C   UNL     1       3.409  27.945  49.196  1.00  0.00     0.013 A 
ENDBRANCH  16  17
ENDBRANCH  12  15
ENDBRANCH   1  11
BRANCH   8  24
HETATM   24  C   UNL     1       8.234  20.635  54.913  1.00  0.00     0.270 C 
HETATM   25  N   UNL     1       8.970  19.644  55.502  1.00  0.00    -0.365 N 
HETATM   26  H   UNL     1       9.344  19.803  56.431  1.00  0.00     0.159 HD
HETATM   27  H   UNL     1       9.133  18.782  55.006  1.00  0.00     0.159 HD
HETATM   28  O   UNL     1       7.763  20.492  53.791  1.00  0.00    -0.266 OA
ENDBRANCH   8  24
TORSDOF 4
ENDMDL
MODEL 9
REMARK VINA RESULT:      -8.7      6.853      8.580
REMARK  4 active torsions:
REMARK  status: ('A' for Active; 'I' for Inactive)
REMARK    1  A    between atoms: C_2  and  C_3 
REMARK    2  A    between atoms: C_4  and  C_5 
REMARK       I    between atoms: C_5  and  N_6 
REMARK    3  A    between atoms: N_6  and  C_7 
REMARK    4  A    between atoms: C_14  and  C_15 
REMARK       I    between atoms: C_15  and  N_16 
ROOT
HETATM    1  C   UNL     1       5.012  27.011  50.214  1.00  0.00     0.035 A 
HETATM    2  C   UNL     1       5.344  28.369  50.108  1.00  0.00     0.046 A 
HETATM    3  C   UNL     1       4.931  29.103  48.974  1.00  0.00     0.030 A 
HETATM    4  C   UNL     1       4.198  28.456  47.988  1.00  0.00     0.063 A 
HETATM    5  N   UNL     1       3.954  29.405  47.036  1.00  0.00    -0.277 N 
HETATM    6  H   UNL     1       3.443  29.287  46.168  1.00  0.00     0.189 HD
HETATM    7  N   UNL     1       4.465  30.616  47.312  1.00  0.00    -0.168 NA
HETATM    8  C   UNL     1       5.073  30.446  48.508  1.00  0.00     0.156 A 
HETATM    9  C   UNL     1       3.842  27.109  48.062  1.00  0.00     0.034 A 
HETATM   10  C   UNL     1       4.267  26.402  49.194  1.00  0.00     0.032 A 
ENDROOT
BRANCH   1  11
HETATM   11  N   UNL     1       5.400  26.186  51.294  1.00  0.00    -0.324 N 
HETATM   12  C   UNL     1       5.008  26.293  52.613  1.00  0.00     0.245 C 
HETATM   13  O   UNL     1       4.211  27.090  53.088  1.00  0.00    -0.268 OA
HETATM   14  H   UNL     1       6.057  25.454  51.065  1.00  0.00     0.169 HD
BRANCH  12  15
HETATM   15  C   UNL     1       5.699  25.294  53.479  1.00  0.00     0.075 C 
HETATM   16  C   UNL     1       6.470  24.350  52.918  1.00  0.00     0.017 C 
BRANCH  16  17
HETATM   17  C   UNL     1       7.181  23.305  53.667  1.00  0.00    -0.036 A 
HETATM   18  C   UNL     1       7.898  22.282  53.031  1.00  0.00     0.013 A 
HETATM   19  C   UNL     1       8.599  21.332  53.782  1.00  0.00     0.024 A 
HETATM   20  C   UNL     1       8.596  21.408  55.172  1.00  0.00     0.034 A 
HETATM   21  C   UNL     1       7.901  22.426  55.819  1.00  0.00     0.024 A 
HETATM   22 CL   UNL     1       9.463  20.243  56.094  1.00  0.00    -0.084 Cl
HETATM   23  C   UNL     1       7.201  23.376  55.067  1.00  0.00     0.013 A 
ENDBRANCH  16  17
ENDBRANCH  12  15
ENDBRANCH   1  11
BRANCH   8  24
HETATM   24  C   UNL     1       5.771  31.557  49.170  1.00  0.00     0.270 C 
HETATM   25  N   UNL     1       5.939  32.661  48.378  1.00  0.00    -0.365 N 
HETATM   26  H   UNL     1       5.587  32.635  47.428  1.00  0.00     0.159 HD
HETATM   27  H   UNL     1       6.410  33.471  48.747  1.00  0.00     0.159 HD
HETATM   28  O   UNL     1       6.181  31.538  50.325  1.00  0.00    -0.266 OA
ENDBRANCH   8  24
TORSDOF 4
ENDMDL
MODEL 10
REMARK VINA RESULT:      -8.6      2.234      2.684
REMARK  4 active torsions:
REMARK  status: ('A' for Active; 'I' for Inactive)
REMARK    1  A    between atoms: C_2  and  C_3 
REMARK    2  A    between atoms: C_4  and  C_5 
REMARK       I    between atoms: C_5  and  N_6 
REMARK    3  A    between atoms: N_6  and  C_7 
REMARK    4  A    between atoms: C_14  and  C_15 
REMARK       I    between atoms: C_15  and  N_16 
ROOT
HETATM    1  C   UNL     1       7.031  29.007  57.277  1.00  0.00     0.035 A 
HETATM    2  C   UNL     1       6.084  30.039  57.222  1.00  0.00     0.046 A 
HETATM    3  C   UNL     1       6.191  31.134  58.108  1.00  0.00     0.030 A 
HETATM    4  C   UNL     1       7.243  31.163  59.014  1.00  0.00     0.063 A 
HETATM    5  N   UNL     1       7.079  32.319  59.723  1.00  0.00    -0.277 N 
HETATM    6  H   UNL     1       7.666  32.667  60.474  1.00  0.00     0.189 HD
HETATM    7  N   UNL     1       6.011  33.050  59.361  1.00  0.00    -0.168 NA
HETATM    8  C   UNL     1       5.451  32.329  58.362  1.00  0.00     0.156 A 
HETATM    9  C   UNL     1       8.209  30.159  59.093  1.00  0.00     0.034 A 
HETATM   10  C   UNL     1       8.078  29.082  58.207  1.00  0.00     0.032 A 
ENDROOT
BRANCH   1  11
HETATM   11  N   UNL     1       6.996  27.860  56.454  1.00  0.00    -0.324 N 
HETATM   12  C   UNL     1       5.994  26.913  56.377  1.00  0.00     0.245 C 
HETATM   13  O   UNL     1       4.924  26.916  56.970  1.00  0.00    -0.268 OA
HETATM   14  H   UNL     1       7.813  27.715  55.878  1.00  0.00     0.169 HD
BRANCH  12  15
HETATM   15  C   UNL     1       6.355  25.796  55.457  1.00  0.00     0.075 C 
HETATM   16  C   UNL     1       6.959  24.702  55.947  1.00  0.00     0.017 C 
BRANCH  16  17
HETATM   17  C   UNL     1       7.378  23.552  55.135  1.00  0.00    -0.036 A 
HETATM   18  C   UNL     1       7.600  22.283  55.689  1.00  0.00     0.013 A 
HETATM   19  C   UNL     1       7.955  21.203  54.874  1.00  0.00     0.024 A 
HETATM   20  C   UNL     1       8.078  21.384  53.499  1.00  0.00     0.034 A 
HETATM   21  C   UNL     1       7.847  22.633  52.931  1.00  0.00     0.024 A 
HETATM   22 CL   UNL     1       8.508  20.053  52.497  1.00  0.00    -0.084 Cl
HETATM   23  C   UNL     1       7.492  23.713  53.747  1.00  0.00     0.013 A 
ENDBRANCH  16  17
ENDBRANCH  12  15
ENDBRANCH   1  11
BRANCH   8  24
HETATM   24  C   UNL     1       4.233  32.794  57.684  1.00  0.00     0.270 C 
HETATM   25  N   UNL     1       4.426  33.164  56.381  1.00  0.00    -0.365 N 
HETATM   26  H   UNL     1       5.359  33.098  55.991  1.00  0.00     0.159 HD
HETATM   27  H   UNL     1       3.647  33.499  55.837  1.00  0.00     0.159 HD
HETATM   28  O   UNL     1       3.124  32.859  58.203  1.00  0.00    -0.266 OA
ENDBRANCH   8  24
TORSDOF 4
ENDMDL
