MODEL 1
REMARK VINA RESULT:      -9.0      0.000      0.000
REMARK  5 active torsions:
REMARK  status: ('A' for Active; 'I' for Inactive)
REMARK    1  A    between atoms: C_2  and  N_3 
REMARK       I    between atoms: N_3  and  C_4 
REMARK    2  A    between atoms: C_4  and  C_5 
REMARK    3  A    between atoms: C_13  and  C_14 
REMARK    4  A    between atoms: C_16  and  O_17 
REMARK    5  A    between atoms: C_19  and  O_20 
ROOT
HETATM    1  C   UNL     1       5.127  27.049  51.706  1.00  0.00     0.046 A 
HETATM    2  C   UNL     1       4.677  27.936  52.709  1.00  0.00     0.008 A 
HETATM    3  C   UNL     1       5.032  27.604  54.030  1.00  0.00     0.068 A 
HETATM    4  C   UNL     1       4.625  28.435  55.065  1.00  0.00     0.032 A 
HETATM    5  C   UNL     1       3.878  29.592  54.837  1.00  0.00     0.002 A 
HETATM    6  C   UNL     1       3.528  29.936  53.540  1.00  0.00     0.001 A 
HETATM    7  C   UNL     1       3.925  29.118  52.484  1.00  0.00     0.015 A 
HETATM    8  N   UNL     1       5.760  26.518  54.343  1.00  0.00    -0.248 NA
HETATM    9  C   UNL     1       6.165  25.668  53.370  1.00  0.00     0.069 A 
HETATM   10  C   UNL     1       5.864  25.908  52.041  1.00  0.00     0.050 A 
ENDROOT
BRANCH   9  11
HETATM   11  C   UNL     1       6.971  24.510  53.817  1.00  0.00    -0.004 A 
HETATM   12  C   UNL     1       7.375  24.394  55.162  1.00  0.00     0.053 A 
HETATM   13  C   UNL     1       8.167  23.326  55.607  1.00  0.00     0.102 A 
HETATM   14  C   UNL     1       8.593  22.348  54.693  1.00  0.00     0.101 A 
HETATM   15  C   UNL     1       8.178  22.430  53.363  1.00  0.00     0.040 A 
HETATM   16  C   UNL     1       7.374  23.494  52.934  1.00  0.00     0.017 A 
BRANCH  13  17
HETATM   17  O   UNL     1       8.600  23.175  56.902  1.00  0.00    -0.353 OA
HETATM   18  C   UNL     1       8.907  24.358  57.627  1.00  0.00     0.210 C 
ENDBRANCH  13  17
BRANCH  14  19
HETATM   19  O   UNL     1       9.383  21.344  55.194  1.00  0.00    -0.353 OA
HETATM   20  C   UNL     1       8.838  20.033  55.206  1.00  0.00     0.210 C 
ENDBRANCH  14  19
ENDBRANCH   9  11
BRANCH   1  21
HETATM   21  C   UNL     1       4.824  27.265  50.266  1.00  0.00     0.253 C 
HETATM   22  N   UNL     1       3.977  26.329  49.706  1.00  0.00    -0.349 N 
HETATM   23  H   UNL     1       3.817  25.478  50.232  1.00  0.00     0.163 HD
HETATM   24  O   UNL     1       5.303  28.218  49.668  1.00  0.00    -0.268 OA
BRANCH  22  25
HETATM   25  C   UNL     1       3.557  26.313  48.295  1.00  0.00     0.022 C 
HETATM   26  C   UNL     1       4.755  26.590  47.376  1.00  0.00     0.037 C 
HETATM   27  C   UNL     1       2.437  27.332  48.028  1.00  0.00     0.037 C 
HETATM   28  C   UNL     1       3.007  24.909  47.982  1.00  0.00     0.037 C 
ENDBRANCH  22  25
ENDBRANCH   1  21
TORSDOF 5
ENDMDL
MODEL 2
REMARK VINA RESULT:      -8.9      4.265      7.639
REMARK  5 active torsions:
REMARK  status: ('A' for Active; 'I' for Inactive)
REMARK    1  A    between atoms: C_2  and  N_3 
REMARK       I    between atoms: N_3  and  C_4 
REMARK    2  A    between atoms: C_4  and  C_5 
REMARK    3  A    between atoms: C_13  and  C_14 
REMARK    4  A    between atoms: C_16  and  O_17 
REMARK    5  A    between atoms: C_19  and  O_20 
ROOT
HETATM    1  C   UNL     1       7.366  29.231  58.007  1.00  0.00     0.046 A 
HETATM    2  C   UNL     1       6.121  29.649  57.489  1.00  0.00     0.008 A 
HETATM    3  C   UNL     1       5.437  28.708  56.695  1.00  0.00     0.068 A 
HETATM    4  C   UNL     1       4.205  29.052  56.157  1.00  0.00     0.032 A 
HETATM    5  C   UNL     1       3.618  30.300  56.381  1.00  0.00     0.002 A 
HETATM    6  C   UNL     1       4.276  31.232  57.168  1.00  0.00     0.001 A 
HETATM    7  C   UNL     1       5.515  30.911  57.721  1.00  0.00     0.015 A 
HETATM    8  N   UNL     1       5.917  27.480  56.435  1.00  0.00    -0.248 NA
HETATM    9  C   UNL     1       7.123  27.105  56.924  1.00  0.00     0.069 A 
HETATM   10  C   UNL     1       7.872  27.960  57.713  1.00  0.00     0.050 A 
ENDROOT
BRANCH   9  11
HETATM   11  C   UNL     1       7.557  25.730  56.592  1.00  0.00    -0.004 A 
HETATM   12  C   UNL     1       7.163  25.127  55.380  1.00  0.00     0.053 A 
HETATM   13  C   UNL     1       7.529  23.813  55.054  1.00  0.00     0.102 A 
HETATM   14  C   UNL     1       8.293  23.059  55.960  1.00  0.00     0.101 A 
HETATM   15  C   UNL     1       8.718  23.650  57.151  1.00  0.00     0.040 A 
HETATM   16  C   UNL     1       8.358  24.968  57.458  1.00  0.00     0.017 A 
BRANCH  13  17
HETATM   17  O   UNL     1       7.159  23.175  53.895  1.00  0.00    -0.353 OA
HETATM   18  C   UNL     1       7.752  23.629  52.686  1.00  0.00     0.210 C 
ENDBRANCH  13  17
BRANCH  14  19
HETATM   19  O   UNL     1       8.596  21.774  55.584  1.00  0.00    -0.353 OA
HETATM   20  C   UNL     1       8.230  20.733  56.478  1.00  0.00     0.210 C 
ENDBRANCH  14  19
ENDBRANCH   9  11
BRANCH   1  21
HETATM   21  C   UNL     1       8.206  30.117  58.857  1.00  0.00     0.253 C 
HETATM   22  N   UNL     1       7.714  30.335  60.130  1.00  0.00    -0.349 N 
HETATM   23  H   UNL     1       6.750  30.075  60.301  1.00  0.00     0.163 HD
HETATM   24  O   UNL     1       9.250  30.584  58.424  1.00  0.00    -0.268 OA
BRANCH  22  25
HETATM   25  C   UNL     1       8.348  31.196  61.140  1.00  0.00     0.022 C 
HETATM   26  C   UNL     1       8.661  32.577  60.548  1.00  0.00     0.037 C 
HETATM   27  C   UNL     1       9.630  30.558  61.701  1.00  0.00     0.037 C 
HETATM   28  C   UNL     1       7.355  31.370  62.304  1.00  0.00     0.037 C 
ENDBRANCH  22  25
ENDBRANCH   1  21
TORSDOF 5
ENDMDL
MODEL 3
REMARK VINA RESULT:      -8.7      2.076      7.615
REMARK  5 active torsions:
REMARK  status: ('A' for Active; 'I' for Inactive)
REMARK    1  A    between atoms: C_2  and  N_3 
REMARK       I    between atoms: N_3  and  C_4 
REMARK    2  A    between atoms: C_4  and  C_5 
REMARK    3  A    between atoms: C_13  and  C_14 
REMARK    4  A    between atoms: C_16  and  O_17 
REMARK    5  A    between atoms: C_19  and  O_20 
ROOT
HETATM    1  C   UNL     1       6.627  24.828  53.387  1.00  0.00     0.046 A 
HETATM    2  C   UNL     1       6.236  25.446  54.594  1.00  0.00     0.008 A 
HETATM    3  C   UNL     1       5.401  26.574  54.466  1.00  0.00     0.068 A 
HETATM    4  C   UNL     1       4.976  27.228  55.615  1.00  0.00     0.032 A 
HETATM    5  C   UNL     1       5.344  26.801  56.892  1.00  0.00     0.002 A 
HETATM    6  C   UNL     1       6.158  25.688  57.032  1.00  0.00     0.001 A 
HETATM    7  C   UNL     1       6.599  25.013  55.895  1.00  0.00     0.015 A 
HETATM    8  N   UNL     1       4.985  27.048  53.280  1.00  0.00    -0.248 NA
HETATM    9  C   UNL     1       5.388  26.454  52.132  1.00  0.00     0.069 A 
HETATM   10  C   UNL     1       6.211  25.341  52.153  1.00  0.00     0.050 A 
ENDROOT
BRANCH   9  11
HETATM   11  C   UNL     1       4.866  27.044  50.880  1.00  0.00    -0.004 A 
HETATM   12  C   UNL     1       4.701  26.250  49.727  1.00  0.00     0.053 A 
HETATM   13  C   UNL     1       4.241  26.789  48.516  1.00  0.00     0.102 A 
HETATM   14  C   UNL     1       3.951  28.161  48.432  1.00  0.00     0.101 A 
HETATM   15  C   UNL     1       4.079  28.957  49.571  1.00  0.00     0.040 A 
HETATM   16  C   UNL     1       4.526  28.403  50.778  1.00  0.00     0.017 A 
BRANCH  13  17
HETATM   17  O   UNL     1       4.078  26.062  47.362  1.00  0.00    -0.353 OA
HETATM   18  C   UNL     1       2.996  25.141  47.321  1.00  0.00     0.210 C 
ENDBRANCH  13  17
BRANCH  14  19
HETATM   19  O   UNL     1       3.526  28.623  47.212  1.00  0.00    -0.353 OA
HETATM   20  C   UNL     1       2.158  28.986  47.095  1.00  0.00     0.210 C 
ENDBRANCH  14  19
ENDBRANCH   9  11
BRANCH   1  21
HETATM   21  C   UNL     1       7.512  23.632  53.361  1.00  0.00     0.253 C 
HETATM   22  N   UNL     1       7.279  22.718  54.371  1.00  0.00    -0.349 N 
HETATM   23  H   UNL     1       6.707  23.027  55.148  1.00  0.00     0.163 HD
HETATM   24  O   UNL     1       8.358  23.505  52.488  1.00  0.00    -0.268 OA
BRANCH  22  25
HETATM   25  C   UNL     1       8.043  21.477  54.573  1.00  0.00     0.022 C 
HETATM   26  C   UNL     1       9.521  21.793  54.840  1.00  0.00     0.037 C 
HETATM   27  C   UNL     1       7.913  20.532  53.367  1.00  0.00     0.037 C 
HETATM   28  C   UNL     1       7.460  20.758  55.804  1.00  0.00     0.037 C 
ENDBRANCH  22  25
ENDBRANCH   1  21
TORSDOF 5
ENDMDL
MODEL 4
REMARK VINA RESULT:      -8.6      4.103      7.559
REMARK  5 active torsions:
REMARK  status: ('A' for Active; 'I' for Inactive)
REMARK    1  A    between atoms: C_2  and  N_3 
REMARK       I    between atoms: N_3  and  C_4 
REMARK    2  A    between atoms: C_4  and  C_5 
REMARK    3  A    between atoms: C_13  and  C_14 
REMARK    4  A    between atoms: C_16  and  O_17 
REMARK    5  A    between atoms: C_19  and  O_20 
ROOT
HETATM    1  C   UNL     1       7.359  25.295  55.632  1.00  0.00     0.046 A 
HETATM    2  C   UNL     1       6.391  25.575  54.644  1.00  0.00     0.008 A 
HETATM    3  C   UNL     1       6.009  26.925  54.520  1.00  0.00     0.068 A 
HETATM    4  C   UNL     1       5.062  27.271  53.565  1.00  0.00     0.032 A 
HETATM    5  C   UNL     1       4.480  26.324  52.720  1.00  0.00     0.002 A 
HETATM    6  C   UNL     1       4.853  24.993  52.825  1.00  0.00     0.001 A 
HETATM    7  C   UNL     1       5.801  24.620  53.775  1.00  0.00     0.015 A 
HETATM    8  N   UNL     1       6.525  27.906  55.281  1.00  0.00    -0.248 NA
HETATM    9  C   UNL     1       7.438  27.615  56.237  1.00  0.00     0.069 A 
HETATM   10  C   UNL     1       7.875  26.317  56.437  1.00  0.00     0.050 A 
ENDROOT
BRANCH   9  11
HETATM   11  C   UNL     1       7.953  28.766  57.011  1.00  0.00    -0.004 A 
HETATM   12  C   UNL     1       7.065  29.682  57.611  1.00  0.00     0.053 A 
HETATM   13  C   UNL     1       7.523  30.801  58.321  1.00  0.00     0.102 A 
HETATM   14  C   UNL     1       8.904  31.037  58.429  1.00  0.00     0.101 A 
HETATM   15  C   UNL     1       9.799  30.125  57.869  1.00  0.00     0.040 A 
HETATM   16  C   UNL     1       9.328  29.003  57.174  1.00  0.00     0.017 A 
BRANCH  13  17
HETATM   17  O   UNL     1       6.701  31.730  58.909  1.00  0.00    -0.353 OA
HETATM   18  C   UNL     1       5.535  32.112  58.192  1.00  0.00     0.210 C 
ENDBRANCH  13  17
BRANCH  14  19
HETATM   19  O   UNL     1       9.280  32.162  59.120  1.00  0.00    -0.353 OA
HETATM   20  C   UNL     1       9.654  31.994  60.480  1.00  0.00     0.210 C 
ENDBRANCH  14  19
ENDBRANCH   9  11
BRANCH   1  21
HETATM   21  C   UNL     1       7.857  23.916  55.883  1.00  0.00     0.253 C 
HETATM   22  N   UNL     1       7.791  23.069  54.793  1.00  0.00    -0.349 N 
HETATM   23  H   UNL     1       7.224  23.370  54.010  1.00  0.00     0.163 HD
HETATM   24  O   UNL     1       8.292  23.604  56.983  1.00  0.00    -0.268 OA
BRANCH  22  25
HETATM   25  C   UNL     1       8.194  21.653  54.804  1.00  0.00     0.022 C 
HETATM   26  C   UNL     1       7.890  20.999  53.450  1.00  0.00     0.037 C 
HETATM   27  C   UNL     1       7.499  20.878  55.936  1.00  0.00     0.037 C 
HETATM   28  C   UNL     1       9.712  21.596  55.053  1.00  0.00     0.037 C 
ENDBRANCH  22  25
ENDBRANCH   1  21
TORSDOF 5
ENDMDL
MODEL 5
REMARK VINA RESULT:      -8.5      2.528      8.203
REMARK  5 active torsions:
REMARK  status: ('A' for Active; 'I' for Inactive)
REMARK    1  A    between atoms: C_2  and  N_3 
REMARK       I    between atoms: N_3  and  C_4 
REMARK    2  A    between atoms: C_4  and  C_5 
REMARK    3  A    between atoms: C_13  and  C_14 
REMARK    4  A    between atoms: C_16  and  O_17 
REMARK    5  A    between atoms: C_19  and  O_20 
ROOT
HETATM    1  C   UNL     1       6.576  26.533  54.141  1.00  0.00     0.046 A 
HETATM    2  C   UNL     1       7.177  25.265  53.984  1.00  0.00     0.008 A 
HETATM    3  C   UNL     1       7.100  24.701  52.696  1.00  0.00     0.068 A 
HETATM    4  C   UNL     1       7.675  23.457  52.472  1.00  0.00     0.032 A 
HETATM    5  C   UNL     1       8.330  22.749  53.481  1.00  0.00     0.002 A 
HETATM    6  C   UNL     1       8.420  23.296  54.752  1.00  0.00     0.001 A 
HETATM    7  C   UNL     1       7.853  24.544  55.003  1.00  0.00     0.015 A 
HETATM    8  N   UNL     1       6.501  25.315  51.661  1.00  0.00    -0.248 NA
HETATM    9  C   UNL     1       5.912  26.521  51.836  1.00  0.00     0.069 A 
HETATM   10  C   UNL     1       5.933  27.156  53.065  1.00  0.00     0.050 A 
ENDROOT
BRANCH   9  11
HETATM   11  C   UNL     1       5.291  27.118  50.633  1.00  0.00    -0.004 A 
HETATM   12  C   UNL     1       4.878  26.303  49.559  1.00  0.00     0.053 A 
HETATM   13  C   UNL     1       4.319  26.842  48.392  1.00  0.00     0.102 A 
HETATM   14  C   UNL     1       4.178  28.235  48.268  1.00  0.00     0.101 A 
HETATM   15  C   UNL     1       4.552  29.056  49.333  1.00  0.00     0.040 A 
HETATM   16  C   UNL     1       5.097  28.503  50.499  1.00  0.00     0.017 A 
BRANCH  13  17
HETATM   17  O   UNL     1       3.916  26.093  47.314  1.00  0.00    -0.353 OA
HETATM   18  C   UNL     1       2.971  25.059  47.557  1.00  0.00     0.210 C 
ENDBRANCH  13  17
BRANCH  14  19
HETATM   19  O   UNL     1       3.643  28.693  47.091  1.00  0.00    -0.353 OA
HETATM   20  C   UNL     1       2.351  29.282  47.151  1.00  0.00     0.210 C 
ENDBRANCH  14  19
ENDBRANCH   9  11
BRANCH   1  21
HETATM   21  C   UNL     1       6.571  27.250  55.444  1.00  0.00     0.253 C 
HETATM   22  N   UNL     1       7.598  28.161  55.607  1.00  0.00    -0.349 N 
HETATM   23  H   UNL     1       8.370  28.106  54.954  1.00  0.00     0.163 HD
HETATM   24  O   UNL     1       5.699  27.028  56.271  1.00  0.00    -0.268 OA
BRANCH  22  25
HETATM   25  C   UNL     1       7.822  28.966  56.818  1.00  0.00     0.022 C 
HETATM   26  C   UNL     1       7.813  28.073  58.066  1.00  0.00     0.037 C 
HETATM   27  C   UNL     1       6.771  30.081  56.956  1.00  0.00     0.037 C 
HETATM   28  C   UNL     1       9.205  29.631  56.694  1.00  0.00     0.037 C 
ENDBRANCH  22  25
ENDBRANCH   1  21
TORSDOF 5
ENDMDL
MODEL 6
REMARK VINA RESULT:      -8.1      2.525      8.126
REMARK  5 active torsions:
REMARK  status: ('A' for Active; 'I' for Inactive)
REMARK    1  A    between atoms: C_2  and  N_3 
REMARK       I    between atoms: N_3  and  C_4 
REMARK    2  A    between atoms: C_4  and  C_5 
REMARK    3  A    between atoms: C_13  and  C_14 
REMARK    4  A    between atoms: C_16  and  O_17 
REMARK    5  A    between atoms: C_19  and  O_20 
ROOT
HETATM    1  C   UNL     1       6.613  26.473  54.156  1.00  0.00     0.046 A 
HETATM    2  C   UNL     1       7.212  25.203  54.011  1.00  0.00     0.008 A 
HETATM    3  C   UNL     1       7.126  24.624  52.730  1.00  0.00     0.068 A 
HETATM    4  C   UNL     1       7.698  23.377  52.517  1.00  0.00     0.032 A 
HETATM    5  C   UNL     1       8.358  22.680  53.530  1.00  0.00     0.002 A 
HETATM    6  C   UNL     1       8.456  23.241  54.794  1.00  0.00     0.001 A 
HETATM    7  C   UNL     1       7.892  24.493  55.034  1.00  0.00     0.015 A 
HETATM    8  N   UNL     1       6.523  25.227  51.691  1.00  0.00    -0.248 NA
HETATM    9  C   UNL     1       5.936  26.436  51.855  1.00  0.00     0.069 A 
HETATM   10  C   UNL     1       5.965  27.085  53.077  1.00  0.00     0.050 A 
ENDROOT
BRANCH   9  11
HETATM   11  C   UNL     1       5.309  27.020  50.648  1.00  0.00    -0.004 A 
HETATM   12  C   UNL     1       5.322  28.414  50.437  1.00  0.00     0.053 A 
HETATM   13  C   UNL     1       4.706  28.999  49.321  1.00  0.00     0.102 A 
HETATM   14  C   UNL     1       4.037  28.185  48.390  1.00  0.00     0.101 A 
HETATM   15  C   UNL     1       4.041  26.801  48.567  1.00  0.00     0.040 A 
HETATM   16  C   UNL     1       4.673  26.228  49.678  1.00  0.00     0.017 A 
BRANCH  13  17
HETATM   17  O   UNL     1       4.676  30.350  49.077  1.00  0.00    -0.353 OA
HETATM   18  C   UNL     1       5.835  31.098  49.421  1.00  0.00     0.210 C 
ENDBRANCH  13  17
BRANCH  14  19
HETATM   19  O   UNL     1       3.440  28.827  47.335  1.00  0.00    -0.353 OA
HETATM   20  C   UNL     1       2.111  28.445  47.010  1.00  0.00     0.210 C 
ENDBRANCH  14  19
ENDBRANCH   9  11
BRANCH   1  21
HETATM   21  C   UNL     1       6.617  27.206  55.450  1.00  0.00     0.253 C 
HETATM   22  N   UNL     1       7.641  28.123  55.594  1.00  0.00    -0.349 N 
HETATM   23  H   UNL     1       8.408  28.063  54.935  1.00  0.00     0.163 HD
HETATM   24  O   UNL     1       5.753  26.990  56.288  1.00  0.00    -0.268 OA
BRANCH  22  25
HETATM   25  C   UNL     1       7.872  28.943  56.794  1.00  0.00     0.022 C 
HETATM   26  C   UNL     1       7.849  28.069  58.055  1.00  0.00     0.037 C 
HETATM   27  C   UNL     1       6.835  30.072  56.913  1.00  0.00     0.037 C 
HETATM   28  C   UNL     1       9.264  29.589  56.663  1.00  0.00     0.037 C 
ENDBRANCH  22  25
ENDBRANCH   1  21
TORSDOF 5
ENDMDL
MODEL 7
REMARK VINA RESULT:      -7.8      6.948     10.180
REMARK  5 active torsions:
REMARK  status: ('A' for Active; 'I' for Inactive)
REMARK    1  A    between atoms: C_2  and  N_3 
REMARK       I    between atoms: N_3  and  C_4 
REMARK    2  A    between atoms: C_4  and  C_5 
REMARK    3  A    between atoms: C_13  and  C_14 
REMARK    4  A    between atoms: C_16  and  O_17 
REMARK    5  A    between atoms: C_19  and  O_20 
ROOT
HETATM    1  C   UNL     1       7.179  29.666  57.626  1.00  0.00     0.046 A 
HETATM    2  C   UNL     1       8.574  29.843  57.506  1.00  0.00     0.008 A 
HETATM    3  C   UNL     1       9.126  30.909  58.243  1.00  0.00     0.068 A 
HETATM    4  C   UNL     1      10.494  31.136  58.173  1.00  0.00     0.032 A 
HETATM    5  C   UNL     1      11.341  30.341  57.399  1.00  0.00     0.002 A 
HETATM    6  C   UNL     1      10.812  29.284  56.675  1.00  0.00     0.001 A 
HETATM    7  C   UNL     1       9.442  29.033  56.729  1.00  0.00     0.015 A 
HETATM    8  N   UNL     1       8.391  31.718  59.025  1.00  0.00    -0.248 NA
HETATM    9  C   UNL     1       7.051  31.546  59.111  1.00  0.00     0.069 A 
HETATM   10  C   UNL     1       6.415  30.528  58.422  1.00  0.00     0.050 A 
ENDROOT
BRANCH   9  11
HETATM   11  C   UNL     1       6.335  32.481  60.006  1.00  0.00    -0.004 A 
HETATM   12  C   UNL     1       6.843  32.778  61.287  1.00  0.00     0.053 A 
HETATM   13  C   UNL     1       6.169  33.633  62.171  1.00  0.00     0.102 A 
HETATM   14  C   UNL     1       4.941  34.200  61.789  1.00  0.00     0.101 A 
HETATM   15  C   UNL     1       4.438  33.942  60.513  1.00  0.00     0.040 A 
HETATM   16  C   UNL     1       5.129  33.098  59.634  1.00  0.00     0.017 A 
BRANCH  13  17
HETATM   17  O   UNL     1       6.613  33.942  63.434  1.00  0.00    -0.353 OA
HETATM   18  C   UNL     1       7.612  33.101  63.995  1.00  0.00     0.210 C 
ENDBRANCH  13  17
BRANCH  14  19
HETATM   19  O   UNL     1       4.328  35.009  62.712  1.00  0.00    -0.353 OA
HETATM   20  C   UNL     1       3.081  34.572  63.232  1.00  0.00     0.210 C 
ENDBRANCH  14  19
ENDBRANCH   9  11
BRANCH   1  21
HETATM   21  C   UNL     1       6.453  28.588  56.903  1.00  0.00     0.253 C 
HETATM   22  N   UNL     1       6.858  27.305  57.218  1.00  0.00    -0.349 N 
HETATM   23  H   UNL     1       7.732  27.209  57.720  1.00  0.00     0.163 HD
HETATM   24  O   UNL     1       5.565  28.863  56.108  1.00  0.00    -0.268 OA
BRANCH  22  25
HETATM   25  C   UNL     1       6.313  26.079  56.613  1.00  0.00     0.022 C 
HETATM   26  C   UNL     1       6.271  26.208  55.084  1.00  0.00     0.037 C 
HETATM   27  C   UNL     1       4.911  25.757  57.156  1.00  0.00     0.037 C 
HETATM   28  C   UNL     1       7.247  24.913  56.986  1.00  0.00     0.037 C 
ENDBRANCH  22  25
ENDBRANCH   1  21
TORSDOF 5
ENDMDL
MODEL 8
REMARK VINA RESULT:      -7.8      2.035      7.289
REMARK  5 active torsions:
REMARK  status: ('A' for Active; 'I' for Inactive)
REMARK    1  A    between atoms: C_2  and  N_3 
REMARK       I    between atoms: N_3  and  C_4 
REMARK    2  A    between atoms: C_4  and  C_5 
REMARK    3  A    between atoms: C_13  and  C_14 
REMARK    4  A    between atoms: C_16  and  O_17 
REMARK    5  A    between atoms: C_19  and  O_20 
ROOT
HETATM    1  C   UNL     1       7.133  25.452  54.745  1.00  0.00     0.046 A 
HETATM    2  C   UNL     1       7.354  26.609  55.525  1.00  0.00     0.008 A 
HETATM    3  C   UNL     1       6.909  27.822  54.966  1.00  0.00     0.068 A 
HETATM    4  C   UNL     1       7.092  28.998  55.682  1.00  0.00     0.032 A 
HETATM    5  C   UNL     1       7.697  29.015  56.940  1.00  0.00     0.002 A 
HETATM    6  C   UNL     1       8.132  27.826  57.505  1.00  0.00     0.001 A 
HETATM    7  C   UNL     1       7.960  26.632  56.807  1.00  0.00     0.015 A 
HETATM    8  N   UNL     1       6.304  27.901  53.768  1.00  0.00    -0.248 NA
HETATM    9  C   UNL     1       6.120  26.784  53.026  1.00  0.00     0.069 A 
HETATM   10  C   UNL     1       6.525  25.544  53.488  1.00  0.00     0.050 A 
ENDROOT
BRANCH   9  11
HETATM   11  C   UNL     1       5.435  26.975  51.729  1.00  0.00    -0.004 A 
HETATM   12  C   UNL     1       4.993  28.253  51.333  1.00  0.00     0.053 A 
HETATM   13  C   UNL     1       4.310  28.460  50.126  1.00  0.00     0.102 A 
HETATM   14  C   UNL     1       4.034  27.366  49.287  1.00  0.00     0.101 A 
HETATM   15  C   UNL     1       4.491  26.098  49.648  1.00  0.00     0.040 A 
HETATM   16  C   UNL     1       5.185  25.908  50.850  1.00  0.00     0.017 A 
BRANCH  13  17
HETATM   17  O   UNL     1       3.846  29.681  49.702  1.00  0.00    -0.353 OA
HETATM   18  C   UNL     1       3.631  30.675  50.694  1.00  0.00     0.210 C 
ENDBRANCH  13  17
BRANCH  14  19
HETATM   19  O   UNL     1       3.344  27.639  48.133  1.00  0.00    -0.353 OA
HETATM   20  C   UNL     1       2.275  26.767  47.795  1.00  0.00     0.210 C 
ENDBRANCH  14  19
ENDBRANCH   9  11
BRANCH   1  21
HETATM   21  C   UNL     1       7.553  24.100  55.200  1.00  0.00     0.253 C 
HETATM   22  N   UNL     1       7.820  23.204  54.182  1.00  0.00    -0.349 N 
HETATM   23  H   UNL     1       7.503  23.454  53.254  1.00  0.00     0.163 HD
HETATM   24  O   UNL     1       7.652  23.850  56.393  1.00  0.00    -0.268 OA
BRANCH  22  25
HETATM   25  C   UNL     1       8.221  21.802  54.382  1.00  0.00     0.022 C 
HETATM   26  C   UNL     1       8.062  21.008  53.078  1.00  0.00     0.037 C 
HETATM   27  C   UNL     1       7.411  21.138  55.508  1.00  0.00     0.037 C 
HETATM   28  C   UNL     1       9.705  21.788  54.793  1.00  0.00     0.037 C 
ENDBRANCH  22  25
ENDBRANCH   1  21
TORSDOF 5
ENDMDL
MODEL 9
REMARK VINA RESULT:      -7.8      1.932      2.496
REMARK  5 active torsions:
REMARK  status: ('A' for Active; 'I' for Inactive)
REMARK    1  A    between atoms: C_2  and  N_3 
REMARK       I    between atoms: N_3  and  C_4 
REMARK    2  A    between atoms: C_4  and  C_5 
REMARK    3  A    between atoms: C_13  and  C_14 
REMARK    4  A    between atoms: C_16  and  O_17 
REMARK    5  A    between atoms: C_19  and  O_20 
ROOT
HETATM    1  C   UNL     1       4.828  28.180  52.581  1.00  0.00     0.046 A 
HETATM    2  C   UNL     1       4.459  28.778  53.806  1.00  0.00     0.008 A 
HETATM    3  C   UNL     1       4.890  28.114  54.970  1.00  0.00     0.068 A 
HETATM    4  C   UNL     1       4.565  28.649  56.209  1.00  0.00     0.032 A 
HETATM    5  C   UNL     1       3.827  29.828  56.338  1.00  0.00     0.002 A 
HETATM    6  C   UNL     1       3.403  30.496  55.200  1.00  0.00     0.001 A 
HETATM    7  C   UNL     1       3.717  29.980  53.944  1.00  0.00     0.015 A 
HETATM    8  N   UNL     1       5.615  26.982  54.943  1.00  0.00    -0.248 NA
HETATM    9  C   UNL     1       5.942  26.413  53.759  1.00  0.00     0.069 A 
HETATM   10  C   UNL     1       5.562  26.989  52.560  1.00  0.00     0.050 A 
ENDROOT
BRANCH   9  11
HETATM   11  C   UNL     1       6.751  25.177  53.837  1.00  0.00    -0.004 A 
HETATM   12  C   UNL     1       7.406  24.823  55.034  1.00  0.00     0.053 A 
HETATM   13  C   UNL     1       8.208  23.676  55.129  1.00  0.00     0.102 A 
HETATM   14  C   UNL     1       8.388  22.859  53.999  1.00  0.00     0.101 A 
HETATM   15  C   UNL     1       7.723  23.177  52.814  1.00  0.00     0.040 A 
HETATM   16  C   UNL     1       6.913  24.317  52.738  1.00  0.00     0.017 A 
BRANCH  13  17
HETATM   17  O   UNL     1       8.878  23.296  56.265  1.00  0.00    -0.353 OA
HETATM   18  C   UNL     1       8.886  24.211  57.352  1.00  0.00     0.210 C 
ENDBRANCH  13  17
BRANCH  14  19
HETATM   19  O   UNL     1       9.202  21.766  54.159  1.00  0.00    -0.353 OA
HETATM   20  C   UNL     1       8.665  20.499  53.806  1.00  0.00     0.210 C 
ENDBRANCH  14  19
ENDBRANCH   9  11
BRANCH   1  21
HETATM   21  C   UNL     1       4.440  28.763  51.268  1.00  0.00     0.253 C 
HETATM   22  N   UNL     1       5.233  29.811  50.843  1.00  0.00    -0.349 N 
HETATM   23  H   UNL     1       5.845  30.233  51.530  1.00  0.00     0.163 HD
HETATM   24  O   UNL     1       3.492  28.308  50.644  1.00  0.00    -0.268 OA
BRANCH  22  25
HETATM   25  C   UNL     1       5.028  30.566  49.596  1.00  0.00     0.022 C 
HETATM   26  C   UNL     1       3.692  31.319  49.638  1.00  0.00     0.037 C 
HETATM   27  C   UNL     1       5.081  29.647  48.364  1.00  0.00     0.037 C 
HETATM   28  C   UNL     1       6.171  31.591  49.473  1.00  0.00     0.037 C 
ENDBRANCH  22  25
ENDBRANCH   1  21
TORSDOF 5
ENDMDL
MODEL 10
REMARK VINA RESULT:      -7.6      2.558      4.631
REMARK  5 active torsions:
REMARK  status: ('A' for Active; 'I' for Inactive)
REMARK    1  A    between atoms: C_2  and  N_3 
REMARK       I    between atoms: N_3  and  C_4 
REMARK    2  A    between atoms: C_4  and  C_5 
REMARK    3  A    between atoms: C_13  and  C_14 
REMARK    4  A    between atoms: C_16  and  O_17 
REMARK    5  A    between atoms: C_19  and  O_20 
ROOT
HETATM    1  C   UNL     1       4.390  28.574  50.233  1.00  0.00     0.046 A 
HETATM    2  C   UNL     1       3.791  27.796  49.219  1.00  0.00     0.008 A 
HETATM    3  C   UNL     1       4.050  26.412  49.269  1.00  0.00     0.068 A 
HETATM    4  C   UNL     1       3.489  25.588  48.303  1.00  0.00     0.032 A 
HETATM    5  C   UNL     1       2.672  26.086  47.286  1.00  0.00     0.002 A 
HETATM    6  C   UNL     1       2.402  27.444  47.229  1.00  0.00     0.001 A 
HETATM    7  C   UNL     1       2.953  28.293  48.188  1.00  0.00     0.015 A 
HETATM    8  N   UNL     1       4.813  25.843  50.218  1.00  0.00    -0.248 NA
HETATM    9  C   UNL     1       5.396  26.608  51.171  1.00  0.00     0.069 A 
HETATM   10  C   UNL     1       5.203  27.978  51.204  1.00  0.00     0.050 A 
ENDROOT
BRANCH   9  11
HETATM   11  C   UNL     1       6.206  25.885  52.175  1.00  0.00    -0.004 A 
HETATM   12  C   UNL     1       6.013  26.115  53.553  1.00  0.00     0.053 A 
HETATM   13  C   UNL     1       6.788  25.471  54.527  1.00  0.00     0.102 A 
HETATM   14  C   UNL     1       7.803  24.582  54.132  1.00  0.00     0.101 A 
HETATM   15  C   UNL     1       7.988  24.318  52.774  1.00  0.00     0.040 A 
HETATM   16  C   UNL     1       7.197  24.958  51.812  1.00  0.00     0.017 A 
BRANCH  13  17
HETATM   17  O   UNL     1       6.651  25.672  55.879  1.00  0.00    -0.353 OA
HETATM   18  C   UNL     1       5.372  25.422  56.446  1.00  0.00     0.210 C 
ENDBRANCH  13  17
BRANCH  14  19
HETATM   19  O   UNL     1       8.536  24.004  55.138  1.00  0.00    -0.353 OA
HETATM   20  C   UNL     1       8.446  22.594  55.279  1.00  0.00     0.210 C 
ENDBRANCH  14  19
ENDBRANCH   9  11
BRANCH   1  21
HETATM   21  C   UNL     1       4.213  30.049  50.307  1.00  0.00     0.253 C 
HETATM   22  N   UNL     1       5.165  30.781  49.625  1.00  0.00    -0.349 N 
HETATM   23  H   UNL     1       6.001  30.291  49.333  1.00  0.00     0.163 HD
HETATM   24  O   UNL     1       3.274  30.530  50.927  1.00  0.00    -0.268 OA
BRANCH  22  25
HETATM   25  C   UNL     1       5.218  32.252  49.578  1.00  0.00     0.022 C 
HETATM   26  C   UNL     1       5.369  32.829  50.992  1.00  0.00     0.037 C 
HETATM   27  C   UNL     1       3.973  32.840  48.894  1.00  0.00     0.037 C 
HETATM   28  C   UNL     1       6.450  32.652  48.745  1.00  0.00     0.037 C 
ENDBRANCH  22  25
ENDBRANCH   1  21
TORSDOF 5
ENDMDL
