MODEL 1
REMARK VINA RESULT:      -9.4      0.000      0.000
REMARK  7 active torsions:
REMARK  status: ('A' for Active; 'I' for Inactive)
REMARK    1  A    between atoms: O_2  and  C_3 
REMARK    2  A    between atoms: C_6  and  N_7 
REMARK       I    between atoms: N_7  and  C_8 
REMARK    3  A    between atoms: C_8  and  C_9 
REMARK    4  A    between atoms: C_9  and  C_10 
REMARK    5  A    between atoms: C_10  and  N_11 
REMARK    6  A    between atoms: C_10  and  C_20 
REMARK       I    between atoms: N_11  and  C_12 
REMARK    7  A    between atoms: C_12  and  C_13 
ROOT
HETATM    1  C   UNL     1       6.434  26.344  55.972  1.00  0.00     0.126 C 
ENDROOT
BRANCH   1   2
HETATM    2  C   UNL     1       6.334  25.143  56.932  1.00  0.00     0.133 C 
BRANCH   2   3
HETATM    3  C   UNL     1       7.595  24.982  57.745  1.00  0.00     0.224 C 
HETATM    4  N   UNL     1       8.450  23.935  57.581  1.00  0.00    -0.326 N 
HETATM    5  H   UNL     1       9.238  24.047  58.210  1.00  0.00     0.169 HD
HETATM    6  O   UNL     1       7.882  25.782  58.645  1.00  0.00    -0.273 OA
BRANCH   4   7
HETATM    7  C   UNL     1       8.516  22.826  56.721  1.00  0.00     0.052 A 
HETATM    8  C   UNL     1       8.298  21.491  57.038  1.00  0.00     0.149 A 
HETATM    9  N   UNL     1       8.324  20.471  56.138  1.00  0.00    -0.235 NA
HETATM   10  C   UNL     1       8.589  20.793  54.857  1.00  0.00     0.163 A 
HETATM   11  C   UNL     1       8.880  22.078  54.441  1.00  0.00     0.060 A 
HETATM   12  C   UNL     1       8.840  23.101  55.386  1.00  0.00     0.035 A 
BRANCH  10  13
HETATM   13  O   UNL     1       8.596  19.816  53.883  1.00  0.00    -0.339 OA
HETATM   14  C   UNL     1       8.318  20.334  52.586  1.00  0.00     0.211 C 
ENDBRANCH  10  13
ENDBRANCH   4   7
ENDBRANCH   2   3
ENDBRANCH   1   2
BRANCH   1  15
HETATM   15  N   UNL     1       7.417  27.371  56.345  1.00  0.00    -0.348 N 
HETATM   16  C   UNL     1       7.162  28.510  57.076  1.00  0.00     0.252 C 
HETATM   17  O   UNL     1       6.064  28.806  57.532  1.00  0.00    -0.268 OA
HETATM   18  H   UNL     1       8.379  27.106  56.200  1.00  0.00     0.163 HD
BRANCH  16  19
HETATM   19  C   UNL     1       8.314  29.425  57.325  1.00  0.00     0.032 A 
HETATM   20  C   UNL     1       8.300  30.395  58.335  1.00  0.00     0.017 A 
HETATM   21  C   UNL     1       9.423  31.198  58.548  1.00  0.00     0.001 A 
HETATM   22  C   UNL     1      10.566  31.030  57.765  1.00  0.00     0.000 A 
HETATM   23  C   UNL     1      10.593  30.056  56.769  1.00  0.00     0.001 A 
HETATM   24  C   UNL     1       9.472  29.255  56.551  1.00  0.00     0.017 A 
ENDBRANCH  16  19
ENDBRANCH   1  15
BRANCH   1  25
HETATM   25  C   UNL     1       6.581  25.901  54.522  1.00  0.00    -0.035 A 
HETATM   26  C   UNL     1       5.527  25.199  53.912  1.00  0.00     0.009 A 
HETATM   27  C   UNL     1       5.627  24.755  52.592  1.00  0.00     0.001 A 
HETATM   28  C   UNL     1       6.785  25.008  51.861  1.00  0.00     0.000 A 
HETATM   29  C   UNL     1       7.843  25.694  52.454  1.00  0.00     0.001 A 
HETATM   30  C   UNL     1       7.745  26.132  53.777  1.00  0.00     0.009 A 
ENDBRANCH   1  25
TORSDOF 7
ENDMDL
MODEL 2
REMARK VINA RESULT:      -8.6      3.186      7.140
REMARK  7 active torsions:
REMARK  status: ('A' for Active; 'I' for Inactive)
REMARK    1  A    between atoms: O_2  and  C_3 
REMARK    2  A    between atoms: C_6  and  N_7 
REMARK       I    between atoms: N_7  and  C_8 
REMARK    3  A    between atoms: C_8  and  C_9 
REMARK    4  A    between atoms: C_9  and  C_10 
REMARK    5  A    between atoms: C_10  and  N_11 
REMARK    6  A    between atoms: C_10  and  C_20 
REMARK       I    between atoms: N_11  and  C_12 
REMARK    7  A    between atoms: C_12  and  C_13 
ROOT
HETATM    1  C   UNL     1       6.891  27.961  55.874  1.00  0.00     0.126 C 
ENDROOT
BRANCH   1   2
HETATM    2  C   UNL     1       5.954  28.849  55.032  1.00  0.00     0.133 C 
BRANCH   2   3
HETATM    3  C   UNL     1       4.523  28.380  55.123  1.00  0.00     0.224 C 
HETATM    4  N   UNL     1       3.804  27.988  54.035  1.00  0.00    -0.326 N 
HETATM    5  H   UNL     1       2.883  27.688  54.334  1.00  0.00     0.169 HD
HETATM    6  O   UNL     1       3.916  28.380  56.202  1.00  0.00    -0.273 OA
BRANCH   4   7
HETATM    7  C   UNL     1       4.071  27.842  52.663  1.00  0.00     0.052 A 
HETATM    8  C   UNL     1       3.684  28.686  51.628  1.00  0.00     0.149 A 
HETATM    9  N   UNL     1       4.028  28.512  50.323  1.00  0.00    -0.235 NA
HETATM   10  C   UNL     1       4.787  27.438  50.029  1.00  0.00     0.163 A 
HETATM   11  C   UNL     1       5.178  26.503  50.968  1.00  0.00     0.060 A 
HETATM   12  C   UNL     1       4.815  26.713  52.297  1.00  0.00     0.035 A 
BRANCH  10  13
HETATM   13  O   UNL     1       5.204  27.218  48.733  1.00  0.00    -0.339 OA
HETATM   14  C   UNL     1       4.288  26.420  47.991  1.00  0.00     0.211 C 
ENDBRANCH  10  13
ENDBRANCH   4   7
ENDBRANCH   2   3
ENDBRANCH   1   2
BRANCH   1  15
HETATM   15  N   UNL     1       7.254  26.673  55.268  1.00  0.00    -0.348 N 
HETATM   16  C   UNL     1       6.625  25.467  55.487  1.00  0.00     0.252 C 
HETATM   17  O   UNL     1       5.651  25.321  56.216  1.00  0.00    -0.268 OA
HETATM   18  H   UNL     1       7.901  26.737  54.496  1.00  0.00     0.163 HD
BRANCH  16  19
HETATM   19  C   UNL     1       7.175  24.279  54.774  1.00  0.00     0.032 A 
HETATM   20  C   UNL     1       7.359  23.042  55.404  1.00  0.00     0.017 A 
HETATM   21  C   UNL     1       7.843  21.952  54.675  1.00  0.00     0.001 A 
HETATM   22  C   UNL     1       8.132  22.087  53.316  1.00  0.00     0.000 A 
HETATM   23  C   UNL     1       7.936  23.311  52.679  1.00  0.00     0.001 A 
HETATM   24  C   UNL     1       7.457  24.402  53.405  1.00  0.00     0.017 A 
ENDBRANCH  16  19
ENDBRANCH   1  15
BRANCH   1  25
HETATM   25  C   UNL     1       8.107  28.732  56.370  1.00  0.00    -0.035 A 
HETATM   26  C   UNL     1       9.110  29.091  55.451  1.00  0.00     0.009 A 
HETATM   27  C   UNL     1      10.252  29.779  55.865  1.00  0.00     0.001 A 
HETATM   28  C   UNL     1      10.408  30.120  57.206  1.00  0.00     0.000 A 
HETATM   29  C   UNL     1       9.429  29.763  58.131  1.00  0.00     0.001 A 
HETATM   30  C   UNL     1       8.290  29.068  57.717  1.00  0.00     0.009 A 
ENDBRANCH   1  25
TORSDOF 7
ENDMDL
MODEL 3
REMARK VINA RESULT:      -8.5      2.548      6.498
REMARK  7 active torsions:
REMARK  status: ('A' for Active; 'I' for Inactive)
REMARK    1  A    between atoms: O_2  and  C_3 
REMARK    2  A    between atoms: C_6  and  N_7 
REMARK       I    between atoms: N_7  and  C_8 
REMARK    3  A    between atoms: C_8  and  C_9 
REMARK    4  A    between atoms: C_9  and  C_10 
REMARK    5  A    between atoms: C_10  and  N_11 
REMARK    6  A    between atoms: C_10  and  C_20 
REMARK       I    between atoms: N_11  and  C_12 
REMARK    7  A    between atoms: C_12  and  C_13 
ROOT
HETATM    1  C   UNL     1       6.381  24.083  54.935  1.00  0.00     0.126 C 
ENDROOT
BRANCH   1   2
HETATM    2  C   UNL     1       6.780  24.584  56.336  1.00  0.00     0.133 C 
BRANCH   2   3
HETATM    3  C   UNL     1       5.723  25.489  56.919  1.00  0.00     0.224 C 
HETATM    4  N   UNL     1       5.947  26.805  57.188  1.00  0.00    -0.326 N 
HETATM    5  H   UNL     1       5.093  27.222  57.545  1.00  0.00     0.169 HD
HETATM    6  O   UNL     1       4.607  25.054  57.230  1.00  0.00    -0.273 OA
BRANCH   4   7
HETATM    7  C   UNL     1       7.025  27.690  57.016  1.00  0.00     0.052 A 
HETATM    8  C   UNL     1       7.863  28.208  57.996  1.00  0.00     0.149 A 
HETATM    9  N   UNL     1       8.927  29.019  57.749  1.00  0.00    -0.235 NA
HETATM   10  C   UNL     1       9.165  29.340  56.463  1.00  0.00     0.163 A 
HETATM   11  C   UNL     1       8.362  28.932  55.416  1.00  0.00     0.060 A 
HETATM   12  C   UNL     1       7.283  28.097  55.701  1.00  0.00     0.035 A 
BRANCH  10  13
HETATM   13  O   UNL     1      10.248  30.129  56.134  1.00  0.00    -0.339 OA
HETATM   14  C   UNL     1      10.935  30.621  57.281  1.00  0.00     0.211 C 
ENDBRANCH  10  13
ENDBRANCH   4   7
ENDBRANCH   2   3
ENDBRANCH   1   2
BRANCH   1  15
HETATM   15  N   UNL     1       6.248  25.124  53.907  1.00  0.00    -0.348 N 
HETATM   16  C   UNL     1       5.135  25.361  53.130  1.00  0.00     0.252 C 
HETATM   17  O   UNL     1       4.088  24.731  53.217  1.00  0.00    -0.268 OA
HETATM   18  H   UNL     1       6.977  25.822  53.916  1.00  0.00     0.163 HD
BRANCH  16  19
HETATM   19  C   UNL     1       5.229  26.467  52.133  1.00  0.00     0.032 A 
HETATM   20  C   UNL     1       5.533  27.784  52.497  1.00  0.00     0.017 A 
HETATM   21  C   UNL     1       5.645  28.772  51.515  1.00  0.00     0.001 A 
HETATM   22  C   UNL     1       5.468  28.449  50.169  1.00  0.00     0.000 A 
HETATM   23  C   UNL     1       5.182  27.137  49.799  1.00  0.00     0.001 A 
HETATM   24  C   UNL     1       5.065  26.148  50.777  1.00  0.00     0.017 A 
ENDBRANCH  16  19
ENDBRANCH   1  15
BRANCH   1  25
HETATM   25  C   UNL     1       7.255  22.924  54.476  1.00  0.00    -0.035 A 
HETATM   26  C   UNL     1       7.748  22.019  55.434  1.00  0.00     0.009 A 
HETATM   27  C   UNL     1       8.570  20.954  55.061  1.00  0.00     0.001 A 
HETATM   28  C   UNL     1       8.912  20.777  53.723  1.00  0.00     0.000 A 
HETATM   29  C   UNL     1       8.440  21.670  52.763  1.00  0.00     0.001 A 
HETATM   30  C   UNL     1       7.624  22.740  53.137  1.00  0.00     0.009 A 
ENDBRANCH   1  25
TORSDOF 7
ENDMDL
MODEL 4
REMARK VINA RESULT:      -8.5      2.383      7.022
REMARK  7 active torsions:
REMARK  status: ('A' for Active; 'I' for Inactive)
REMARK    1  A    between atoms: O_2  and  C_3 
REMARK    2  A    between atoms: C_6  and  N_7 
REMARK       I    between atoms: N_7  and  C_8 
REMARK    3  A    between atoms: C_8  and  C_9 
REMARK    4  A    between atoms: C_9  and  C_10 
REMARK    5  A    between atoms: C_10  and  N_11 
REMARK    6  A    between atoms: C_10  and  C_20 
REMARK       I    between atoms: N_11  and  C_12 
REMARK    7  A    between atoms: C_12  and  C_13 
ROOT
HETATM    1  C   UNL     1       6.143  26.452  53.987  1.00  0.00     0.126 C 
ENDROOT
BRANCH   1   2
HETATM    2  C   UNL     1       5.197  27.044  55.050  1.00  0.00     0.133 C 
BRANCH   2   3
HETATM    3  C   UNL     1       5.394  26.382  56.391  1.00  0.00     0.224 C 
HETATM    4  N   UNL     1       6.283  26.840  57.316  1.00  0.00    -0.326 N 
HETATM    5  H   UNL     1       6.227  26.262  58.147  1.00  0.00     0.169 HD
HETATM    6  O   UNL     1       4.785  25.347  56.691  1.00  0.00    -0.273 OA
BRANCH   4   7
HETATM    7  C   UNL     1       7.163  27.932  57.398  1.00  0.00     0.052 A 
HETATM    8  C   UNL     1       6.871  29.231  57.799  1.00  0.00     0.149 A 
HETATM    9  N   UNL     1       7.790  30.228  57.909  1.00  0.00    -0.235 NA
HETATM   10  C   UNL     1       9.064  29.922  57.595  1.00  0.00     0.163 A 
HETATM   11  C   UNL     1       9.456  28.683  57.128  1.00  0.00     0.060 A 
HETATM   12  C   UNL     1       8.492  27.681  57.033  1.00  0.00     0.035 A 
BRANCH  10  13
HETATM   13  O   UNL     1      10.055  30.874  57.718  1.00  0.00    -0.339 OA
HETATM   14  C   UNL     1      11.354  30.346  57.471  1.00  0.00     0.211 C 
ENDBRANCH  10  13
ENDBRANCH   4   7
ENDBRANCH   2   3
ENDBRANCH   1   2
BRANCH   1  15
HETATM   15  N   UNL     1       6.494  25.038  54.171  1.00  0.00    -0.348 N 
HETATM   16  C   UNL     1       7.553  24.381  53.584  1.00  0.00     0.252 C 
HETATM   17  O   UNL     1       8.363  24.913  52.834  1.00  0.00    -0.268 OA
HETATM   18  H   UNL     1       6.016  24.580  54.932  1.00  0.00     0.163 HD
BRANCH  16  19
HETATM   19  C   UNL     1       7.712  22.933  53.904  1.00  0.00     0.032 A 
HETATM   20  C   UNL     1       8.024  21.977  52.929  1.00  0.00     0.017 A 
HETATM   21  C   UNL     1       8.198  20.639  53.294  1.00  0.00     0.001 A 
HETATM   22  C   UNL     1       8.075  20.252  54.629  1.00  0.00     0.000 A 
HETATM   23  C   UNL     1       7.780  21.200  55.606  1.00  0.00     0.001 A 
HETATM   24  C   UNL     1       7.601  22.537  55.245  1.00  0.00     0.017 A 
ENDBRANCH  16  19
ENDBRANCH   1  15
BRANCH   1  25
HETATM   25  C   UNL     1       5.663  26.751  52.573  1.00  0.00    -0.035 A 
HETATM   26  C   UNL     1       5.194  25.693  51.772  1.00  0.00     0.009 A 
HETATM   27  C   UNL     1       4.765  25.918  50.463  1.00  0.00     0.001 A 
HETATM   28  C   UNL     1       4.798  27.206  49.934  1.00  0.00     0.000 A 
HETATM   29  C   UNL     1       5.269  28.263  50.710  1.00  0.00     0.001 A 
HETATM   30  C   UNL     1       5.705  28.036  52.017  1.00  0.00     0.009 A 
ENDBRANCH   1  25
TORSDOF 7
ENDMDL
MODEL 5
REMARK VINA RESULT:      -8.5      3.868      6.881
REMARK  7 active torsions:
REMARK  status: ('A' for Active; 'I' for Inactive)
REMARK    1  A    between atoms: O_2  and  C_3 
REMARK    2  A    between atoms: C_6  and  N_7 
REMARK       I    between atoms: N_7  and  C_8 
REMARK    3  A    between atoms: C_8  and  C_9 
REMARK    4  A    between atoms: C_9  and  C_10 
REMARK    5  A    between atoms: C_10  and  N_11 
REMARK    6  A    between atoms: C_10  and  C_20 
REMARK       I    between atoms: N_11  and  C_12 
REMARK    7  A    between atoms: C_12  and  C_13 
ROOT
HETATM    1  C   UNL     1       7.512  25.299  53.216  1.00  0.00     0.126 C 
ENDROOT
BRANCH   1   2
HETATM    2  C   UNL     1       6.902  25.329  51.801  1.00  0.00     0.133 C 
BRANCH   2   3
HETATM    3  C   UNL     1       5.396  25.399  51.853  1.00  0.00     0.224 C 
HETATM    4  N   UNL     1       4.695  26.504  51.474  1.00  0.00    -0.326 N 
HETATM    5  H   UNL     1       3.703  26.316  51.565  1.00  0.00     0.169 HD
HETATM    6  O   UNL     1       4.726  24.458  52.297  1.00  0.00    -0.273 OA
BRANCH   4   7
HETATM    7  C   UNL     1       5.026  27.760  50.938  1.00  0.00     0.052 A 
HETATM    8  C   UNL     1       5.320  28.928  51.631  1.00  0.00     0.149 A 
HETATM    9  N   UNL     1       5.689  30.099  51.046  1.00  0.00    -0.235 NA
HETATM   10  C   UNL     1       5.760  30.113  49.700  1.00  0.00     0.163 A 
HETATM   11  C   UNL     1       5.432  29.029  48.910  1.00  0.00     0.060 A 
HETATM   12  C   UNL     1       5.064  27.842  49.541  1.00  0.00     0.035 A 
BRANCH  10  13
HETATM   13  O   UNL     1       6.163  31.256  49.040  1.00  0.00    -0.339 OA
HETATM   14  C   UNL     1       5.982  32.432  49.821  1.00  0.00     0.211 C 
ENDBRANCH  10  13
ENDBRANCH   4   7
ENDBRANCH   2   3
ENDBRANCH   1   2
BRANCH   1  15
HETATM   15  N   UNL     1       6.875  26.187  54.197  1.00  0.00    -0.348 N 
HETATM   16  C   UNL     1       7.216  27.499  54.447  1.00  0.00     0.252 C 
HETATM   17  O   UNL     1       8.100  28.105  53.853  1.00  0.00    -0.268 OA
HETATM   18  H   UNL     1       6.005  25.844  54.576  1.00  0.00     0.163 HD
BRANCH  16  19
HETATM   19  C   UNL     1       6.440  28.210  55.503  1.00  0.00     0.032 A 
HETATM   20  C   UNL     1       7.055  28.841  56.592  1.00  0.00     0.017 A 
HETATM   21  C   UNL     1       6.279  29.525  57.532  1.00  0.00     0.001 A 
HETATM   22  C   UNL     1       4.894  29.595  57.383  1.00  0.00     0.000 A 
HETATM   23  C   UNL     1       4.277  28.983  56.294  1.00  0.00     0.001 A 
HETATM   24  C   UNL     1       5.048  28.295  55.355  1.00  0.00     0.017 A 
ENDBRANCH  16  19
ENDBRANCH   1  15
BRANCH   1  25
HETATM   25  C   UNL     1       7.664  23.876  53.737  1.00  0.00    -0.035 A 
HETATM   26  C   UNL     1       7.959  22.843  52.828  1.00  0.00     0.009 A 
HETATM   27  C   UNL     1       8.087  21.522  53.258  1.00  0.00     0.001 A 
HETATM   28  C   UNL     1       7.923  21.211  54.605  1.00  0.00     0.000 A 
HETATM   29  C   UNL     1       7.621  22.221  55.517  1.00  0.00     0.001 A 
HETATM   30  C   UNL     1       7.486  23.542  55.086  1.00  0.00     0.009 A 
ENDBRANCH   1  25
TORSDOF 7
ENDMDL
MODEL 6
REMARK VINA RESULT:      -8.3      3.106      6.714
REMARK  7 active torsions:
REMARK  status: ('A' for Active; 'I' for Inactive)
REMARK    1  A    between atoms: O_2  and  C_3 
REMARK    2  A    between atoms: C_6  and  N_7 
REMARK       I    between atoms: N_7  and  C_8 
REMARK    3  A    between atoms: C_8  and  C_9 
REMARK    4  A    between atoms: C_9  and  C_10 
REMARK    5  A    between atoms: C_10  and  N_11 
REMARK    6  A    between atoms: C_10  and  C_20 
REMARK       I    between atoms: N_11  and  C_12 
REMARK    7  A    between atoms: C_12  and  C_13 
ROOT
HETATM    1  C   UNL     1       5.452  27.429  51.977  1.00  0.00     0.126 C 
ENDROOT
BRANCH   1   2
HETATM    2  C   UNL     1       4.266  28.039  52.750  1.00  0.00     0.133 C 
BRANCH   2   3
HETATM    3  C   UNL     1       4.605  29.409  53.285  1.00  0.00     0.224 C 
HETATM    4  N   UNL     1       5.256  29.598  54.467  1.00  0.00    -0.326 N 
HETATM    5  H   UNL     1       5.402  30.591  54.611  1.00  0.00     0.169 HD
HETATM    6  O   UNL     1       4.254  30.435  52.689  1.00  0.00    -0.273 OA
BRANCH   4   7
HETATM    7  C   UNL     1       5.812  28.757  55.446  1.00  0.00     0.052 A 
HETATM    8  C   UNL     1       5.235  27.635  56.028  1.00  0.00     0.149 A 
HETATM    9  N   UNL     1       5.856  26.831  56.933  1.00  0.00    -0.235 NA
HETATM   10  C   UNL     1       7.113  27.165  57.285  1.00  0.00     0.163 A 
HETATM   11  C   UNL     1       7.760  28.291  56.815  1.00  0.00     0.060 A 
HETATM   12  C   UNL     1       7.099  29.090  55.884  1.00  0.00     0.035 A 
BRANCH  10  13
HETATM   13  O   UNL     1       7.818  26.376  58.170  1.00  0.00    -0.339 OA
HETATM   14  C   UNL     1       8.541  25.336  57.520  1.00  0.00     0.211 C 
ENDBRANCH  10  13
ENDBRANCH   4   7
ENDBRANCH   2   3
ENDBRANCH   1   2
BRANCH   1  15
HETATM   15  N   UNL     1       5.892  26.106  52.437  1.00  0.00    -0.348 N 
HETATM   16  C   UNL     1       7.048  25.831  53.133  1.00  0.00     0.252 C 
HETATM   17  O   UNL     1       7.862  26.679  53.479  1.00  0.00    -0.268 OA
HETATM   18  H   UNL     1       5.187  25.385  52.387  1.00  0.00     0.163 HD
BRANCH  16  19
HETATM   19  C   UNL     1       7.302  24.404  53.487  1.00  0.00     0.032 A 
HETATM   20  C   UNL     1       7.835  23.486  52.574  1.00  0.00     0.017 A 
HETATM   21  C   UNL     1       8.087  22.170  52.974  1.00  0.00     0.001 A 
HETATM   22  C   UNL     1       7.822  21.770  54.284  1.00  0.00     0.000 A 
HETATM   23  C   UNL     1       7.307  22.683  55.202  1.00  0.00     0.001 A 
HETATM   24  C   UNL     1       7.050  23.997  54.806  1.00  0.00     0.017 A 
ENDBRANCH  16  19
ENDBRANCH   1  15
BRANCH   1  25
HETATM   25  C   UNL     1       5.230  27.475  50.471  1.00  0.00    -0.035 A 
HETATM   26  C   UNL     1       4.736  26.332  49.817  1.00  0.00     0.009 A 
HETATM   27  C   UNL     1       4.538  26.323  48.435  1.00  0.00     0.001 A 
HETATM   28  C   UNL     1       4.831  27.459  47.685  1.00  0.00     0.000 A 
HETATM   29  C   UNL     1       5.330  28.596  48.316  1.00  0.00     0.001 A 
HETATM   30  C   UNL     1       5.536  28.603  49.697  1.00  0.00     0.009 A 
ENDBRANCH   1  25
TORSDOF 7
ENDMDL
MODEL 7
REMARK VINA RESULT:      -8.2      3.089      8.759
REMARK  7 active torsions:
REMARK  status: ('A' for Active; 'I' for Inactive)
REMARK    1  A    between atoms: O_2  and  C_3 
REMARK    2  A    between atoms: C_6  and  N_7 
REMARK       I    between atoms: N_7  and  C_8 
REMARK    3  A    between atoms: C_8  and  C_9 
REMARK    4  A    between atoms: C_9  and  C_10 
REMARK    5  A    between atoms: C_10  and  N_11 
REMARK    6  A    between atoms: C_10  and  C_20 
REMARK       I    between atoms: N_11  and  C_12 
REMARK    7  A    between atoms: C_12  and  C_13 
ROOT
HETATM    1  C   UNL     1       7.369  27.803  57.398  1.00  0.00     0.126 C 
ENDROOT
BRANCH   1   2
HETATM    2  C   UNL     1       6.019  28.486  57.102  1.00  0.00     0.133 C 
BRANCH   2   3
HETATM    3  C   UNL     1       6.040  29.188  55.767  1.00  0.00     0.224 C 
HETATM    4  N   UNL     1       5.488  30.418  55.572  1.00  0.00    -0.326 N 
HETATM    5  H   UNL     1       5.643  30.704  54.612  1.00  0.00     0.169 HD
HETATM    6  O   UNL     1       6.520  28.645  54.764  1.00  0.00    -0.273 OA
BRANCH   4   7
HETATM    7  C   UNL     1       4.849  31.365  56.390  1.00  0.00     0.052 A 
HETATM    8  C   UNL     1       3.524  31.783  56.330  1.00  0.00     0.149 A 
HETATM    9  N   UNL     1       2.956  32.667  57.193  1.00  0.00    -0.235 NA
HETATM   10  C   UNL     1       3.746  33.170  58.162  1.00  0.00     0.163 A 
HETATM   11  C   UNL     1       5.090  32.871  58.278  1.00  0.00     0.060 A 
HETATM   12  C   UNL     1       5.641  31.957  57.381  1.00  0.00     0.035 A 
BRANCH  10  13
HETATM   13  O   UNL     1       3.229  34.044  59.095  1.00  0.00    -0.339 OA
HETATM   14  C   UNL     1       3.151  33.472  60.397  1.00  0.00     0.211 C 
ENDBRANCH  10  13
ENDBRANCH   4   7
ENDBRANCH   2   3
ENDBRANCH   1   2
BRANCH   1  15
HETATM   15  N   UNL     1       7.725  26.694  56.502  1.00  0.00    -0.348 N 
HETATM   16  C   UNL     1       7.187  25.426  56.526  1.00  0.00     0.252 C 
HETATM   17  O   UNL     1       6.310  25.064  57.302  1.00  0.00    -0.268 OA
HETATM   18  H   UNL     1       8.276  26.959  55.700  1.00  0.00     0.163 HD
BRANCH  16  19
HETATM   19  C   UNL     1       7.711  24.450  55.528  1.00  0.00     0.032 A 
HETATM   20  C   UNL     1       8.543  23.382  55.885  1.00  0.00     0.017 A 
HETATM   21  C   UNL     1       8.974  22.475  54.912  1.00  0.00     0.001 A 
HETATM   22  C   UNL     1       8.568  22.623  53.585  1.00  0.00     0.000 A 
HETATM   23  C   UNL     1       7.727  23.674  53.226  1.00  0.00     0.001 A 
HETATM   24  C   UNL     1       7.298  24.584  54.194  1.00  0.00     0.017 A 
ENDBRANCH  16  19
ENDBRANCH   1  15
BRANCH   1  25
HETATM   25  C   UNL     1       8.497  28.815  57.543  1.00  0.00    -0.035 A 
HETATM   26  C   UNL     1       8.408  29.798  58.546  1.00  0.00     0.009 A 
HETATM   27  C   UNL     1       9.409  30.759  58.701  1.00  0.00     0.001 A 
HETATM   28  C   UNL     1      10.515  30.751  57.856  1.00  0.00     0.000 A 
HETATM   29  C   UNL     1      10.614  29.791  56.852  1.00  0.00     0.001 A 
HETATM   30  C   UNL     1       9.609  28.834  56.691  1.00  0.00     0.009 A 
ENDBRANCH   1  25
TORSDOF 7
ENDMDL
MODEL 8
REMARK VINA RESULT:      -8.2      2.948      6.214
REMARK  7 active torsions:
REMARK  status: ('A' for Active; 'I' for Inactive)
REMARK    1  A    between atoms: O_2  and  C_3 
REMARK    2  A    between atoms: C_6  and  N_7 
REMARK       I    between atoms: N_7  and  C_8 
REMARK    3  A    between atoms: C_8  and  C_9 
REMARK    4  A    between atoms: C_9  and  C_10 
REMARK    5  A    between atoms: C_10  and  N_11 
REMARK    6  A    between atoms: C_10  and  C_20 
REMARK       I    between atoms: N_11  and  C_12 
REMARK    7  A    between atoms: C_12  and  C_13 
ROOT
HETATM    1  C   UNL     1       6.931  25.511  54.332  1.00  0.00     0.126 C 
ENDROOT
BRANCH   1   2
HETATM    2  C   UNL     1       5.421  25.268  54.523  1.00  0.00     0.133 C 
BRANCH   2   3
HETATM    3  C   UNL     1       4.650  25.578  53.264  1.00  0.00     0.224 C 
HETATM    4  N   UNL     1       4.091  26.797  53.023  1.00  0.00    -0.326 N 
HETATM    5  H   UNL     1       3.650  26.786  52.109  1.00  0.00     0.169 HD
HETATM    6  O   UNL     1       4.445  24.709  52.407  1.00  0.00    -0.273 OA
BRANCH   4   7
HETATM    7  C   UNL     1       4.059  28.031  53.695  1.00  0.00     0.052 A 
HETATM    8  C   UNL     1       4.229  28.262  55.054  1.00  0.00     0.149 A 
HETATM    9  N   UNL     1       4.242  29.494  55.631  1.00  0.00    -0.235 NA
HETATM   10  C   UNL     1       4.068  30.552  54.815  1.00  0.00     0.163 A 
HETATM   11  C   UNL     1       3.831  30.435  53.459  1.00  0.00     0.060 A 
HETATM   12  C   UNL     1       3.830  29.160  52.898  1.00  0.00     0.035 A 
BRANCH  10  13
HETATM   13  O   UNL     1       4.106  31.833  55.324  1.00  0.00    -0.339 OA
HETATM   14  C   UNL     1       4.970  31.950  56.449  1.00  0.00     0.211 C 
ENDBRANCH  10  13
ENDBRANCH   4   7
ENDBRANCH   2   3
ENDBRANCH   1   2
BRANCH   1  15
HETATM   15  N   UNL     1       7.528  26.512  55.225  1.00  0.00    -0.348 N 
HETATM   16  C   UNL     1       7.815  27.820  54.903  1.00  0.00     0.252 C 
HETATM   17  O   UNL     1       7.585  28.327  53.812  1.00  0.00    -0.268 OA
HETATM   18  H   UNL     1       7.551  26.248  56.199  1.00  0.00     0.163 HD
BRANCH  16  19
HETATM   19  C   UNL     1       8.437  28.658  55.969  1.00  0.00     0.032 A 
HETATM   20  C   UNL     1       7.893  28.766  57.254  1.00  0.00     0.017 A 
HETATM   21  C   UNL     1       8.540  29.537  58.224  1.00  0.00     0.001 A 
HETATM   22  C   UNL     1       9.735  30.190  57.921  1.00  0.00     0.000 A 
HETATM   23  C   UNL     1      10.291  30.073  56.648  1.00  0.00     0.001 A 
HETATM   24  C   UNL     1       9.645  29.309  55.676  1.00  0.00     0.017 A 
ENDBRANCH  16  19
ENDBRANCH   1  15
BRANCH   1  25
HETATM   25  C   UNL     1       7.716  24.207  54.314  1.00  0.00    -0.035 A 
HETATM   26  C   UNL     1       7.634  23.373  53.184  1.00  0.00     0.009 A 
HETATM   27  C   UNL     1       8.320  22.159  53.134  1.00  0.00     0.001 A 
HETATM   28  C   UNL     1       9.102  21.759  54.215  1.00  0.00     0.000 A 
HETATM   29  C   UNL     1       9.187  22.568  55.346  1.00  0.00     0.001 A 
HETATM   30  C   UNL     1       8.494  23.780  55.399  1.00  0.00     0.009 A 
ENDBRANCH   1  25
TORSDOF 7
ENDMDL
MODEL 9
REMARK VINA RESULT:      -8.1      2.516      6.535
REMARK  7 active torsions:
REMARK  status: ('A' for Active; 'I' for Inactive)
REMARK    1  A    between atoms: O_2  and  C_3 
REMARK    2  A    between atoms: C_6  and  N_7 
REMARK       I    between atoms: N_7  and  C_8 
REMARK    3  A    between atoms: C_8  and  C_9 
REMARK    4  A    between atoms: C_9  and  C_10 
REMARK    5  A    between atoms: C_10  and  N_11 
REMARK    6  A    between atoms: C_10  and  C_20 
REMARK       I    between atoms: N_11  and  C_12 
REMARK    7  A    between atoms: C_12  and  C_13 
ROOT
HETATM    1  C   UNL     1       7.490  24.469  55.027  1.00  0.00     0.126 C 
ENDROOT
BRANCH   1   2
HETATM    2  C   UNL     1       8.676  24.996  55.859  1.00  0.00     0.133 C 
BRANCH   2   3
HETATM    3  C   UNL     1       8.293  25.178  57.307  1.00  0.00     0.224 C 
HETATM    4  N   UNL     1       7.578  26.248  57.752  1.00  0.00    -0.326 N 
HETATM    5  H   UNL     1       7.414  26.148  58.748  1.00  0.00     0.169 HD
HETATM    6  O   UNL     1       8.664  24.375  58.173  1.00  0.00    -0.273 OA
BRANCH   4   7
HETATM    7  C   UNL     1       6.980  27.368  57.151  1.00  0.00     0.052 A 
HETATM    8  C   UNL     1       7.555  28.610  56.907  1.00  0.00     0.149 A 
HETATM    9  N   UNL     1       6.931  29.635  56.267  1.00  0.00    -0.235 NA
HETATM   10  C   UNL     1       5.667  29.419  55.854  1.00  0.00     0.163 A 
HETATM   11  C   UNL     1       4.978  28.246  56.096  1.00  0.00     0.060 A 
HETATM   12  C   UNL     1       5.647  27.213  56.749  1.00  0.00     0.035 A 
BRANCH  10  13
HETATM   13  O   UNL     1       4.985  30.401  55.166  1.00  0.00    -0.339 OA
HETATM   14  C   UNL     1       3.741  29.942  54.646  1.00  0.00     0.211 C 
ENDBRANCH  10  13
ENDBRANCH   4   7
ENDBRANCH   2   3
ENDBRANCH   1   2
BRANCH   1  15
HETATM   15  N   UNL     1       7.070  25.327  53.911  1.00  0.00    -0.348 N 
HETATM   16  C   UNL     1       5.788  25.459  53.426  1.00  0.00     0.252 C 
HETATM   17  O   UNL     1       4.813  24.879  53.889  1.00  0.00    -0.268 OA
HETATM   18  H   UNL     1       7.761  25.999  53.612  1.00  0.00     0.163 HD
BRANCH  16  19
HETATM   19  C   UNL     1       5.593  26.381  52.270  1.00  0.00     0.032 A 
HETATM   20  C   UNL     1       5.169  25.933  51.013  1.00  0.00     0.017 A 
HETATM   21  C   UNL     1       4.968  26.848  49.976  1.00  0.00     0.001 A 
HETATM   22  C   UNL     1       5.175  28.211  50.192  1.00  0.00     0.000 A 
HETATM   23  C   UNL     1       5.582  28.666  51.444  1.00  0.00     0.001 A 
HETATM   24  C   UNL     1       5.788  27.755  52.481  1.00  0.00     0.017 A 
ENDBRANCH  16  19
ENDBRANCH   1  15
BRANCH   1  25
HETATM   25  C   UNL     1       7.697  23.022  54.599  1.00  0.00    -0.035 A 
HETATM   26  C   UNL     1       7.657  22.009  55.574  1.00  0.00     0.009 A 
HETATM   27  C   UNL     1       7.863  20.672  55.230  1.00  0.00     0.001 A 
HETATM   28  C   UNL     1       8.110  20.327  53.904  1.00  0.00     0.000 A 
HETATM   29  C   UNL     1       8.162  21.319  52.927  1.00  0.00     0.001 A 
HETATM   30  C   UNL     1       7.964  22.658  53.273  1.00  0.00     0.009 A 
ENDBRANCH   1  25
TORSDOF 7
ENDMDL
MODEL 10
REMARK VINA RESULT:      -8.0      4.371      8.502
REMARK  7 active torsions:
REMARK  status: ('A' for Active; 'I' for Inactive)
REMARK    1  A    between atoms: O_2  and  C_3 
REMARK    2  A    between atoms: C_6  and  N_7 
REMARK       I    between atoms: N_7  and  C_8 
REMARK    3  A    between atoms: C_8  and  C_9 
REMARK    4  A    between atoms: C_9  and  C_10 
REMARK    5  A    between atoms: C_10  and  N_11 
REMARK    6  A    between atoms: C_10  and  C_20 
REMARK       I    between atoms: N_11  and  C_12 
REMARK    7  A    between atoms: C_12  and  C_13 
ROOT
HETATM    1  C   UNL     1       5.904  25.984  53.688  1.00  0.00     0.126 C 
ENDROOT
BRANCH   1   2
HETATM    2  C   UNL     1       5.889  26.412  52.208  1.00  0.00     0.133 C 
BRANCH   2   3
HETATM    3  C   UNL     1       4.915  25.584  51.406  1.00  0.00     0.224 C 
HETATM    4  N   UNL     1       4.278  26.061  50.300  1.00  0.00    -0.326 N 
HETATM    5  H   UNL     1       3.697  25.327  49.908  1.00  0.00     0.169 HD
HETATM    6  O   UNL     1       4.611  24.436  51.754  1.00  0.00    -0.273 OA
BRANCH   4   7
HETATM    7  C   UNL     1       4.305  27.263  49.574  1.00  0.00     0.052 A 
HETATM    8  C   UNL     1       3.744  28.484  49.930  1.00  0.00     0.149 A 
HETATM    9  N   UNL     1       3.859  29.626  49.201  1.00  0.00    -0.235 NA
HETATM   10  C   UNL     1       4.558  29.550  48.052  1.00  0.00     0.163 A 
HETATM   11  C   UNL     1       5.106  28.377  47.572  1.00  0.00     0.060 A 
HETATM   12  C   UNL     1       4.977  27.225  48.346  1.00  0.00     0.035 A 
BRANCH  10  13
HETATM   13  O   UNL     1       4.747  30.677  47.279  1.00  0.00    -0.339 OA
HETATM   14  C   UNL     1       5.106  31.818  48.052  1.00  0.00     0.211 C 
ENDBRANCH  10  13
ENDBRANCH   4   7
ENDBRANCH   2   3
ENDBRANCH   1   2
BRANCH   1  15
HETATM   15  N   UNL     1       6.367  24.614  53.945  1.00  0.00    -0.348 N 
HETATM   16  C   UNL     1       7.531  24.049  53.474  1.00  0.00     0.252 C 
HETATM   17  O   UNL     1       8.353  24.639  52.783  1.00  0.00    -0.268 OA
HETATM   18  H   UNL     1       5.866  24.128  54.674  1.00  0.00     0.163 HD
BRANCH  16  19
HETATM   19  C   UNL     1       7.795  22.629  53.849  1.00  0.00     0.032 A 
HETATM   20  C   UNL     1       8.091  21.643  52.901  1.00  0.00     0.017 A 
HETATM   21  C   UNL     1       8.366  20.336  53.314  1.00  0.00     0.001 A 
HETATM   22  C   UNL     1       8.360  20.013  54.671  1.00  0.00     0.000 A 
HETATM   23  C   UNL     1       8.081  20.993  55.621  1.00  0.00     0.001 A 
HETATM   24  C   UNL     1       7.802  22.298  55.212  1.00  0.00     0.017 A 
ENDBRANCH  16  19
ENDBRANCH   1  15
BRANCH   1  25
HETATM   25  C   UNL     1       6.608  27.008  54.567  1.00  0.00    -0.035 A 
HETATM   26  C   UNL     1       7.661  27.767  54.024  1.00  0.00     0.009 A 
HETATM   27  C   UNL     1       8.349  28.701  54.799  1.00  0.00     0.001 A 
HETATM   28  C   UNL     1       7.994  28.893  56.132  1.00  0.00     0.000 A 
HETATM   29  C   UNL     1       6.960  28.143  56.688  1.00  0.00     0.001 A 
HETATM   30  C   UNL     1       6.276  27.203  55.914  1.00  0.00     0.009 A 
ENDBRANCH   1  25
TORSDOF 7
ENDMDL
