MODEL 1
REMARK VINA RESULT:      -8.6      0.000      0.000
REMARK  2 active torsions:
REMARK  status: ('A' for Active; 'I' for Inactive)
REMARK    1  A    between atoms: C_2  and  C_3 
REMARK    2  A    between atoms: C_6  and  C_7 
ROOT
HETATM    1  C   UNL     1       7.073  26.565  54.154  1.00  0.00     0.119 C 
HETATM    2  S   UNL     1       6.507  27.122  52.532  1.00  0.00    -0.141 SA
HETATM    3  C   UNL     1       4.735  26.737  52.537  1.00  0.00     0.136 C 
HETATM    4  C   UNL     1       4.285  25.355  52.975  1.00  0.00     0.031 C 
HETATM    5  C   UNL     1       3.954  27.805  53.248  1.00  0.00     0.236 C 
HETATM    6  O   UNL     1       3.009  28.394  52.738  1.00  0.00    -0.272 OA
HETATM    7  N   UNL     1       4.161  28.155  54.613  1.00  0.00    -0.311 N 
HETATM    8  C   UNL     1       5.124  27.732  55.508  1.00  0.00     0.134 A 
HETATM    9  C   UNL     1       6.323  27.053  55.352  1.00  0.00     0.032 A 
HETATM   10  N   UNL     1       5.020  28.018  56.846  1.00  0.00    -0.262 N 
HETATM   11  H   UNL     1       4.277  28.514  57.325  1.00  0.00     0.191 HD
HETATM   12  N   UNL     1       6.030  27.567  57.584  1.00  0.00    -0.178 NA
HETATM   13  C   UNL     1       6.855  27.010  56.695  1.00  0.00     0.062 A 
HETATM   14  C   UNL     1       8.146  26.440  57.175  1.00  0.00     0.073 C 
HETATM   15  H   UNL     1       3.456  28.811  54.937  1.00  0.00     0.170 HD
ENDROOT
BRANCH   1  16
HETATM   16  C   UNL     1       7.357  25.067  54.230  1.00  0.00    -0.040 A 
HETATM   17  C   UNL     1       8.025  24.473  53.139  1.00  0.00     0.009 A 
HETATM   18  C   UNL     1       8.343  23.113  53.127  1.00  0.00     0.007 A 
HETATM   19  C   UNL     1       8.001  22.297  54.206  1.00  0.00    -0.059 A 
HETATM   20  C   UNL     1       7.344  22.868  55.299  1.00  0.00     0.007 A 
HETATM   21  C   UNL     1       7.024  24.232  55.310  1.00  0.00     0.009 A 
BRANCH  19  22
HETATM   22  C   UNL     1       8.367  20.833  54.203  1.00  0.00     0.034 C 
HETATM   23  C   UNL     1       8.462  20.276  52.791  1.00  0.00     0.010 C 
ENDBRANCH  19  22
ENDBRANCH   1  16
TORSDOF 2
ENDMDL
MODEL 2
REMARK VINA RESULT:      -8.5      2.140      3.654
REMARK  2 active torsions:
REMARK  status: ('A' for Active; 'I' for Inactive)
REMARK    1  A    between atoms: C_2  and  C_3 
REMARK    2  A    between atoms: C_6  and  C_7 
ROOT
HETATM    1  C   UNL     1       5.529  26.068  54.751  1.00  0.00     0.119 C 
HETATM    2  S   UNL     1       5.385  26.429  56.514  1.00  0.00    -0.141 SA
HETATM    3  C   UNL     1       6.823  27.478  56.860  1.00  0.00     0.136 C 
HETATM    4  C   UNL     1       8.189  27.036  56.367  1.00  0.00     0.031 C 
HETATM    5  C   UNL     1       6.552  28.906  56.480  1.00  0.00     0.236 C 
HETATM    6  O   UNL     1       6.687  29.841  57.258  1.00  0.00    -0.272 OA
HETATM    7  N   UNL     1       6.225  29.320  55.158  1.00  0.00    -0.311 N 
HETATM    8  C   UNL     1       5.972  28.572  54.024  1.00  0.00     0.134 A 
HETATM    9  C   UNL     1       5.705  27.227  53.821  1.00  0.00     0.032 A 
HETATM   10  N   UNL     1       5.892  29.166  52.789  1.00  0.00    -0.262 N 
HETATM   11  H   UNL     1       6.019  30.144  52.555  1.00  0.00     0.191 HD
HETATM   12  N   UNL     1       5.622  28.327  51.793  1.00  0.00    -0.178 NA
HETATM   13  C   UNL     1       5.465  27.149  52.398  1.00  0.00     0.062 A 
HETATM   14  C   UNL     1       5.091  25.965  51.573  1.00  0.00     0.073 C 
HETATM   15  H   UNL     1       6.197  30.332  55.083  1.00  0.00     0.170 HD
ENDROOT
BRANCH   1  16
HETATM   16  C   UNL     1       6.490  24.928  54.428  1.00  0.00    -0.040 A 
HETATM   17  C   UNL     1       6.567  23.860  55.346  1.00  0.00     0.009 A 
HETATM   18  C   UNL     1       7.404  22.763  55.127  1.00  0.00     0.007 A 
HETATM   19  C   UNL     1       8.199  22.697  53.982  1.00  0.00    -0.059 A 
HETATM   20  C   UNL     1       8.134  23.744  53.058  1.00  0.00     0.007 A 
HETATM   21  C   UNL     1       7.294  24.843  53.278  1.00  0.00     0.009 A 
BRANCH  19  22
HETATM   22  C   UNL     1       9.085  21.502  53.734  1.00  0.00     0.034 C 
HETATM   23  C   UNL     1       8.391  20.447  52.888  1.00  0.00     0.010 C 
ENDBRANCH  19  22
ENDBRANCH   1  16
TORSDOF 2
ENDMDL
MODEL 3
REMARK VINA RESULT:      -7.8      2.669      3.665
REMARK  2 active torsions:
REMARK  status: ('A' for Active; 'I' for Inactive)
REMARK    1  A    between atoms: C_2  and  C_3 
REMARK    2  A    between atoms: C_6  and  C_7 
ROOT
HETATM    1  C   UNL     1       6.975  29.198  55.646  1.00  0.00     0.119 C 
HETATM    2  S   UNL     1       5.405  29.821  55.007  1.00  0.00    -0.141 SA
HETATM    3  C   UNL     1       4.196  29.307  56.257  1.00  0.00     0.136 C 
HETATM    4  C   UNL     1       4.208  27.869  56.743  1.00  0.00     0.031 C 
HETATM    5  C   UNL     1       4.179  30.263  57.416  1.00  0.00     0.236 C 
HETATM    6  O   UNL     1       3.160  30.815  57.812  1.00  0.00    -0.272 OA
HETATM    7  N   UNL     1       5.315  30.533  58.230  1.00  0.00    -0.311 N 
HETATM    8  C   UNL     1       6.627  30.122  58.099  1.00  0.00     0.134 A 
HETATM    9  C   UNL     1       7.335  29.547  57.055  1.00  0.00     0.032 A 
HETATM   10  N   UNL     1       7.532  30.308  59.115  1.00  0.00    -0.262 N 
HETATM   11  H   UNL     1       7.371  30.715  60.030  1.00  0.00     0.191 HD
HETATM   12  N   UNL     1       8.761  29.883  58.839  1.00  0.00    -0.178 NA
HETATM   13  C   UNL     1       8.678  29.451  57.580  1.00  0.00     0.062 A 
HETATM   14  C   UNL     1       9.912  28.946  56.914  1.00  0.00     0.073 C 
HETATM   15  H   UNL     1       5.069  31.112  59.028  1.00  0.00     0.170 HD
ENDROOT
BRANCH   1  16
HETATM   16  C   UNL     1       7.226  27.723  55.342  1.00  0.00    -0.040 A 
HETATM   17  C   UNL     1       7.396  27.355  53.991  1.00  0.00     0.009 A 
HETATM   18  C   UNL     1       7.648  26.033  53.617  1.00  0.00     0.007 A 
HETATM   19  C   UNL     1       7.736  25.029  54.583  1.00  0.00    -0.059 A 
HETATM   20  C   UNL     1       7.575  25.375  55.928  1.00  0.00     0.007 A 
HETATM   21  C   UNL     1       7.322  26.701  56.302  1.00  0.00     0.009 A 
BRANCH  19  22
HETATM   22  C   UNL     1       8.032  23.606  54.181  1.00  0.00     0.034 C 
HETATM   23  C   UNL     1       7.863  23.393  52.684  1.00  0.00     0.010 C 
ENDBRANCH  19  22
ENDBRANCH   1  16
TORSDOF 2
ENDMDL
MODEL 4
REMARK VINA RESULT:      -7.7     10.491     13.556
REMARK  2 active torsions:
REMARK  status: ('A' for Active; 'I' for Inactive)
REMARK    1  A    between atoms: C_2  and  C_3 
REMARK    2  A    between atoms: C_6  and  C_7 
ROOT
HETATM    1  C   UNL     1       4.520  34.086  63.427  1.00  0.00     0.119 C 
HETATM    2  S   UNL     1       2.837  33.886  62.805  1.00  0.00    -0.141 SA
HETATM    3  C   UNL     1       3.042  33.857  61.003  1.00  0.00     0.136 C 
HETATM    4  C   UNL     1       3.887  34.932  60.344  1.00  0.00     0.031 C 
HETATM    5  C   UNL     1       3.450  32.491  60.529  1.00  0.00     0.236 C 
HETATM    6  O   UNL     1       2.837  31.872  59.668  1.00  0.00    -0.272 OA
HETATM    7  N   UNL     1       4.640  31.834  60.950  1.00  0.00    -0.311 N 
HETATM    8  C   UNL     1       5.571  32.195  61.905  1.00  0.00     0.134 A 
HETATM    9  C   UNL     1       5.560  33.135  62.924  1.00  0.00     0.032 A 
HETATM   10  N   UNL     1       6.771  31.537  62.008  1.00  0.00    -0.262 N 
HETATM   11  H   UNL     1       7.120  30.778  61.434  1.00  0.00     0.191 HD
HETATM   12  N   UNL     1       7.556  31.978  62.986  1.00  0.00    -0.178 NA
HETATM   13  C   UNL     1       6.829  32.923  63.582  1.00  0.00     0.062 A 
HETATM   14  C   UNL     1       7.390  33.608  64.782  1.00  0.00     0.073 C 
HETATM   15  H   UNL     1       4.794  30.976  60.428  1.00  0.00     0.170 HD
ENDROOT
BRANCH   1  16
HETATM   16  C   UNL     1       5.016  35.529  63.419  1.00  0.00    -0.040 A 
HETATM   17  C   UNL     1       4.732  36.322  64.550  1.00  0.00     0.009 A 
HETATM   18  C   UNL     1       5.161  37.649  64.642  1.00  0.00     0.007 A 
HETATM   19  C   UNL     1       5.887  38.231  63.602  1.00  0.00    -0.059 A 
HETATM   20  C   UNL     1       6.183  37.459  62.475  1.00  0.00     0.007 A 
HETATM   21  C   UNL     1       5.753  36.130  62.384  1.00  0.00     0.009 A 
BRANCH  19  22
HETATM   22  C   UNL     1       6.370  39.656  63.711  1.00  0.00     0.034 C 
HETATM   23  C   UNL     1       6.206  40.204  65.120  1.00  0.00     0.010 C 
ENDBRANCH  19  22
ENDBRANCH   1  16
TORSDOF 2
ENDMDL
MODEL 5
REMARK VINA RESULT:      -7.5      3.157      5.779
REMARK  2 active torsions:
REMARK  status: ('A' for Active; 'I' for Inactive)
REMARK    1  A    between atoms: C_2  and  C_3 
REMARK    2  A    between atoms: C_6  and  C_7 
ROOT
HETATM    1  C   UNL     1       6.593  26.611  56.305  1.00  0.00     0.119 C 
HETATM    2  S   UNL     1       5.076  27.179  55.507  1.00  0.00    -0.141 SA
HETATM    3  C   UNL     1       5.565  27.434  53.779  1.00  0.00     0.136 C 
HETATM    4  C   UNL     1       6.826  28.226  53.483  1.00  0.00     0.031 C 
HETATM    5  C   UNL     1       5.557  26.138  53.020  1.00  0.00     0.236 C 
HETATM    6  O   UNL     1       4.927  25.975  51.982  1.00  0.00    -0.272 OA
HETATM    7  N   UNL     1       6.361  25.016  53.368  1.00  0.00    -0.311 N 
HETATM    8  C   UNL     1       7.180  24.808  54.461  1.00  0.00     0.134 A 
HETATM    9  C   UNL     1       7.316  25.462  55.675  1.00  0.00     0.032 A 
HETATM   10  N   UNL     1       8.047  23.745  54.503  1.00  0.00    -0.262 N 
HETATM   11  H   UNL     1       8.209  23.040  53.792  1.00  0.00     0.191 HD
HETATM   12  N   UNL     1       8.755  23.658  55.625  1.00  0.00    -0.178 NA
HETATM   13  C   UNL     1       8.303  24.668  56.370  1.00  0.00     0.062 A 
HETATM   14  C   UNL     1       8.849  24.842  57.746  1.00  0.00     0.073 C 
HETATM   15  H   UNL     1       6.300  24.284  52.666  1.00  0.00     0.170 HD
ENDROOT
BRANCH   1  16
HETATM   16  C   UNL     1       7.545  27.737  56.698  1.00  0.00    -0.040 A 
HETATM   17  C   UNL     1       7.285  28.420  57.904  1.00  0.00     0.009 A 
HETATM   18  C   UNL     1       8.111  29.453  58.355  1.00  0.00     0.007 A 
HETATM   19  C   UNL     1       9.227  29.842  57.612  1.00  0.00    -0.059 A 
HETATM   20  C   UNL     1       9.504  29.173  56.417  1.00  0.00     0.007 A 
HETATM   21  C   UNL     1       8.675  28.138  55.965  1.00  0.00     0.009 A 
BRANCH  19  22
HETATM   22  C   UNL     1      10.131  30.940  58.112  1.00  0.00     0.034 C 
HETATM   23  C   UNL     1       9.495  31.728  59.246  1.00  0.00     0.010 C 
ENDBRANCH  19  22
ENDBRANCH   1  16
TORSDOF 2
ENDMDL
MODEL 6
REMARK VINA RESULT:      -7.5      2.558      4.232
REMARK  2 active torsions:
REMARK  status: ('A' for Active; 'I' for Inactive)
REMARK    1  A    between atoms: C_2  and  C_3 
REMARK    2  A    between atoms: C_6  and  C_7 
ROOT
HETATM    1  C   UNL     1       5.223  27.539  55.668  1.00  0.00     0.119 C 
HETATM    2  S   UNL     1       5.737  27.603  57.398  1.00  0.00    -0.141 SA
HETATM    3  C   UNL     1       7.188  28.691  57.377  1.00  0.00     0.136 C 
HETATM    4  C   UNL     1       8.280  28.438  56.353  1.00  0.00     0.031 C 
HETATM    5  C   UNL     1       6.778  30.136  57.378  1.00  0.00     0.236 C 
HETATM    6  O   UNL     1       7.180  30.944  58.206  1.00  0.00    -0.272 OA
HETATM    7  N   UNL     1       5.980  30.728  56.359  1.00  0.00    -0.311 N 
HETATM    8  C   UNL     1       5.335  30.153  55.282  1.00  0.00     0.134 A 
HETATM    9  C   UNL     1       5.028  28.841  54.957  1.00  0.00     0.032 A 
HETATM   10  N   UNL     1       4.795  30.927  54.285  1.00  0.00    -0.262 N 
HETATM   11  H   UNL     1       4.815  31.937  54.196  1.00  0.00     0.191 HD
HETATM   12  N   UNL     1       4.187  30.239  53.324  1.00  0.00    -0.178 NA
HETATM   13  C   UNL     1       4.280  28.971  53.727  1.00  0.00     0.062 A 
HETATM   14  C   UNL     1       3.641  27.908  52.900  1.00  0.00     0.073 C 
HETATM   15  H   UNL     1       5.914  31.735  56.479  1.00  0.00     0.170 HD
ENDROOT
BRANCH   1  16
HETATM   16  C   UNL     1       6.010  26.541  54.824  1.00  0.00    -0.040 A 
HETATM   17  C   UNL     1       5.821  25.169  55.091  1.00  0.00     0.009 A 
HETATM   18  C   UNL     1       6.484  24.181  54.359  1.00  0.00     0.007 A 
HETATM   19  C   UNL     1       7.365  24.531  53.334  1.00  0.00    -0.059 A 
HETATM   20  C   UNL     1       7.562  25.885  53.051  1.00  0.00     0.007 A 
HETATM   21  C   UNL     1       6.897  26.875  53.786  1.00  0.00     0.009 A 
BRANCH  19  22
HETATM   22  C   UNL     1       8.062  23.464  52.528  1.00  0.00     0.034 C 
HETATM   23  C   UNL     1       7.974  22.100  53.196  1.00  0.00     0.010 C 
ENDBRANCH  19  22
ENDBRANCH   1  16
TORSDOF 2
ENDMDL
MODEL 7
REMARK VINA RESULT:      -7.3      2.759      5.142
REMARK  2 active torsions:
REMARK  status: ('A' for Active; 'I' for Inactive)
REMARK    1  A    between atoms: C_2  and  C_3 
REMARK    2  A    between atoms: C_6  and  C_7 
ROOT
HETATM    1  C   UNL     1       5.531  27.209  55.995  1.00  0.00     0.119 C 
HETATM    2  S   UNL     1       4.130  28.346  55.919  1.00  0.00    -0.141 SA
HETATM    3  C   UNL     1       4.212  29.022  54.239  1.00  0.00     0.136 C 
HETATM    4  C   UNL     1       5.540  29.546  53.723  1.00  0.00     0.031 C 
HETATM    5  C   UNL     1       3.587  28.082  53.248  1.00  0.00     0.236 C 
HETATM    6  O   UNL     1       2.693  28.418  52.480  1.00  0.00    -0.272 OA
HETATM    7  N   UNL     1       4.043  26.751  53.029  1.00  0.00    -0.311 N 
HETATM    8  C   UNL     1       5.002  26.014  53.695  1.00  0.00     0.134 A 
HETATM    9  C   UNL     1       5.652  26.189  54.907  1.00  0.00     0.032 A 
HETATM   10  N   UNL     1       5.455  24.821  53.190  1.00  0.00    -0.262 N 
HETATM   11  H   UNL     1       5.190  24.368  52.323  1.00  0.00     0.191 HD
HETATM   12  N   UNL     1       6.361  24.212  53.949  1.00  0.00    -0.178 NA
HETATM   13  C   UNL     1       6.471  25.003  55.017  1.00  0.00     0.062 A 
HETATM   14  C   UNL     1       7.379  24.589  56.124  1.00  0.00     0.073 C 
HETATM   15  H   UNL     1       3.568  26.323  52.240  1.00  0.00     0.170 HD
ENDROOT
BRANCH   1  16
HETATM   16  C   UNL     1       6.865  27.889  56.290  1.00  0.00    -0.040 A 
HETATM   17  C   UNL     1       7.691  28.208  55.192  1.00  0.00     0.009 A 
HETATM   18  C   UNL     1       8.922  28.847  55.362  1.00  0.00     0.007 A 
HETATM   19  C   UNL     1       9.372  29.188  56.639  1.00  0.00    -0.059 A 
HETATM   20  C   UNL     1       8.565  28.885  57.739  1.00  0.00     0.007 A 
HETATM   21  C   UNL     1       7.331  28.244  57.568  1.00  0.00     0.009 A 
BRANCH  19  22
HETATM   22  C   UNL     1      10.689  29.899  56.819  1.00  0.00     0.034 C 
HETATM   23  C   UNL     1      10.578  31.061  57.795  1.00  0.00     0.010 C 
ENDBRANCH  19  22
ENDBRANCH   1  16
TORSDOF 2
ENDMDL
MODEL 8
REMARK VINA RESULT:      -7.2      9.351     11.508
REMARK  2 active torsions:
REMARK  status: ('A' for Active; 'I' for Inactive)
REMARK    1  A    between atoms: C_2  and  C_3 
REMARK    2  A    between atoms: C_6  and  C_7 
ROOT
HETATM    1  C   UNL     1       5.596  34.536  62.804  1.00  0.00     0.119 C 
HETATM    2  S   UNL     1       4.515  35.218  61.528  1.00  0.00    -0.141 SA
HETATM    3  C   UNL     1       3.121  34.059  61.478  1.00  0.00     0.136 C 
HETATM    4  C   UNL     1       3.407  32.570  61.400  1.00  0.00     0.031 C 
HETATM    5  C   UNL     1       2.132  34.358  62.568  1.00  0.00     0.236 C 
HETATM    6  O   UNL     1       0.942  34.552  62.356  1.00  0.00    -0.272 OA
HETATM    7  N   UNL     1       2.457  34.333  63.954  1.00  0.00    -0.311 N 
HETATM    8  C   UNL     1       3.675  34.169  64.584  1.00  0.00     0.134 A 
HETATM    9  C   UNL     1       4.985  34.223  64.132  1.00  0.00     0.032 A 
HETATM   10  N   UNL     1       3.748  33.953  65.937  1.00  0.00    -0.262 N 
HETATM   11  H   UNL     1       2.986  33.867  66.600  1.00  0.00     0.191 HD
HETATM   12  N   UNL     1       4.986  33.835  66.408  1.00  0.00    -0.178 NA
HETATM   13  C   UNL     1       5.758  34.034  65.339  1.00  0.00     0.062 A 
HETATM   14  C   UNL     1       7.238  34.028  65.513  1.00  0.00     0.073 C 
HETATM   15  H   UNL     1       1.628  34.445  64.530  1.00  0.00     0.170 HD
ENDROOT
BRANCH   1  16
HETATM   16  C   UNL     1       6.499  33.408  62.312  1.00  0.00    -0.040 A 
HETATM   17  C   UNL     1       7.265  33.645  61.152  1.00  0.00     0.009 A 
HETATM   18  C   UNL     1       8.134  32.679  60.637  1.00  0.00     0.007 A 
HETATM   19  C   UNL     1       8.264  31.438  61.263  1.00  0.00    -0.059 A 
HETATM   20  C   UNL     1       7.516  31.187  62.417  1.00  0.00     0.007 A 
HETATM   21  C   UNL     1       6.646  32.155  62.933  1.00  0.00     0.009 A 
BRANCH  19  22
HETATM   22  C   UNL     1       9.219  30.405  60.721  1.00  0.00     0.034 C 
HETATM   23  C   UNL     1       9.287  30.437  59.202  1.00  0.00     0.010 C 
ENDBRANCH  19  22
ENDBRANCH   1  16
TORSDOF 2
ENDMDL
MODEL 9
REMARK VINA RESULT:      -7.0     12.026     14.178
REMARK  2 active torsions:
REMARK  status: ('A' for Active; 'I' for Inactive)
REMARK    1  A    between atoms: C_2  and  C_3 
REMARK    2  A    between atoms: C_6  and  C_7 
ROOT
HETATM    1  C   UNL     1       5.333  35.318  62.653  1.00  0.00     0.119 C 
HETATM    2  S   UNL     1       4.895  33.825  61.737  1.00  0.00    -0.141 SA
HETATM    3  C   UNL     1       3.087  33.754  61.865  1.00  0.00     0.136 C 
HETATM    4  C   UNL     1       2.441  33.930  63.227  1.00  0.00     0.031 C 
HETATM    5  C   UNL     1       2.439  34.648  60.846  1.00  0.00     0.236 C 
HETATM    6  O   UNL     1       1.599  34.253  60.048  1.00  0.00    -0.272 OA
HETATM    7  N   UNL     1       2.653  36.054  60.783  1.00  0.00    -0.311 N 
HETATM    8  C   UNL     1       3.524  36.859  61.492  1.00  0.00     0.134 A 
HETATM    9  C   UNL     1       4.623  36.584  62.291  1.00  0.00     0.032 A 
HETATM   10  N   UNL     1       3.423  38.227  61.443  1.00  0.00    -0.262 N 
HETATM   11  H   UNL     1       2.741  38.786  60.943  1.00  0.00     0.191 HD
HETATM   12  N   UNL     1       4.341  38.871  62.157  1.00  0.00    -0.178 NA
HETATM   13  C   UNL     1       5.106  37.897  62.651  1.00  0.00     0.062 A 
HETATM   14  C   UNL     1       6.293  38.268  63.474  1.00  0.00     0.073 C 
HETATM   15  H   UNL     1       2.036  36.492  60.105  1.00  0.00     0.170 HD
ENDROOT
BRANCH   1  16
HETATM   16  C   UNL     1       5.407  35.118  64.164  1.00  0.00    -0.040 A 
HETATM   17  C   UNL     1       6.418  34.270  64.661  1.00  0.00     0.009 A 
HETATM   18  C   UNL     1       6.576  34.040  66.030  1.00  0.00     0.007 A 
HETATM   19  C   UNL     1       5.724  34.650  66.952  1.00  0.00    -0.059 A 
HETATM   20  C   UNL     1       4.719  35.498  66.480  1.00  0.00     0.007 A 
HETATM   21  C   UNL     1       4.561  35.728  65.107  1.00  0.00     0.009 A 
BRANCH  19  22
HETATM   22  C   UNL     1       5.909  34.421  68.431  1.00  0.00     0.034 C 
HETATM   23  C   UNL     1       7.313  34.784  68.890  1.00  0.00     0.010 C 
ENDBRANCH  19  22
ENDBRANCH   1  16
TORSDOF 2
ENDMDL
MODEL 10
REMARK VINA RESULT:      -7.0     15.316     18.077
REMARK  2 active torsions:
REMARK  status: ('A' for Active; 'I' for Inactive)
REMARK    1  A    between atoms: C_2  and  C_3 
REMARK    2  A    between atoms: C_6  and  C_7 
ROOT
HETATM    1  C   UNL     1      14.448   9.549  54.488  1.00  0.00     0.119 C 
HETATM    2  S   UNL     1      12.750  10.061  54.830  1.00  0.00    -0.141 SA
HETATM    3  C   UNL     1      12.810  11.869  54.702  1.00  0.00     0.136 C 
HETATM    4  C   UNL     1      13.906  12.620  55.435  1.00  0.00     0.031 C 
HETATM    5  C   UNL     1      12.724  12.311  53.269  1.00  0.00     0.236 C 
HETATM    6  O   UNL     1      11.887  13.109  52.866  1.00  0.00    -0.272 OA
HETATM    7  N   UNL     1      13.667  11.936  52.272  1.00  0.00    -0.311 N 
HETATM    8  C   UNL     1      14.728  11.054  52.331  1.00  0.00     0.134 A 
HETATM    9  C   UNL     1      15.090  10.075  53.244  1.00  0.00     0.032 A 
HETATM   10  N   UNL     1      15.659  10.996  51.323  1.00  0.00    -0.262 N 
HETATM   11  H   UNL     1      15.705  11.560  50.482  1.00  0.00     0.191 HD
HETATM   12  N   UNL     1      16.610  10.086  51.506  1.00  0.00    -0.178 NA
HETATM   13  C   UNL     1      16.267   9.485  52.646  1.00  0.00     0.062 A 
HETATM   14  C   UNL     1      17.099   8.350  53.135  1.00  0.00     0.073 C 
HETATM   15  H   UNL     1      13.502  12.432  51.401  1.00  0.00     0.170 HD
ENDROOT
BRANCH   1  16
HETATM   16  C   UNL     1      15.378   9.644  55.694  1.00  0.00    -0.040 A 
HETATM   17  C   UNL     1      15.144   8.762  56.769  1.00  0.00     0.009 A 
HETATM   18  C   UNL     1      15.954   8.763  57.908  1.00  0.00     0.007 A 
HETATM   19  C   UNL     1      17.027   9.650  58.012  1.00  0.00    -0.059 A 
HETATM   20  C   UNL     1      17.278  10.528  56.954  1.00  0.00     0.007 A 
HETATM   21  C   UNL     1      16.466  10.527  55.813  1.00  0.00     0.009 A 
BRANCH  19  22
HETATM   22  C   UNL     1      17.916   9.634  59.231  1.00  0.00     0.034 C 
HETATM   23  C   UNL     1      18.821  10.854  59.289  1.00  0.00     0.010 C 
ENDBRANCH  19  22
ENDBRANCH   1  16
TORSDOF 2
ENDMDL
