MODEL 1
REMARK VINA RESULT:      -9.0      0.000      0.000
REMARK  5 active torsions:
REMARK  status: ('A' for Active; 'I' for Inactive)
REMARK    1  A    between atoms: N_3  and  C_4 
REMARK    2  A    between atoms: C_7  and  C_8 
REMARK       I    between atoms: C_8  and  N_9 
REMARK    3  A    between atoms: N_9  and  C_10 
REMARK    4  A    between atoms: C_11  and  N_12 
REMARK    5  A    between atoms: C_15  and  O_16 
ROOT
HETATM    1  C   UNL     1       8.120  31.393  59.386  1.00  0.00     0.256 C 
HETATM    2  N   UNL     1       7.401  31.205  60.539  1.00  0.00    -0.321 N 
HETATM    3  O   UNL     1       8.821  32.341  59.066  1.00  0.00    -0.267 OA
HETATM    4  H   UNL     1       6.877  30.342  60.661  1.00  0.00     0.169 HD
ENDROOT
BRANCH   2   5
HETATM    5  C   UNL     1       7.302  32.048  61.665  1.00  0.00     0.056 A 
HETATM    6  C   UNL     1       6.203  32.949  61.664  1.00  0.00     0.037 A 
HETATM    7  C   UNL     1       6.027  33.789  62.772  1.00  0.00     0.026 A 
HETATM    8  C   UNL     1       6.916  33.741  63.851  1.00  0.00     0.002 A 
HETATM    9  C   UNL     1       7.992  32.858  63.833  1.00  0.00     0.002 A 
HETATM   10  C   UNL     1       8.189  32.012  62.740  1.00  0.00     0.031 A 
BRANCH   6  11
HETATM   11  N   UNL     1       5.354  32.981  60.520  1.00  0.00    -0.281 NA
HETATM   12  C   UNL     1       4.980  34.373  60.196  1.00  0.00     0.098 C 
HETATM   13  C   UNL     1       4.354  34.396  58.801  1.00  0.00     0.046 C 
HETATM   14  C   UNL     1       3.170  33.436  58.703  1.00  0.00     0.120 C 
HETATM   15  C   UNL     1       3.529  32.037  59.204  1.00  0.00     0.046 C 
HETATM   16  C   UNL     1       4.179  32.092  60.586  1.00  0.00     0.098 C 
BRANCH  14  17
HETATM   17  O   UNL     1       2.074  33.939  59.467  1.00  0.00    -0.395 OA
HETATM   18  H   UNL     1       2.299  34.844  59.741  1.00  0.00     0.210 HD
ENDBRANCH  14  17
ENDBRANCH   6  11
ENDBRANCH   2   5
BRANCH   1  19
HETATM   19  C   UNL     1       7.996  30.257  58.454  1.00  0.00     0.032 A 
HETATM   20  C   UNL     1       9.153  29.667  57.947  1.00  0.00     0.019 A 
HETATM   21  C   UNL     1       9.046  28.563  57.100  1.00  0.00     0.031 A 
HETATM   22  C   UNL     1       7.783  28.051  56.759  1.00  0.00     0.039 A 
HETATM   23  C   UNL     1       6.627  28.662  57.266  1.00  0.00     0.031 A 
HETATM   24  C   UNL     1       6.733  29.767  58.117  1.00  0.00     0.019 A 
BRANCH  22  25
HETATM   25  N   UNL     1       7.688  26.916  55.897  1.00  0.00    -0.320 N 
HETATM   26  C   UNL     1       7.381  26.944  54.534  1.00  0.00     0.013 A 
HETATM   27  C   UNL     1       7.246  28.184  53.714  1.00  0.00     0.068 C 
HETATM   28  C   UNL     1       7.317  25.644  54.075  1.00  0.00     0.027 A 
HETATM   29  C   UNL     1       7.640  24.795  55.144  1.00  0.00     0.027 A 
HETATM   30  C   UNL     1       7.877  25.580  56.257  1.00  0.00     0.013 A 
HETATM   31  C   UNL     1       8.172  25.092  57.635  1.00  0.00     0.068 C 
ENDBRANCH  22  25
ENDBRANCH   1  19
TORSDOF 5
ENDMDL
MODEL 2
REMARK VINA RESULT:      -9.0      4.702      7.906
REMARK  5 active torsions:
REMARK  status: ('A' for Active; 'I' for Inactive)
REMARK    1  A    between atoms: N_3  and  C_4 
REMARK    2  A    between atoms: C_7  and  C_8 
REMARK       I    between atoms: C_8  and  N_9 
REMARK    3  A    between atoms: N_9  and  C_10 
REMARK    4  A    between atoms: C_11  and  N_12 
REMARK    5  A    between atoms: C_15  and  O_16 
ROOT
HETATM    1  C   UNL     1       5.687  26.625  51.971  1.00  0.00     0.256 C 
HETATM    2  N   UNL     1       4.939  27.444  52.778  1.00  0.00    -0.321 N 
HETATM    3  O   UNL     1       5.893  26.713  50.769  1.00  0.00    -0.267 OA
HETATM    4  H   UNL     1       4.882  27.240  53.773  1.00  0.00     0.169 HD
ENDROOT
BRANCH   2   5
HETATM    5  C   UNL     1       4.229  28.612  52.435  1.00  0.00     0.056 A 
HETATM    6  C   UNL     1       4.243  29.650  53.406  1.00  0.00     0.037 A 
HETATM    7  C   UNL     1       3.586  30.851  53.109  1.00  0.00     0.026 A 
HETATM    8  C   UNL     1       2.931  31.023  51.886  1.00  0.00     0.002 A 
HETATM    9  C   UNL     1       2.920  29.994  50.947  1.00  0.00     0.002 A 
HETATM   10  C   UNL     1       3.567  28.787  51.220  1.00  0.00     0.031 A 
BRANCH   6  11
HETATM   11  N   UNL     1       4.892  29.403  54.651  1.00  0.00    -0.281 NA
HETATM   12  C   UNL     1       4.134  28.410  55.438  1.00  0.00     0.098 C 
HETATM   13  C   UNL     1       5.014  27.934  56.596  1.00  0.00     0.046 C 
HETATM   14  C   UNL     1       5.498  29.106  57.448  1.00  0.00     0.120 C 
HETATM   15  C   UNL     1       6.129  30.206  56.595  1.00  0.00     0.046 C 
HETATM   16  C   UNL     1       5.213  30.607  55.439  1.00  0.00     0.098 C 
BRANCH  14  17
HETATM   17  O   UNL     1       4.405  29.655  58.184  1.00  0.00    -0.395 OA
HETATM   18  H   UNL     1       4.714  30.480  58.595  1.00  0.00     0.210 HD
ENDBRANCH  14  17
ENDBRANCH   6  11
ENDBRANCH   2   5
BRANCH   1  19
HETATM   19  C   UNL     1       6.310  25.515  52.716  1.00  0.00     0.032 A 
HETATM   20  C   UNL     1       5.709  25.068  53.892  1.00  0.00     0.019 A 
HETATM   21  C   UNL     1       6.267  23.988  54.578  1.00  0.00     0.031 A 
HETATM   22  C   UNL     1       7.424  23.358  54.091  1.00  0.00     0.039 A 
HETATM   23  C   UNL     1       8.024  23.827  52.913  1.00  0.00     0.031 A 
HETATM   24  C   UNL     1       7.466  24.907  52.222  1.00  0.00     0.019 A 
BRANCH  22  25
HETATM   25  N   UNL     1       7.979  22.249  54.799  1.00  0.00    -0.320 N 
HETATM   26  C   UNL     1       8.108  20.946  54.311  1.00  0.00     0.013 A 
HETATM   27  C   UNL     1       7.823  20.526  52.908  1.00  0.00     0.068 C 
HETATM   28  C   UNL     1       8.625  20.153  55.317  1.00  0.00     0.027 A 
HETATM   29  C   UNL     1       8.873  20.976  56.426  1.00  0.00     0.027 A 
HETATM   30  C   UNL     1       8.484  22.262  56.101  1.00  0.00     0.013 A 
HETATM   31  C   UNL     1       8.493  23.444  57.010  1.00  0.00     0.068 C 
ENDBRANCH  22  25
ENDBRANCH   1  19
TORSDOF 5
ENDMDL
MODEL 3
REMARK VINA RESULT:      -8.8      7.038     10.323
REMARK  5 active torsions:
REMARK  status: ('A' for Active; 'I' for Inactive)
REMARK    1  A    between atoms: N_3  and  C_4 
REMARK    2  A    between atoms: C_7  and  C_8 
REMARK       I    between atoms: C_8  and  N_9 
REMARK    3  A    between atoms: N_9  and  C_10 
REMARK    4  A    between atoms: C_11  and  N_12 
REMARK    5  A    between atoms: C_15  and  O_16 
ROOT
HETATM    1  C   UNL     1       5.105  29.263  51.797  1.00  0.00     0.256 C 
HETATM    2  N   UNL     1       5.688  29.326  50.557  1.00  0.00    -0.321 N 
HETATM    3  O   UNL     1       4.297  30.028  52.304  1.00  0.00    -0.267 OA
HETATM    4  H   UNL     1       6.335  28.593  50.276  1.00  0.00     0.169 HD
ENDROOT
BRANCH   2   5
HETATM    5  C   UNL     1       5.491  30.279  49.536  1.00  0.00     0.056 A 
HETATM    6  C   UNL     1       4.636  29.876  48.475  1.00  0.00     0.037 A 
HETATM    7  C   UNL     1       4.371  30.792  47.447  1.00  0.00     0.026 A 
HETATM    8  C   UNL     1       4.936  32.070  47.468  1.00  0.00     0.002 A 
HETATM    9  C   UNL     1       5.778  32.447  48.512  1.00  0.00     0.002 A 
HETATM   10  C   UNL     1       6.058  31.553  49.546  1.00  0.00     0.031 A 
BRANCH   6  11
HETATM   11  N   UNL     1       4.122  28.547  48.486  1.00  0.00    -0.281 NA
HETATM   12  C   UNL     1       4.990  27.652  47.694  1.00  0.00     0.098 C 
HETATM   13  C   UNL     1       4.599  26.205  47.995  1.00  0.00     0.046 C 
HETATM   14  C   UNL     1       3.114  25.960  47.731  1.00  0.00     0.120 C 
HETATM   15  C   UNL     1       2.235  27.001  48.423  1.00  0.00     0.046 C 
HETATM   16  C   UNL     1       2.702  28.422  48.107  1.00  0.00     0.098 C 
BRANCH  14  17
HETATM   17  O   UNL     1       2.860  25.992  46.326  1.00  0.00    -0.395 OA
HETATM   18  H   UNL     1       3.519  25.422  45.896  1.00  0.00     0.210 HD
ENDBRANCH  14  17
ENDBRANCH   6  11
ENDBRANCH   2   5
BRANCH   1  19
HETATM   19  C   UNL     1       5.546  28.086  52.567  1.00  0.00     0.032 A 
HETATM   20  C   UNL     1       4.769  26.928  52.539  1.00  0.00     0.019 A 
HETATM   21  C   UNL     1       5.203  25.795  53.229  1.00  0.00     0.031 A 
HETATM   22  C   UNL     1       6.410  25.820  53.947  1.00  0.00     0.039 A 
HETATM   23  C   UNL     1       7.175  26.996  53.976  1.00  0.00     0.031 A 
HETATM   24  C   UNL     1       6.744  28.131  53.284  1.00  0.00     0.019 A 
BRANCH  22  25
HETATM   25  N   UNL     1       6.846  24.650  54.642  1.00  0.00    -0.320 N 
HETATM   26  C   UNL     1       6.702  24.409  56.011  1.00  0.00     0.013 A 
HETATM   27  C   UNL     1       5.932  25.271  56.955  1.00  0.00     0.068 C 
HETATM   28  C   UNL     1       7.310  23.205  56.307  1.00  0.00     0.027 A 
HETATM   29  C   UNL     1       7.790  22.660  55.106  1.00  0.00     0.027 A 
HETATM   30  C   UNL     1       7.495  23.546  54.087  1.00  0.00     0.013 A 
HETATM   31  C   UNL     1       7.894  23.410  52.656  1.00  0.00     0.068 C 
ENDBRANCH  22  25
ENDBRANCH   1  19
TORSDOF 5
ENDMDL
MODEL 4
REMARK VINA RESULT:      -8.7      3.747      5.945
REMARK  5 active torsions:
REMARK  status: ('A' for Active; 'I' for Inactive)
REMARK    1  A    between atoms: N_3  and  C_4 
REMARK    2  A    between atoms: C_7  and  C_8 
REMARK       I    between atoms: C_8  and  N_9 
REMARK    3  A    between atoms: N_9  and  C_10 
REMARK    4  A    between atoms: C_11  and  N_12 
REMARK    5  A    between atoms: C_15  and  O_16 
ROOT
HETATM    1  C   UNL     1       7.258  27.655  57.314  1.00  0.00     0.256 C 
HETATM    2  N   UNL     1       6.432  28.432  56.541  1.00  0.00    -0.321 N 
HETATM    3  O   UNL     1       7.830  27.944  58.354  1.00  0.00    -0.267 OA
HETATM    4  H   UNL     1       6.016  28.032  55.704  1.00  0.00     0.169 HD
ENDROOT
BRANCH   2   5
HETATM    5  C   UNL     1       6.012  29.760  56.759  1.00  0.00     0.056 A 
HETATM    6  C   UNL     1       5.218  30.332  55.728  1.00  0.00     0.037 A 
HETATM    7  C   UNL     1       4.738  31.637  55.901  1.00  0.00     0.026 A 
HETATM    8  C   UNL     1       5.037  32.359  57.060  1.00  0.00     0.002 A 
HETATM    9  C   UNL     1       5.822  31.787  58.059  1.00  0.00     0.002 A 
HETATM   10  C   UNL     1       6.312  30.489  57.909  1.00  0.00     0.031 A 
BRANCH   6  11
HETATM   11  N   UNL     1       4.981  29.564  54.551  1.00  0.00    -0.281 NA
HETATM   12  C   UNL     1       4.509  30.435  53.455  1.00  0.00     0.098 C 
HETATM   13  C   UNL     1       4.580  29.648  52.145  1.00  0.00     0.046 C 
HETATM   14  C   UNL     1       3.791  28.343  52.233  1.00  0.00     0.120 C 
HETATM   15  C   UNL     1       4.172  27.531  53.471  1.00  0.00     0.046 C 
HETATM   16  C   UNL     1       4.113  28.386  54.736  1.00  0.00     0.098 C 
BRANCH  14  17
HETATM   17  O   UNL     1       2.392  28.623  52.271  1.00  0.00    -0.395 OA
HETATM   18  H   UNL     1       2.023  28.167  53.047  1.00  0.00     0.210 HD
ENDBRANCH  14  17
ENDBRANCH   6  11
ENDBRANCH   2   5
BRANCH   1  19
HETATM   19  C   UNL     1       7.428  26.297  56.766  1.00  0.00     0.032 A 
HETATM   20  C   UNL     1       6.426  25.761  55.958  1.00  0.00     0.019 A 
HETATM   21  C   UNL     1       6.600  24.494  55.399  1.00  0.00     0.031 A 
HETATM   22  C   UNL     1       7.774  23.764  55.648  1.00  0.00     0.039 A 
HETATM   23  C   UNL     1       8.768  24.310  56.473  1.00  0.00     0.031 A 
HETATM   24  C   UNL     1       8.597  25.580  57.031  1.00  0.00     0.019 A 
BRANCH  22  25
HETATM   25  N   UNL     1       7.942  22.472  55.062  1.00  0.00    -0.320 N 
HETATM   26  C   UNL     1       7.914  22.181  53.696  1.00  0.00     0.013 A 
HETATM   27  C   UNL     1       7.852  23.199  52.606  1.00  0.00     0.068 C 
HETATM   28  C   UNL     1       8.044  20.816  53.538  1.00  0.00     0.027 A 
HETATM   29  C   UNL     1       8.211  20.251  54.812  1.00  0.00     0.027 A 
HETATM   30  C   UNL     1       8.157  21.272  55.742  1.00  0.00     0.013 A 
HETATM   31  C   UNL     1       8.206  21.119  57.225  1.00  0.00     0.068 C 
ENDBRANCH  22  25
ENDBRANCH   1  19
TORSDOF 5
ENDMDL
MODEL 5
REMARK VINA RESULT:      -8.6      4.779      8.569
REMARK  5 active torsions:
REMARK  status: ('A' for Active; 'I' for Inactive)
REMARK    1  A    between atoms: N_3  and  C_4 
REMARK    2  A    between atoms: C_7  and  C_8 
REMARK       I    between atoms: C_8  and  N_9 
REMARK    3  A    between atoms: N_9  and  C_10 
REMARK    4  A    between atoms: C_11  and  N_12 
REMARK    5  A    between atoms: C_15  and  O_16 
ROOT
HETATM    1  C   UNL     1       5.462  25.615  53.146  1.00  0.00     0.256 C 
HETATM    2  N   UNL     1       6.577  26.099  53.784  1.00  0.00    -0.321 N 
HETATM    3  O   UNL     1       4.826  24.598  53.379  1.00  0.00    -0.267 OA
HETATM    4  H   UNL     1       6.981  26.980  53.475  1.00  0.00     0.169 HD
ENDROOT
BRANCH   2   5
HETATM    5  C   UNL     1       7.266  25.558  54.888  1.00  0.00     0.056 A 
HETATM    6  C   UNL     1       7.117  26.263  56.113  1.00  0.00     0.037 A 
HETATM    7  C   UNL     1       7.747  25.755  57.257  1.00  0.00     0.026 A 
HETATM    8  C   UNL     1       8.506  24.583  57.192  1.00  0.00     0.002 A 
HETATM    9  C   UNL     1       8.648  23.907  55.982  1.00  0.00     0.002 A 
HETATM   10  C   UNL     1       8.031  24.393  54.829  1.00  0.00     0.031 A 
BRANCH   6  11
HETATM   11  N   UNL     1       6.365  27.474  56.110  1.00  0.00    -0.281 NA
HETATM   12  C   UNL     1       7.001  28.476  56.990  1.00  0.00     0.098 C 
HETATM   13  C   UNL     1       6.366  29.840  56.711  1.00  0.00     0.046 C 
HETATM   14  C   UNL     1       4.848  29.795  56.879  1.00  0.00     0.120 C 
HETATM   15  C   UNL     1       4.223  28.643  56.094  1.00  0.00     0.046 C 
HETATM   16  C   UNL     1       4.927  27.320  56.394  1.00  0.00     0.098 C 
BRANCH  14  17
HETATM   17  O   UNL     1       4.518  29.652  58.261  1.00  0.00    -0.395 OA
HETATM   18  H   UNL     1       5.265  29.207  58.696  1.00  0.00     0.210 HD
ENDBRANCH  14  17
ENDBRANCH   6  11
ENDBRANCH   2   5
BRANCH   1  19
HETATM   19  C   UNL     1       5.016  26.493  52.048  1.00  0.00     0.032 A 
HETATM   20  C   UNL     1       5.215  26.084  50.730  1.00  0.00     0.019 A 
HETATM   21  C   UNL     1       4.755  26.887  49.686  1.00  0.00     0.031 A 
HETATM   22  C   UNL     1       4.098  28.098  49.959  1.00  0.00     0.039 A 
HETATM   23  C   UNL     1       3.916  28.504  51.290  1.00  0.00     0.031 A 
HETATM   24  C   UNL     1       4.374  27.698  52.337  1.00  0.00     0.019 A 
BRANCH  22  25
HETATM   25  N   UNL     1       3.626  28.907  48.881  1.00  0.00    -0.320 N 
HETATM   26  C   UNL     1       2.500  28.648  48.094  1.00  0.00     0.013 A 
HETATM   27  C   UNL     1       1.513  27.558  48.346  1.00  0.00     0.068 C 
HETATM   28  C   UNL     1       2.418  29.621  47.118  1.00  0.00     0.027 A 
HETATM   29  C   UNL     1       3.468  30.528  47.326  1.00  0.00     0.027 A 
HETATM   30  C   UNL     1       4.200  30.091  48.415  1.00  0.00     0.013 A 
HETATM   31  C   UNL     1       5.453  30.706  48.940  1.00  0.00     0.068 C 
ENDBRANCH  22  25
ENDBRANCH   1  19
TORSDOF 5
ENDMDL
MODEL 6
REMARK VINA RESULT:      -8.2      4.718      7.147
REMARK  5 active torsions:
REMARK  status: ('A' for Active; 'I' for Inactive)
REMARK    1  A    between atoms: N_3  and  C_4 
REMARK    2  A    between atoms: C_7  and  C_8 
REMARK       I    between atoms: C_8  and  N_9 
REMARK    3  A    between atoms: N_9  and  C_10 
REMARK    4  A    between atoms: C_11  and  N_12 
REMARK    5  A    between atoms: C_15  and  O_16 
ROOT
HETATM    1  C   UNL     1       6.531  27.567  56.367  1.00  0.00     0.256 C 
HETATM    2  N   UNL     1       5.266  27.832  55.907  1.00  0.00    -0.321 N 
HETATM    3  O   UNL     1       7.325  28.324  56.905  1.00  0.00    -0.267 OA
HETATM    4  H   UNL     1       4.721  27.078  55.495  1.00  0.00     0.169 HD
ENDROOT
BRANCH   2   5
HETATM    5  C   UNL     1       4.545  29.042  55.954  1.00  0.00     0.056 A 
HETATM    6  C   UNL     1       4.188  29.596  54.695  1.00  0.00     0.037 A 
HETATM    7  C   UNL     1       3.438  30.780  54.674  1.00  0.00     0.026 A 
HETATM    8  C   UNL     1       3.054  31.401  55.866  1.00  0.00     0.002 A 
HETATM    9  C   UNL     1       3.418  30.850  57.092  1.00  0.00     0.002 A 
HETATM   10  C   UNL     1       4.165  29.672  57.139  1.00  0.00     0.031 A 
BRANCH   6  11
HETATM   11  N   UNL     1       4.642  28.941  53.514  1.00  0.00    -0.281 NA
HETATM   12  C   UNL     1       4.553  29.851  52.354  1.00  0.00     0.098 C 
HETATM   13  C   UNL     1       5.340  29.239  51.194  1.00  0.00     0.046 C 
HETATM   14  C   UNL     1       4.850  27.830  50.867  1.00  0.00     0.120 C 
HETATM   15  C   UNL     1       4.786  26.947  52.114  1.00  0.00     0.046 C 
HETATM   16  C   UNL     1       4.016  27.634  53.242  1.00  0.00     0.098 C 
BRANCH  14  17
HETATM   17  O   UNL     1       3.554  27.893  50.273  1.00  0.00    -0.395 OA
HETATM   18  H   UNL     1       2.906  27.990  50.992  1.00  0.00     0.210 HD
ENDBRANCH  14  17
ENDBRANCH   6  11
ENDBRANCH   2   5
BRANCH   1  19
HETATM   19  C   UNL     1       6.921  26.159  56.166  1.00  0.00     0.032 A 
HETATM   20  C   UNL     1       6.088  25.326  55.421  1.00  0.00     0.019 A 
HETATM   21  C   UNL     1       6.472  24.004  55.187  1.00  0.00     0.031 A 
HETATM   22  C   UNL     1       7.686  23.517  55.699  1.00  0.00     0.039 A 
HETATM   23  C   UNL     1       8.507  24.364  56.458  1.00  0.00     0.031 A 
HETATM   24  C   UNL     1       8.126  25.688  56.691  1.00  0.00     0.019 A 
BRANCH  22  25
HETATM   25  N   UNL     1       8.070  22.165  55.446  1.00  0.00    -0.320 N 
HETATM   26  C   UNL     1       8.390  21.208  56.414  1.00  0.00     0.013 A 
HETATM   27  C   UNL     1       8.239  21.398  57.886  1.00  0.00     0.068 C 
HETATM   28  C   UNL     1       8.775  20.049  55.770  1.00  0.00     0.027 A 
HETATM   29  C   UNL     1       8.643  20.261  54.389  1.00  0.00     0.027 A 
HETATM   30  C   UNL     1       8.201  21.557  54.196  1.00  0.00     0.013 A 
HETATM   31  C   UNL     1       8.003  22.236  52.883  1.00  0.00     0.068 C 
ENDBRANCH  22  25
ENDBRANCH   1  19
TORSDOF 5
ENDMDL
MODEL 7
REMARK VINA RESULT:      -8.1      3.106      9.121
REMARK  5 active torsions:
REMARK  status: ('A' for Active; 'I' for Inactive)
REMARK    1  A    between atoms: N_3  and  C_4 
REMARK    2  A    between atoms: C_7  and  C_8 
REMARK       I    between atoms: C_8  and  N_9 
REMARK    3  A    between atoms: N_9  and  C_10 
REMARK    4  A    between atoms: C_11  and  N_12 
REMARK    5  A    between atoms: C_15  and  O_16 
ROOT
HETATM    1  C   UNL     1       5.081  28.959  54.918  1.00  0.00     0.256 C 
HETATM    2  N   UNL     1       5.964  28.503  53.973  1.00  0.00    -0.321 N 
HETATM    3  O   UNL     1       3.861  28.900  54.920  1.00  0.00    -0.267 OA
HETATM    4  H   UNL     1       6.963  28.616  54.132  1.00  0.00     0.169 HD
ENDROOT
BRANCH   2   5
HETATM    5  C   UNL     1       5.693  27.828  52.765  1.00  0.00     0.056 A 
HETATM    6  C   UNL     1       5.922  26.426  52.779  1.00  0.00     0.037 A 
HETATM    7  C   UNL     1       5.636  25.691  51.620  1.00  0.00     0.026 A 
HETATM    8  C   UNL     1       5.139  26.326  50.478  1.00  0.00     0.002 A 
HETATM    9  C   UNL     1       4.926  27.702  50.478  1.00  0.00     0.002 A 
HETATM   10  C   UNL     1       5.204  28.456  51.620  1.00  0.00     0.031 A 
BRANCH   6  11
HETATM   11  N   UNL     1       6.468  25.840  53.958  1.00  0.00    -0.281 NA
HETATM   12  C   UNL     1       7.610  24.967  53.617  1.00  0.00     0.098 C 
HETATM   13  C   UNL     1       8.361  24.625  54.905  1.00  0.00     0.046 C 
HETATM   14  C   UNL     1       7.434  23.993  55.942  1.00  0.00     0.120 C 
HETATM   15  C   UNL     1       6.171  24.826  56.157  1.00  0.00     0.046 C 
HETATM   16  C   UNL     1       5.492  25.160  54.829  1.00  0.00     0.098 C 
BRANCH  14  17
HETATM   17  O   UNL     1       7.062  22.680  55.522  1.00  0.00    -0.395 OA
HETATM   18  H   UNL     1       6.720  22.209  56.302  1.00  0.00     0.210 HD
ENDBRANCH  14  17
ENDBRANCH   6  11
ENDBRANCH   2   5
BRANCH   1  19
HETATM   19  C   UNL     1       5.761  29.586  56.068  1.00  0.00     0.032 A 
HETATM   20  C   UNL     1       6.694  28.843  56.790  1.00  0.00     0.019 A 
HETATM   21  C   UNL     1       7.374  29.443  57.851  1.00  0.00     0.031 A 
HETATM   22  C   UNL     1       7.122  30.782  58.189  1.00  0.00     0.039 A 
HETATM   23  C   UNL     1       6.172  31.514  57.461  1.00  0.00     0.031 A 
HETATM   24  C   UNL     1       5.491  30.916  56.397  1.00  0.00     0.019 A 
BRANCH  22  25
HETATM   25  N   UNL     1       7.832  31.386  59.272  1.00  0.00    -0.320 N 
HETATM   26  C   UNL     1       9.219  31.526  59.366  1.00  0.00     0.013 A 
HETATM   27  C   UNL     1      10.187  31.201  58.278  1.00  0.00     0.068 C 
HETATM   28  C   UNL     1       9.517  32.094  60.589  1.00  0.00     0.027 A 
HETATM   29  C   UNL     1       8.306  32.364  61.243  1.00  0.00     0.027 A 
HETATM   30  C   UNL     1       7.275  31.936  60.428  1.00  0.00     0.013 A 
HETATM   31  C   UNL     1       5.822  31.951  60.761  1.00  0.00     0.068 C 
ENDBRANCH  22  25
ENDBRANCH   1  19
TORSDOF 5
ENDMDL
MODEL 8
REMARK VINA RESULT:      -8.1      5.351      9.607
REMARK  5 active torsions:
REMARK  status: ('A' for Active; 'I' for Inactive)
REMARK    1  A    between atoms: N_3  and  C_4 
REMARK    2  A    between atoms: C_7  and  C_8 
REMARK       I    between atoms: C_8  and  N_9 
REMARK    3  A    between atoms: N_9  and  C_10 
REMARK    4  A    between atoms: C_11  and  N_12 
REMARK    5  A    between atoms: C_15  and  O_16 
ROOT
HETATM    1  C   UNL     1       5.302  25.292  52.457  1.00  0.00     0.256 C 
HETATM    2  N   UNL     1       6.648  25.315  52.721  1.00  0.00    -0.321 N 
HETATM    3  O   UNL     1       4.461  24.487  52.828  1.00  0.00    -0.267 OA
HETATM    4  H   UNL     1       7.214  26.073  52.347  1.00  0.00     0.169 HD
ENDROOT
BRANCH   2   5
HETATM    5  C   UNL     1       7.408  24.425  53.508  1.00  0.00     0.056 A 
HETATM    6  C   UNL     1       7.471  24.729  54.894  1.00  0.00     0.037 A 
HETATM    7  C   UNL     1       8.181  23.861  55.736  1.00  0.00     0.026 A 
HETATM    8  C   UNL     1       8.812  22.726  55.221  1.00  0.00     0.002 A 
HETATM    9  C   UNL     1       8.747  22.446  53.858  1.00  0.00     0.002 A 
HETATM   10  C   UNL     1       8.048  23.295  52.999  1.00  0.00     0.031 A 
BRANCH   6  11
HETATM   11  N   UNL     1       6.842  25.921  55.356  1.00  0.00    -0.281 NA
HETATM   12  C   UNL     1       7.800  27.046  55.343  1.00  0.00     0.098 C 
HETATM   13  C   UNL     1       7.021  28.350  55.525  1.00  0.00     0.046 C 
HETATM   14  C   UNL     1       6.172  28.321  56.795  1.00  0.00     0.120 C 
HETATM   15  C   UNL     1       5.310  27.062  56.874  1.00  0.00     0.046 C 
HETATM   16  C   UNL     1       6.145  25.802  56.650  1.00  0.00     0.098 C 
BRANCH  14  17
HETATM   17  O   UNL     1       7.016  28.382  57.944  1.00  0.00    -0.395 OA
HETATM   18  H   UNL     1       6.667  27.753  58.598  1.00  0.00     0.210 HD
ENDBRANCH  14  17
ENDBRANCH   6  11
ENDBRANCH   2   5
BRANCH   1  19
HETATM   19  C   UNL     1       4.875  26.426  51.616  1.00  0.00     0.032 A 
HETATM   20  C   UNL     1       4.408  27.587  52.230  1.00  0.00     0.019 A 
HETATM   21  C   UNL     1       4.045  28.681  51.442  1.00  0.00     0.031 A 
HETATM   22  C   UNL     1       4.146  28.612  50.043  1.00  0.00     0.039 A 
HETATM   23  C   UNL     1       4.605  27.433  49.438  1.00  0.00     0.031 A 
HETATM   24  C   UNL     1       4.972  26.338  50.226  1.00  0.00     0.019 A 
BRANCH  22  25
HETATM   25  N   UNL     1       3.777  29.742  49.250  1.00  0.00    -0.320 N 
HETATM   26  C   UNL     1       4.550  30.888  49.047  1.00  0.00     0.013 A 
HETATM   27  C   UNL     1       5.960  31.062  49.506  1.00  0.00     0.068 C 
HETATM   28  C   UNL     1       3.821  31.775  48.281  1.00  0.00     0.027 A 
HETATM   29  C   UNL     1       2.603  31.160  47.954  1.00  0.00     0.027 A 
HETATM   30  C   UNL     1       2.585  29.909  48.543  1.00  0.00     0.013 A 
HETATM   31  C   UNL     1       1.450  28.942  48.527  1.00  0.00     0.068 C 
ENDBRANCH  22  25
ENDBRANCH   1  19
TORSDOF 5
ENDMDL
MODEL 9
REMARK VINA RESULT:      -8.1      1.751      4.152
REMARK  5 active torsions:
REMARK  status: ('A' for Active; 'I' for Inactive)
REMARK    1  A    between atoms: N_3  and  C_4 
REMARK    2  A    between atoms: C_7  and  C_8 
REMARK       I    between atoms: C_8  and  N_9 
REMARK    3  A    between atoms: N_9  and  C_10 
REMARK    4  A    between atoms: C_11  and  N_12 
REMARK    5  A    between atoms: C_15  and  O_16 
ROOT
HETATM    1  C   UNL     1       4.078  31.420  58.035  1.00  0.00     0.256 C 
HETATM    2  N   UNL     1       4.703  31.675  59.229  1.00  0.00    -0.321 N 
HETATM    3  O   UNL     1       3.185  32.050  57.487  1.00  0.00    -0.267 OA
HETATM    4  H   UNL     1       5.448  31.056  59.540  1.00  0.00     0.169 HD
ENDROOT
BRANCH   2   5
HETATM    5  C   UNL     1       4.491  32.742  60.126  1.00  0.00     0.056 A 
HETATM    6  C   UNL     1       5.530  32.970  61.069  1.00  0.00     0.037 A 
HETATM    7  C   UNL     1       5.396  34.039  61.964  1.00  0.00     0.026 A 
HETATM    8  C   UNL     1       4.265  34.861  61.930  1.00  0.00     0.002 A 
HETATM    9  C   UNL     1       3.252  34.620  61.005  1.00  0.00     0.002 A 
HETATM   10  C   UNL     1       3.362  33.560  60.103  1.00  0.00     0.031 A 
BRANCH   6  11
HETATM   11  N   UNL     1       6.640  32.075  61.083  1.00  0.00    -0.281 NA
HETATM   12  C   UNL     1       7.283  32.075  62.413  1.00  0.00     0.098 C 
HETATM   13  C   UNL     1       8.242  30.887  62.488  1.00  0.00     0.046 C 
HETATM   14  C   UNL     1       9.260  30.916  61.349  1.00  0.00     0.120 C 
HETATM   15  C   UNL     1       8.584  31.089  59.988  1.00  0.00     0.046 C 
HETATM   16  C   UNL     1       7.616  32.271  59.995  1.00  0.00     0.098 C 
BRANCH  14  17
HETATM   17  O   UNL     1      10.183  31.986  61.551  1.00  0.00    -0.395 OA
HETATM   18  H   UNL     1      11.078  31.606  61.539  1.00  0.00     0.210 HD
ENDBRANCH  14  17
ENDBRANCH   6  11
ENDBRANCH   2   5
BRANCH   1  19
HETATM   19  C   UNL     1       4.609  30.218  57.367  1.00  0.00     0.032 A 
HETATM   20  C   UNL     1       5.864  29.735  57.736  1.00  0.00     0.019 A 
HETATM   21  C   UNL     1       6.353  28.571  57.141  1.00  0.00     0.031 A 
HETATM   22  C   UNL     1       5.590  27.892  56.177  1.00  0.00     0.039 A 
HETATM   23  C   UNL     1       4.335  28.396  55.806  1.00  0.00     0.031 A 
HETATM   24  C   UNL     1       3.841  29.560  56.403  1.00  0.00     0.019 A 
BRANCH  22  25
HETATM   25  N   UNL     1       6.100  26.698  55.582  1.00  0.00    -0.320 N 
HETATM   26  C   UNL     1       5.882  25.396  56.040  1.00  0.00     0.013 A 
HETATM   27  C   UNL     1       4.953  25.023  57.146  1.00  0.00     0.068 C 
HETATM   28  C   UNL     1       6.597  24.527  55.240  1.00  0.00     0.027 A 
HETATM   29  C   UNL     1       7.224  25.284  54.238  1.00  0.00     0.027 A 
HETATM   30  C   UNL     1       6.909  26.614  54.447  1.00  0.00     0.013 A 
HETATM   31  C   UNL     1       7.427  27.777  53.670  1.00  0.00     0.068 C 
ENDBRANCH  22  25
ENDBRANCH   1  19
TORSDOF 5
ENDMDL
MODEL 10
REMARK VINA RESULT:      -7.5      5.227      7.338
REMARK  5 active torsions:
REMARK  status: ('A' for Active; 'I' for Inactive)
REMARK    1  A    between atoms: N_3  and  C_4 
REMARK    2  A    between atoms: C_7  and  C_8 
REMARK       I    between atoms: C_8  and  N_9 
REMARK    3  A    between atoms: N_9  and  C_10 
REMARK    4  A    between atoms: C_11  and  N_12 
REMARK    5  A    between atoms: C_15  and  O_16 
ROOT
HETATM    1  C   UNL     1       5.214  29.636  55.471  1.00  0.00     0.256 C 
HETATM    2  N   UNL     1       4.266  29.792  54.491  1.00  0.00    -0.321 N 
HETATM    3  O   UNL     1       5.550  30.421  56.345  1.00  0.00    -0.267 OA
HETATM    4  H   UNL     1       4.092  29.027  53.844  1.00  0.00     0.169 HD
ENDROOT
BRANCH   2   5
HETATM    5  C   UNL     1       3.419  30.893  54.250  1.00  0.00     0.056 A 
HETATM    6  C   UNL     1       3.277  31.274  52.889  1.00  0.00     0.037 A 
HETATM    7  C   UNL     1       2.419  32.338  52.580  1.00  0.00     0.026 A 
HETATM    8  C   UNL     1       1.723  33.010  53.590  1.00  0.00     0.002 A 
HETATM    9  C   UNL     1       1.879  32.629  54.920  1.00  0.00     0.002 A 
HETATM   10  C   UNL     1       2.728  31.572  55.253  1.00  0.00     0.031 A 
BRANCH   6  11
HETATM   11  N   UNL     1       4.042  30.580  51.907  1.00  0.00    -0.281 NA
HETATM   12  C   UNL     1       4.690  31.538  50.988  1.00  0.00     0.098 C 
HETATM   13  C   UNL     1       5.744  30.790  50.170  1.00  0.00     0.046 C 
HETATM   14  C   UNL     1       5.138  29.595  49.435  1.00  0.00     0.120 C 
HETATM   15  C   UNL     1       4.325  28.703  50.374  1.00  0.00     0.046 C 
HETATM   16  C   UNL     1       3.318  29.519  51.183  1.00  0.00     0.098 C 
BRANCH  14  17
HETATM   17  O   UNL     1       4.293  30.054  48.380  1.00  0.00    -0.395 OA
HETATM   18  H   UNL     1       3.975  30.940  48.623  1.00  0.00     0.210 HD
ENDBRANCH  14  17
ENDBRANCH   6  11
ENDBRANCH   2   5
BRANCH   1  19
HETATM   19  C   UNL     1       5.870  28.316  55.415  1.00  0.00     0.032 A 
HETATM   20  C   UNL     1       5.249  27.224  56.017  1.00  0.00     0.019 A 
HETATM   21  C   UNL     1       5.842  25.963  55.929  1.00  0.00     0.031 A 
HETATM   22  C   UNL     1       7.054  25.796  55.240  1.00  0.00     0.039 A 
HETATM   23  C   UNL     1       7.674  26.907  54.649  1.00  0.00     0.031 A 
HETATM   24  C   UNL     1       7.081  28.169  54.734  1.00  0.00     0.019 A 
BRANCH  22  25
HETATM   25  N   UNL     1       7.645  24.499  55.151  1.00  0.00    -0.320 N 
HETATM   26  C   UNL     1       7.468  23.587  54.106  1.00  0.00     0.013 A 
HETATM   27  C   UNL     1       6.748  23.876  52.832  1.00  0.00     0.068 C 
HETATM   28  C   UNL     1       8.146  22.426  54.421  1.00  0.00     0.027 A 
HETATM   29  C   UNL     1       8.798  22.630  55.647  1.00  0.00     0.027 A 
HETATM   30  C   UNL     1       8.496  23.905  56.085  1.00  0.00     0.013 A 
HETATM   31  C   UNL     1       8.908  24.514  57.383  1.00  0.00     0.068 C 
ENDBRANCH  22  25
ENDBRANCH   1  19
TORSDOF 5
ENDMDL
