MODEL 1
REMARK VINA RESULT:      -8.8      0.000      0.000
REMARK  7 active torsions:
REMARK  status: ('A' for Active; 'I' for Inactive)
REMARK    1  A    between atoms: N_3  and  C_4 
REMARK    2  A    between atoms: C_12  and  C_13 
REMARK       I    between atoms: C_13  and  N_14 
REMARK    3  A    between atoms: N_14  and  C_15 
REMARK    4  A    between atoms: C_15  and  C_16 
REMARK    5  A    between atoms: C_16  and  O_17 
REMARK    6  A    between atoms: C_16  and  C_18 
REMARK    7  A    between atoms: C_21  and  O_22 
ROOT
HETATM    1  C   UNL     1       5.664  27.194  55.893  1.00  0.00     0.255 C 
HETATM    2  N   UNL     1       6.067  27.236  54.580  1.00  0.00    -0.350 N 
HETATM    3  O   UNL     1       5.097  26.214  56.368  1.00  0.00    -0.268 OA
HETATM    4  H   UNL     1       6.513  28.061  54.207  1.00  0.00     0.163 HD
ENDROOT
BRANCH   2   5
HETATM    5  C   UNL     1       5.759  26.150  53.640  1.00  0.00     0.114 C 
HETATM    6  C   UNL     1       4.785  26.663  52.576  1.00  0.00     0.035 C 
BRANCH   5   7
HETATM    7  C   UNL     1       7.073  25.569  53.046  1.00  0.00     0.173 C 
BRANCH   7   8
HETATM    8  O   UNL     1       7.059  25.629  51.616  1.00  0.00    -0.389 OA
HETATM    9  H   UNL     1       7.971  25.813  51.333  1.00  0.00     0.210 HD
ENDBRANCH   7   8
BRANCH   7  10
HETATM   10  C   UNL     1       7.396  24.172  53.542  1.00  0.00    -0.028 A 
HETATM   11  C   UNL     1       7.308  23.892  54.913  1.00  0.00     0.012 A 
HETATM   12  C   UNL     1       7.571  22.609  55.395  1.00  0.00     0.037 A 
HETATM   13  C   UNL     1       7.918  21.577  54.523  1.00  0.00     0.068 A 
HETATM   14  C   UNL     1       8.013  21.845  53.157  1.00  0.00     0.037 A 
HETATM   15  C   UNL     1       7.755  23.133  52.671  1.00  0.00     0.012 A 
BRANCH  13  16
HETATM   16  O   UNL     1       8.137  20.370  55.127  1.00  0.00    -0.356 OA
HETATM   17  C   UNL     1       8.898  20.381  56.326  1.00  0.00     0.210 C 
ENDBRANCH  13  16
ENDBRANCH   7  10
ENDBRANCH   5   7
ENDBRANCH   2   5
BRANCH   1  18
HETATM   18  C   UNL     1       5.992  28.343  56.726  1.00  0.00     0.075 C 
HETATM   19  C   UNL     1       7.159  28.744  57.375  1.00  0.00     0.051 C 
HETATM   20  C   UNL     1       8.536  28.182  57.359  1.00  0.00     0.071 C 
HETATM   21  N   UNL     1       6.826  29.895  58.100  1.00  0.00    -0.220 N 
HETATM   22  N   UNL     1       5.570  30.325  57.795  1.00  0.00    -0.177 NA
HETATM   23  C   UNL     1       5.078  29.383  57.000  1.00  0.00     0.158 C 
BRANCH  21  24
HETATM   24  C   UNL     1       7.609  30.612  59.071  1.00  0.00     0.150 A 
HETATM   25  N   UNL     1       8.628  29.976  59.711  1.00  0.00    -0.241 NA
HETATM   26  C   UNL     1       9.324  30.681  60.630  1.00  0.00     0.119 A 
HETATM   27  C   UNL     1       9.062  32.001  60.952  1.00  0.00     0.019 A 
HETATM   28  C   UNL     1       8.019  32.641  60.298  1.00  0.00     0.005 A 
HETATM   29  C   UNL     1       7.278  31.940  59.347  1.00  0.00     0.052 A 
ENDBRANCH  21  24
ENDBRANCH   1  18
TORSDOF 7
ENDMDL
MODEL 2
REMARK VINA RESULT:      -8.7      1.538      1.963
REMARK  7 active torsions:
REMARK  status: ('A' for Active; 'I' for Inactive)
REMARK    1  A    between atoms: N_3  and  C_4 
REMARK    2  A    between atoms: C_12  and  C_13 
REMARK       I    between atoms: C_13  and  N_14 
REMARK    3  A    between atoms: N_14  and  C_15 
REMARK    4  A    between atoms: C_15  and  C_16 
REMARK    5  A    between atoms: C_16  and  O_17 
REMARK    6  A    between atoms: C_16  and  C_18 
REMARK    7  A    between atoms: C_21  and  O_22 
ROOT
HETATM    1  C   UNL     1       5.512  27.874  55.077  1.00  0.00     0.255 C 
HETATM    2  N   UNL     1       6.077  27.263  53.983  1.00  0.00    -0.350 N 
HETATM    3  O   UNL     1       4.301  28.055  55.166  1.00  0.00    -0.268 OA
HETATM    4  H   UNL     1       7.077  27.143  53.922  1.00  0.00     0.163 HD
ENDROOT
BRANCH   2   5
HETATM    5  C   UNL     1       5.278  26.876  52.814  1.00  0.00     0.114 C 
HETATM    6  C   UNL     1       5.927  27.440  51.547  1.00  0.00     0.035 C 
BRANCH   5   7
HETATM    7  C   UNL     1       5.095  25.332  52.779  1.00  0.00     0.173 C 
BRANCH   7   8
HETATM    8  O   UNL     1       3.857  24.949  53.387  1.00  0.00    -0.389 OA
HETATM    9  H   UNL     1       3.308  25.751  53.439  1.00  0.00     0.210 HD
ENDBRANCH   7   8
BRANCH   7  10
HETATM   10  C   UNL     1       6.265  24.570  53.371  1.00  0.00    -0.028 A 
HETATM   11  C   UNL     1       6.247  24.232  54.731  1.00  0.00     0.012 A 
HETATM   12  C   UNL     1       7.296  23.505  55.298  1.00  0.00     0.037 A 
HETATM   13  C   UNL     1       8.379  23.093  54.521  1.00  0.00     0.068 A 
HETATM   14  C   UNL     1       8.410  23.428  53.167  1.00  0.00     0.037 A 
HETATM   15  C   UNL     1       7.361  24.162  52.597  1.00  0.00     0.012 A 
BRANCH  13  16
HETATM   16  O   UNL     1       9.329  22.381  55.200  1.00  0.00    -0.356 OA
HETATM   17  C   UNL     1       8.864  21.424  56.141  1.00  0.00     0.210 C 
ENDBRANCH  13  16
ENDBRANCH   7  10
ENDBRANCH   5   7
ENDBRANCH   2   5
BRANCH   1  18
HETATM   18  C   UNL     1       6.406  28.248  56.164  1.00  0.00     0.075 C 
HETATM   19  C   UNL     1       6.596  29.434  56.872  1.00  0.00     0.051 C 
HETATM   20  C   UNL     1       5.864  30.729  56.836  1.00  0.00     0.071 C 
HETATM   21  N   UNL     1       7.669  29.202  57.742  1.00  0.00    -0.220 N 
HETATM   22  N   UNL     1       8.035  27.890  57.735  1.00  0.00    -0.177 NA
HETATM   23  C   UNL     1       7.297  27.342  56.777  1.00  0.00     0.158 C 
BRANCH  21  24
HETATM   24  C   UNL     1       8.380  30.137  58.572  1.00  0.00     0.150 A 
HETATM   25  N   UNL     1       7.893  30.445  59.805  1.00  0.00    -0.241 NA
HETATM   26  C   UNL     1       8.583  31.344  60.541  1.00  0.00     0.119 A 
HETATM   27  C   UNL     1       9.747  31.961  60.117  1.00  0.00     0.019 A 
HETATM   28  C   UNL     1      10.235  31.644  58.857  1.00  0.00     0.005 A 
HETATM   29  C   UNL     1       9.544  30.724  58.069  1.00  0.00     0.052 A 
ENDBRANCH  21  24
ENDBRANCH   1  18
TORSDOF 7
ENDMDL
MODEL 3
REMARK VINA RESULT:      -8.6      4.897     10.896
REMARK  7 active torsions:
REMARK  status: ('A' for Active; 'I' for Inactive)
REMARK    1  A    between atoms: N_3  and  C_4 
REMARK    2  A    between atoms: C_12  and  C_13 
REMARK       I    between atoms: C_13  and  N_14 
REMARK    3  A    between atoms: N_14  and  C_15 
REMARK    4  A    between atoms: C_15  and  C_16 
REMARK    5  A    between atoms: C_16  and  O_17 
REMARK    6  A    between atoms: C_16  and  C_18 
REMARK    7  A    between atoms: C_21  and  O_22 
ROOT
HETATM    1  C   UNL     1       7.889  31.743  59.604  1.00  0.00     0.255 C 
HETATM    2  N   UNL     1       6.806  31.535  60.423  1.00  0.00    -0.350 N 
HETATM    3  O   UNL     1       8.607  32.733  59.714  1.00  0.00    -0.268 OA
HETATM    4  H   UNL     1       6.219  30.724  60.301  1.00  0.00     0.163 HD
ENDROOT
BRANCH   2   5
HETATM    5  C   UNL     1       6.384  32.530  61.417  1.00  0.00     0.114 C 
HETATM    6  C   UNL     1       5.329  33.450  60.797  1.00  0.00     0.035 C 
BRANCH   5   7
HETATM    7  C   UNL     1       5.900  31.820  62.712  1.00  0.00     0.173 C 
BRANCH   7   8
HETATM    8  O   UNL     1       4.611  31.226  62.519  1.00  0.00    -0.389 OA
HETATM    9  H   UNL     1       3.966  31.954  62.499  1.00  0.00     0.210 HD
ENDBRANCH   7   8
BRANCH   7  10
HETATM   10  C   UNL     1       5.923  32.712  63.939  1.00  0.00    -0.028 A 
HETATM   11  C   UNL     1       4.713  33.150  64.493  1.00  0.00     0.012 A 
HETATM   12  C   UNL     1       4.702  33.949  65.639  1.00  0.00     0.037 A 
HETATM   13  C   UNL     1       5.895  34.319  66.260  1.00  0.00     0.068 A 
HETATM   14  C   UNL     1       7.106  33.893  65.715  1.00  0.00     0.037 A 
HETATM   15  C   UNL     1       7.120  33.096  64.562  1.00  0.00     0.012 A 
BRANCH  13  16
HETATM   16  O   UNL     1       5.739  35.092  67.377  1.00  0.00    -0.356 OA
HETATM   17  C   UNL     1       6.364  34.634  68.568  1.00  0.00     0.210 C 
ENDBRANCH  13  16
ENDBRANCH   7  10
ENDBRANCH   5   7
ENDBRANCH   2   5
BRANCH   1  18
HETATM   18  C   UNL     1       8.194  30.705  58.629  1.00  0.00     0.075 C 
HETATM   19  C   UNL     1       7.396  29.906  57.811  1.00  0.00     0.051 C 
HETATM   20  C   UNL     1       5.929  29.906  57.565  1.00  0.00     0.071 C 
HETATM   21  N   UNL     1       8.268  29.026  57.155  1.00  0.00    -0.220 N 
HETATM   22  N   UNL     1       9.568  29.354  57.389  1.00  0.00    -0.177 NA
HETATM   23  C   UNL     1       9.511  30.334  58.284  1.00  0.00     0.158 C 
BRANCH  21  24
HETATM   24  C   UNL     1       7.955  27.889  56.332  1.00  0.00     0.150 A 
HETATM   25  N   UNL     1       7.686  28.072  55.010  1.00  0.00    -0.241 NA
HETATM   26  C   UNL     1       7.378  26.978  54.280  1.00  0.00     0.119 A 
HETATM   27  C   UNL     1       7.323  25.694  54.794  1.00  0.00     0.019 A 
HETATM   28  C   UNL     1       7.595  25.517  56.144  1.00  0.00     0.005 A 
HETATM   29  C   UNL     1       7.912  26.626  56.927  1.00  0.00     0.052 A 
ENDBRANCH  21  24
ENDBRANCH   1  18
TORSDOF 7
ENDMDL
MODEL 4
REMARK VINA RESULT:      -8.6      2.682      8.716
REMARK  7 active torsions:
REMARK  status: ('A' for Active; 'I' for Inactive)
REMARK    1  A    between atoms: N_3  and  C_4 
REMARK    2  A    between atoms: C_12  and  C_13 
REMARK       I    between atoms: C_13  and  N_14 
REMARK    3  A    between atoms: N_14  and  C_15 
REMARK    4  A    between atoms: C_15  and  C_16 
REMARK    5  A    between atoms: C_16  and  O_17 
REMARK    6  A    between atoms: C_16  and  C_18 
REMARK    7  A    between atoms: C_21  and  O_22 
ROOT
HETATM    1  C   UNL     1       7.166  27.518  54.247  1.00  0.00     0.255 C 
HETATM    2  N   UNL     1       6.100  27.732  55.087  1.00  0.00    -0.350 N 
HETATM    3  O   UNL     1       7.877  28.438  53.852  1.00  0.00    -0.268 OA
HETATM    4  H   UNL     1       5.518  26.963  55.383  1.00  0.00     0.163 HD
ENDROOT
BRANCH   2   5
HETATM    5  C   UNL     1       5.688  29.084  55.487  1.00  0.00     0.114 C 
HETATM    6  C   UNL     1       4.502  29.527  54.625  1.00  0.00     0.035 C 
BRANCH   5   7
HETATM    7  C   UNL     1       5.392  29.123  57.012  1.00  0.00     0.173 C 
BRANCH   7   8
HETATM    8  O   UNL     1       4.010  29.404  57.259  1.00  0.00    -0.389 OA
HETATM    9  H   UNL     1       3.496  28.825  56.670  1.00  0.00     0.210 HD
ENDBRANCH   7   8
BRANCH   7  10
HETATM   10  C   UNL     1       6.298  30.067  57.781  1.00  0.00    -0.028 A 
HETATM   11  C   UNL     1       7.653  29.746  57.934  1.00  0.00     0.012 A 
HETATM   12  C   UNL     1       8.517  30.609  58.611  1.00  0.00     0.037 A 
HETATM   13  C   UNL     1       8.051  31.813  59.141  1.00  0.00     0.068 A 
HETATM   14  C   UNL     1       6.703  32.141  58.999  1.00  0.00     0.037 A 
HETATM   15  C   UNL     1       5.833  31.273  58.325  1.00  0.00     0.012 A 
BRANCH  13  16
HETATM   16  O   UNL     1       9.004  32.566  59.769  1.00  0.00    -0.356 OA
HETATM   17  C   UNL     1       9.621  31.997  60.916  1.00  0.00     0.210 C 
ENDBRANCH  13  16
ENDBRANCH   7  10
ENDBRANCH   5   7
ENDBRANCH   2   5
BRANCH   1  18
HETATM   18  C   UNL     1       7.462  26.138  53.888  1.00  0.00     0.075 C 
HETATM   19  C   UNL     1       7.442  24.943  54.606  1.00  0.00     0.051 C 
HETATM   20  C   UNL     1       7.000  24.637  55.994  1.00  0.00     0.071 C 
HETATM   21  N   UNL     1       7.917  23.955  53.734  1.00  0.00    -0.220 N 
HETATM   22  N   UNL     1       8.061  24.440  52.470  1.00  0.00    -0.177 NA
HETATM   23  C   UNL     1       7.813  25.740  52.580  1.00  0.00     0.158 C 
BRANCH  21  24
HETATM   24  C   UNL     1       8.255  22.586  54.016  1.00  0.00     0.150 A 
HETATM   25  N   UNL     1       8.920  22.283  55.165  1.00  0.00    -0.241 NA
HETATM   26  C   UNL     1       9.236  20.987  55.378  1.00  0.00     0.119 A 
HETATM   27  C   UNL     1       8.922  19.959  54.506  1.00  0.00     0.019 A 
HETATM   28  C   UNL     1       8.247  20.278  53.336  1.00  0.00     0.005 A 
HETATM   29  C   UNL     1       7.911  21.607  53.082  1.00  0.00     0.052 A 
ENDBRANCH  21  24
ENDBRANCH   1  18
TORSDOF 7
ENDMDL
MODEL 5
REMARK VINA RESULT:      -8.5      6.577     12.442
REMARK  7 active torsions:
REMARK  status: ('A' for Active; 'I' for Inactive)
REMARK    1  A    between atoms: N_3  and  C_4 
REMARK    2  A    between atoms: C_12  and  C_13 
REMARK       I    between atoms: C_13  and  N_14 
REMARK    3  A    between atoms: N_14  and  C_15 
REMARK    4  A    between atoms: C_15  and  C_16 
REMARK    5  A    between atoms: C_16  and  O_17 
REMARK    6  A    between atoms: C_16  and  C_18 
REMARK    7  A    between atoms: C_21  and  O_22 
ROOT
HETATM    1  C   UNL     1       7.301  33.034  62.634  1.00  0.00     0.255 C 
HETATM    2  N   UNL     1       6.227  33.885  62.741  1.00  0.00    -0.350 N 
HETATM    3  O   UNL     1       8.030  32.783  63.589  1.00  0.00    -0.268 OA
HETATM    4  H   UNL     1       5.655  34.092  61.937  1.00  0.00     0.163 HD
ENDROOT
BRANCH   2   5
HETATM    5  C   UNL     1       5.943  34.620  63.981  1.00  0.00     0.114 C 
HETATM    6  C   UNL     1       5.176  35.902  63.644  1.00  0.00     0.035 C 
BRANCH   5   7
HETATM    7  C   UNL     1       5.197  33.701  64.988  1.00  0.00     0.173 C 
BRANCH   7   8
HETATM    8  O   UNL     1       3.783  33.740  64.766  1.00  0.00    -0.389 OA
HETATM    9  H   UNL     1       3.429  34.452  65.327  1.00  0.00     0.210 HD
ENDBRANCH   7   8
BRANCH   7  10
HETATM   10  C   UNL     1       5.541  33.985  66.438  1.00  0.00    -0.028 A 
HETATM   11  C   UNL     1       6.880  34.188  66.798  1.00  0.00     0.012 A 
HETATM   12  C   UNL     1       7.225  34.481  68.120  1.00  0.00     0.037 A 
HETATM   13  C   UNL     1       6.243  34.585  69.106  1.00  0.00     0.068 A 
HETATM   14  C   UNL     1       4.908  34.380  68.759  1.00  0.00     0.037 A 
HETATM   15  C   UNL     1       4.560  34.081  67.435  1.00  0.00     0.012 A 
BRANCH  13  16
HETATM   16  O   UNL     1       6.718  34.886  70.352  1.00  0.00    -0.356 OA
HETATM   17  C   UNL     1       6.170  34.157  71.442  1.00  0.00     0.210 C 
ENDBRANCH  13  16
ENDBRANCH   7  10
ENDBRANCH   5   7
ENDBRANCH   2   5
BRANCH   1  18
HETATM   18  C   UNL     1       7.509  32.386  61.346  1.00  0.00     0.075 C 
HETATM   19  C   UNL     1       8.387  31.393  60.913  1.00  0.00     0.051 C 
HETATM   20  C   UNL     1       9.367  30.555  61.654  1.00  0.00     0.071 C 
HETATM   21  N   UNL     1       8.171  31.256  59.535  1.00  0.00    -0.220 N 
HETATM   22  N   UNL     1       7.092  31.980  59.130  1.00  0.00    -0.177 NA
HETATM   23  C   UNL     1       6.725  32.666  60.206  1.00  0.00     0.158 C 
BRANCH  21  24
HETATM   24  C   UNL     1       8.923  30.496  58.573  1.00  0.00     0.150 A 
HETATM   25  N   UNL     1       8.447  29.293  58.150  1.00  0.00    -0.241 NA
HETATM   26  C   UNL     1       9.196  28.604  57.261  1.00  0.00     0.119 A 
HETATM   27  C   UNL     1      10.407  29.049  56.760  1.00  0.00     0.019 A 
HETATM   28  C   UNL     1      10.886  30.275  57.200  1.00  0.00     0.005 A 
HETATM   29  C   UNL     1      10.140  31.009  58.120  1.00  0.00     0.052 A 
ENDBRANCH  21  24
ENDBRANCH   1  18
TORSDOF 7
ENDMDL
MODEL 6
REMARK VINA RESULT:      -8.4      3.275      5.228
REMARK  7 active torsions:
REMARK  status: ('A' for Active; 'I' for Inactive)
REMARK    1  A    between atoms: N_3  and  C_4 
REMARK    2  A    between atoms: C_12  and  C_13 
REMARK       I    between atoms: C_13  and  N_14 
REMARK    3  A    between atoms: N_14  and  C_15 
REMARK    4  A    between atoms: C_15  and  C_16 
REMARK    5  A    between atoms: C_16  and  O_17 
REMARK    6  A    between atoms: C_16  and  C_18 
REMARK    7  A    between atoms: C_21  and  O_22 
ROOT
HETATM    1  C   UNL     1       8.196  30.901  59.198  1.00  0.00     0.255 C 
HETATM    2  N   UNL     1       7.569  29.811  58.645  1.00  0.00    -0.350 N 
HETATM    3  O   UNL     1       8.914  31.644  58.534  1.00  0.00    -0.268 OA
HETATM    4  H   UNL     1       7.000  29.203  59.214  1.00  0.00     0.163 HD
ENDROOT
BRANCH   2   5
HETATM    5  C   UNL     1       7.794  29.413  57.249  1.00  0.00     0.114 C 
HETATM    6  C   UNL     1       9.096  28.613  57.155  1.00  0.00     0.035 C 
BRANCH   5   7
HETATM    7  C   UNL     1       6.556  28.645  56.706  1.00  0.00     0.173 C 
BRANCH   7   8
HETATM    8  O   UNL     1       5.460  28.728  57.623  1.00  0.00    -0.389 OA
HETATM    9  H   UNL     1       5.451  27.896  58.127  1.00  0.00     0.210 HD
ENDBRANCH   7   8
BRANCH   7  10
HETATM   10  C   UNL     1       6.855  27.208  56.324  1.00  0.00    -0.028 A 
HETATM   11  C   UNL     1       6.813  26.212  57.309  1.00  0.00     0.012 A 
HETATM   12  C   UNL     1       7.054  24.876  56.982  1.00  0.00     0.037 A 
HETATM   13  C   UNL     1       7.333  24.504  55.666  1.00  0.00     0.068 A 
HETATM   14  C   UNL     1       7.382  25.487  54.678  1.00  0.00     0.037 A 
HETATM   15  C   UNL     1       7.146  26.829  55.005  1.00  0.00     0.012 A 
BRANCH  13  16
HETATM   16  O   UNL     1       7.539  23.165  55.484  1.00  0.00    -0.356 OA
HETATM   17  C   UNL     1       8.824  22.768  55.027  1.00  0.00     0.210 C 
ENDBRANCH  13  16
ENDBRANCH   7  10
ENDBRANCH   5   7
ENDBRANCH   2   5
BRANCH   1  18
HETATM   18  C   UNL     1       7.928  31.181  60.601  1.00  0.00     0.075 C 
HETATM   19  C   UNL     1       6.936  31.914  61.251  1.00  0.00     0.051 C 
HETATM   20  C   UNL     1       5.717  32.593  60.735  1.00  0.00     0.071 C 
HETATM   21  N   UNL     1       7.263  31.892  62.613  1.00  0.00    -0.220 N 
HETATM   22  N   UNL     1       8.300  31.043  62.858  1.00  0.00    -0.177 NA
HETATM   23  C   UNL     1       8.701  30.649  61.655  1.00  0.00     0.158 C 
BRANCH  21  24
HETATM   24  C   UNL     1       6.672  32.627  63.698  1.00  0.00     0.150 A 
HETATM   25  N   UNL     1       5.320  32.621  63.854  1.00  0.00    -0.241 NA
HETATM   26  C   UNL     1       4.807  33.343  64.874  1.00  0.00     0.119 A 
HETATM   27  C   UNL     1       5.570  34.079  65.763  1.00  0.00     0.019 A 
HETATM   28  C   UNL     1       6.948  34.082  65.595  1.00  0.00     0.005 A 
HETATM   29  C   UNL     1       7.510  33.352  64.549  1.00  0.00     0.052 A 
ENDBRANCH  21  24
ENDBRANCH   1  18
TORSDOF 7
ENDMDL
MODEL 7
REMARK VINA RESULT:      -8.3      2.647      4.281
REMARK  7 active torsions:
REMARK  status: ('A' for Active; 'I' for Inactive)
REMARK    1  A    between atoms: N_3  and  C_4 
REMARK    2  A    between atoms: C_12  and  C_13 
REMARK       I    between atoms: C_13  and  N_14 
REMARK    3  A    between atoms: N_14  and  C_15 
REMARK    4  A    between atoms: C_15  and  C_16 
REMARK    5  A    between atoms: C_16  and  O_17 
REMARK    6  A    between atoms: C_16  and  C_18 
REMARK    7  A    between atoms: C_21  and  O_22 
ROOT
HETATM    1  C   UNL     1       8.058  30.169  58.196  1.00  0.00     0.255 C 
HETATM    2  N   UNL     1       7.205  29.239  57.655  1.00  0.00    -0.350 N 
HETATM    3  O   UNL     1       9.210  30.307  57.793  1.00  0.00    -0.268 OA
HETATM    4  H   UNL     1       6.269  29.129  58.017  1.00  0.00     0.163 HD
ENDROOT
BRANCH   2   5
HETATM    5  C   UNL     1       7.647  28.289  56.626  1.00  0.00     0.114 C 
HETATM    6  C   UNL     1       8.469  27.177  57.283  1.00  0.00     0.035 C 
BRANCH   5   7
HETATM    7  C   UNL     1       6.423  27.761  55.825  1.00  0.00     0.173 C 
BRANCH   7   8
HETATM    8  O   UNL     1       5.307  27.525  56.691  1.00  0.00    -0.389 OA
HETATM    9  H   UNL     1       4.594  28.120  56.401  1.00  0.00     0.210 HD
ENDBRANCH   7   8
BRANCH   7  10
HETATM   10  C   UNL     1       6.734  26.544  54.975  1.00  0.00    -0.028 A 
HETATM   11  C   UNL     1       7.495  26.698  53.808  1.00  0.00     0.012 A 
HETATM   12  C   UNL     1       7.822  25.592  53.020  1.00  0.00     0.037 A 
HETATM   13  C   UNL     1       7.406  24.311  53.383  1.00  0.00     0.068 A 
HETATM   14  C   UNL     1       6.644  24.146  54.540  1.00  0.00     0.037 A 
HETATM   15  C   UNL     1       6.310  25.255  55.329  1.00  0.00     0.012 A 
BRANCH  13  16
HETATM   16  O   UNL     1       7.804  23.320  52.530  1.00  0.00    -0.356 OA
HETATM   17  C   UNL     1       7.882  22.005  53.063  1.00  0.00     0.210 C 
ENDBRANCH  13  16
ENDBRANCH   7  10
ENDBRANCH   5   7
ENDBRANCH   2   5
BRANCH   1  18
HETATM   18  C   UNL     1       7.523  31.036  59.237  1.00  0.00     0.075 C 
HETATM   19  C   UNL     1       7.862  31.234  60.575  1.00  0.00     0.051 C 
HETATM   20  C   UNL     1       8.979  30.697  61.398  1.00  0.00     0.071 C 
HETATM   21  N   UNL     1       6.919  32.135  61.087  1.00  0.00    -0.220 N 
HETATM   22  N   UNL     1       6.128  32.637  60.098  1.00  0.00    -0.177 NA
HETATM   23  C   UNL     1       6.479  31.958  59.012  1.00  0.00     0.158 C 
BRANCH  21  24
HETATM   24  C   UNL     1       6.706  32.546  62.448  1.00  0.00     0.150 A 
HETATM   25  N   UNL     1       5.436  32.631  62.932  1.00  0.00    -0.241 NA
HETATM   26  C   UNL     1       5.282  33.042  64.210  1.00  0.00     0.119 A 
HETATM   27  C   UNL     1       6.332  33.375  65.048  1.00  0.00     0.019 A 
HETATM   28  C   UNL     1       7.623  33.289  64.545  1.00  0.00     0.005 A 
HETATM   29  C   UNL     1       7.817  32.873  63.229  1.00  0.00     0.052 A 
ENDBRANCH  21  24
ENDBRANCH   1  18
TORSDOF 7
ENDMDL
MODEL 8
REMARK VINA RESULT:      -8.3      6.290     10.786
REMARK  7 active torsions:
REMARK  status: ('A' for Active; 'I' for Inactive)
REMARK    1  A    between atoms: N_3  and  C_4 
REMARK    2  A    between atoms: C_12  and  C_13 
REMARK       I    between atoms: C_13  and  N_14 
REMARK    3  A    between atoms: N_14  and  C_15 
REMARK    4  A    between atoms: C_15  and  C_16 
REMARK    5  A    between atoms: C_16  and  O_17 
REMARK    6  A    between atoms: C_16  and  C_18 
REMARK    7  A    between atoms: C_21  and  O_22 
ROOT
HETATM    1  C   UNL     1       5.908  32.008  63.088  1.00  0.00     0.255 C 
HETATM    2  N   UNL     1       6.002  33.274  63.616  1.00  0.00    -0.350 N 
HETATM    3  O   UNL     1       4.938  31.286  63.299  1.00  0.00    -0.268 OA
HETATM    4  H   UNL     1       6.818  33.841  63.445  1.00  0.00     0.163 HD
ENDROOT
BRANCH   2   5
HETATM    5  C   UNL     1       4.992  33.803  64.542  1.00  0.00     0.114 C 
HETATM    6  C   UNL     1       5.643  34.073  65.901  1.00  0.00     0.035 C 
BRANCH   5   7
HETATM    7  C   UNL     1       4.307  35.055  63.925  1.00  0.00     0.173 C 
BRANCH   7   8
HETATM    8  O   UNL     1       3.213  35.493  64.739  1.00  0.00    -0.389 OA
HETATM    9  H   UNL     1       2.913  34.720  65.248  1.00  0.00     0.210 HD
ENDBRANCH   7   8
BRANCH   7  10
HETATM   10  C   UNL     1       3.885  34.866  62.481  1.00  0.00    -0.028 A 
HETATM   11  C   UNL     1       2.828  33.995  62.182  1.00  0.00     0.012 A 
HETATM   12  C   UNL     1       2.398  33.823  60.865  1.00  0.00     0.037 A 
HETATM   13  C   UNL     1       3.005  34.520  59.820  1.00  0.00     0.068 A 
HETATM   14  C   UNL     1       4.061  35.385  60.105  1.00  0.00     0.037 A 
HETATM   15  C   UNL     1       4.498  35.556  61.425  1.00  0.00     0.012 A 
BRANCH  13  16
HETATM   16  O   UNL     1       2.479  34.265  58.584  1.00  0.00    -0.356 OA
HETATM   17  C   UNL     1       3.393  33.904  57.559  1.00  0.00     0.210 C 
ENDBRANCH  13  16
ENDBRANCH   7  10
ENDBRANCH   5   7
ENDBRANCH   2   5
BRANCH   1  18
HETATM   18  C   UNL     1       6.986  31.573  62.210  1.00  0.00     0.075 C 
HETATM   19  C   UNL     1       7.183  31.659  60.833  1.00  0.00     0.051 C 
HETATM   20  C   UNL     1       6.393  32.332  59.766  1.00  0.00     0.071 C 
HETATM   21  N   UNL     1       8.376  30.975  60.566  1.00  0.00    -0.220 N 
HETATM   22  N   UNL     1       9.013  30.626  61.717  1.00  0.00    -0.177 NA
HETATM   23  C   UNL     1       8.167  30.963  62.684  1.00  0.00     0.158 C 
BRANCH  21  24
HETATM   24  C   UNL     1       8.949  30.617  59.296  1.00  0.00     0.150 A 
HETATM   25  N   UNL     1      10.003  31.330  58.812  1.00  0.00    -0.241 NA
HETATM   26  C   UNL     1      10.496  30.972  57.606  1.00  0.00     0.119 A 
HETATM   27  C   UNL     1       9.997  29.930  56.844  1.00  0.00     0.019 A 
HETATM   28  C   UNL     1       8.921  29.210  57.344  1.00  0.00     0.005 A 
HETATM   29  C   UNL     1       8.385  29.557  58.583  1.00  0.00     0.052 A 
ENDBRANCH  21  24
ENDBRANCH   1  18
TORSDOF 7
ENDMDL
MODEL 9
REMARK VINA RESULT:      -8.2      4.991      8.614
REMARK  7 active torsions:
REMARK  status: ('A' for Active; 'I' for Inactive)
REMARK    1  A    between atoms: N_3  and  C_4 
REMARK    2  A    between atoms: C_12  and  C_13 
REMARK       I    between atoms: C_13  and  N_14 
REMARK    3  A    between atoms: N_14  and  C_15 
REMARK    4  A    between atoms: C_15  and  C_16 
REMARK    5  A    between atoms: C_16  and  O_17 
REMARK    6  A    between atoms: C_16  and  C_18 
REMARK    7  A    between atoms: C_21  and  O_22 
ROOT
HETATM    1  C   UNL     1       5.286  26.717  53.114  1.00  0.00     0.255 C 
HETATM    2  N   UNL     1       5.476  26.744  51.754  1.00  0.00    -0.350 N 
HETATM    3  O   UNL     1       4.595  27.553  53.690  1.00  0.00    -0.268 OA
HETATM    4  H   UNL     1       6.066  26.059  51.305  1.00  0.00     0.163 HD
ENDROOT
BRANCH   2   5
HETATM    5  C   UNL     1       4.943  27.828  50.918  1.00  0.00     0.114 C 
HETATM    6  C   UNL     1       5.674  29.131  51.252  1.00  0.00     0.035 C 
BRANCH   5   7
HETATM    7  C   UNL     1       5.032  27.437  49.416  1.00  0.00     0.173 C 
BRANCH   7   8
HETATM    8  O   UNL     1       5.900  28.327  48.706  1.00  0.00    -0.389 OA
HETATM    9  H   UNL     1       6.214  28.987  49.348  1.00  0.00     0.210 HD
ENDBRANCH   7   8
BRANCH   7  10
HETATM   10  C   UNL     1       3.680  27.320  48.739  1.00  0.00    -0.028 A 
HETATM   11  C   UNL     1       2.633  28.158  49.147  1.00  0.00     0.012 A 
HETATM   12  C   UNL     1       1.385  28.094  48.523  1.00  0.00     0.037 A 
HETATM   13  C   UNL     1       1.158  27.202  47.475  1.00  0.00     0.068 A 
HETATM   14  C   UNL     1       2.191  26.360  47.063  1.00  0.00     0.037 A 
HETATM   15  C   UNL     1       3.442  26.419  47.692  1.00  0.00     0.012 A 
BRANCH  13  16
HETATM   16  O   UNL     1      -0.103  27.252  46.949  1.00  0.00    -0.356 OA
HETATM   17  C   UNL     1      -0.347  28.239  45.956  1.00  0.00     0.210 C 
ENDBRANCH  13  16
ENDBRANCH   7  10
ENDBRANCH   5   7
ENDBRANCH   2   5
BRANCH   1  18
HETATM   18  C   UNL     1       5.892  25.615  53.849  1.00  0.00     0.075 C 
HETATM   19  C   UNL     1       6.848  24.659  53.509  1.00  0.00     0.051 C 
HETATM   20  C   UNL     1       7.680  24.491  52.287  1.00  0.00     0.071 C 
HETATM   21  N   UNL     1       6.953  23.803  54.613  1.00  0.00    -0.220 N 
HETATM   22  N   UNL     1       6.247  24.279  55.676  1.00  0.00    -0.177 NA
HETATM   23  C   UNL     1       5.602  25.339  55.202  1.00  0.00     0.158 C 
BRANCH  21  24
HETATM   24  C   UNL     1       7.666  22.559  54.729  1.00  0.00     0.150 A 
HETATM   25  N   UNL     1       8.301  22.257  55.894  1.00  0.00    -0.241 NA
HETATM   26  C   UNL     1       8.975  21.087  55.951  1.00  0.00     0.119 A 
HETATM   27  C   UNL     1       9.053  20.187  54.903  1.00  0.00     0.019 A 
HETATM   28  C   UNL     1       8.405  20.505  53.718  1.00  0.00     0.005 A 
HETATM   29  C   UNL     1       7.705  21.706  53.624  1.00  0.00     0.052 A 
ENDBRANCH  21  24
ENDBRANCH   1  18
TORSDOF 7
ENDMDL
MODEL 10
REMARK VINA RESULT:      -8.2      2.378      3.384
REMARK  7 active torsions:
REMARK  status: ('A' for Active; 'I' for Inactive)
REMARK    1  A    between atoms: N_3  and  C_4 
REMARK    2  A    between atoms: C_12  and  C_13 
REMARK       I    between atoms: C_13  and  N_14 
REMARK    3  A    between atoms: N_14  and  C_15 
REMARK    4  A    between atoms: C_15  and  C_16 
REMARK    5  A    between atoms: C_16  and  O_17 
REMARK    6  A    between atoms: C_16  and  C_18 
REMARK    7  A    between atoms: C_21  and  O_22 
ROOT
HETATM    1  C   UNL     1       7.165  28.366  57.624  1.00  0.00     0.255 C 
HETATM    2  N   UNL     1       6.377  27.752  56.681  1.00  0.00    -0.350 N 
HETATM    3  O   UNL     1       8.114  27.792  58.152  1.00  0.00    -0.268 OA
HETATM    4  H   UNL     1       5.590  28.236  56.276  1.00  0.00     0.163 HD
ENDROOT
BRANCH   2   5
HETATM    5  C   UNL     1       6.563  26.341  56.315  1.00  0.00     0.114 C 
HETATM    6  C   UNL     1       5.282  25.564  56.629  1.00  0.00     0.035 C 
BRANCH   5   7
HETATM    7  C   UNL     1       7.006  26.229  54.829  1.00  0.00     0.173 C 
BRANCH   7   8
HETATM    8  O   UNL     1       5.961  26.657  53.950  1.00  0.00    -0.389 OA
HETATM    9  H   UNL     1       5.764  25.909  53.360  1.00  0.00     0.210 HD
ENDBRANCH   7   8
BRANCH   7  10
HETATM   10  C   UNL     1       7.521  24.852  54.453  1.00  0.00    -0.028 A 
HETATM   11  C   UNL     1       8.243  24.107  55.396  1.00  0.00     0.012 A 
HETATM   12  C   UNL     1       8.704  22.825  55.089  1.00  0.00     0.037 A 
HETATM   13  C   UNL     1       8.448  22.256  53.841  1.00  0.00     0.068 A 
HETATM   14  C   UNL     1       7.735  22.990  52.893  1.00  0.00     0.037 A 
HETATM   15  C   UNL     1       7.276  24.279  53.197  1.00  0.00     0.012 A 
BRANCH  13  16
HETATM   16  O   UNL     1       8.947  20.994  53.677  1.00  0.00    -0.356 OA
HETATM   17  C   UNL     1       8.766  20.087  54.755  1.00  0.00     0.210 C 
ENDBRANCH  13  16
ENDBRANCH   7  10
ENDBRANCH   5   7
ENDBRANCH   2   5
BRANCH   1  18
HETATM   18  C   UNL     1       6.867  29.757  57.936  1.00  0.00     0.075 C 
HETATM   19  C   UNL     1       5.707  30.524  57.842  1.00  0.00     0.051 C 
HETATM   20  C   UNL     1       4.310  30.156  57.483  1.00  0.00     0.071 C 
HETATM   21  N   UNL     1       6.070  31.827  58.204  1.00  0.00    -0.220 N 
HETATM   22  N   UNL     1       7.344  31.869  58.683  1.00  0.00    -0.177 NA
HETATM   23  C   UNL     1       7.814  30.642  58.495  1.00  0.00     0.158 C 
BRANCH  21  24
HETATM   24  C   UNL     1       5.300  33.039  58.117  1.00  0.00     0.150 A 
HETATM   25  N   UNL     1       5.278  33.736  56.948  1.00  0.00    -0.241 NA
HETATM   26  C   UNL     1       4.558  34.880  56.919  1.00  0.00     0.119 A 
HETATM   27  C   UNL     1       3.847  35.375  57.998  1.00  0.00     0.019 A 
HETATM   28  C   UNL     1       3.878  34.659  59.186  1.00  0.00     0.005 A 
HETATM   29  C   UNL     1       4.615  33.478  59.253  1.00  0.00     0.052 A 
ENDBRANCH  21  24
ENDBRANCH   1  18
TORSDOF 7
ENDMDL
