MODEL 1
REMARK VINA RESULT:     -10.1      0.000      0.000
REMARK  6 active torsions:
REMARK  status: ('A' for Active; 'I' for Inactive)
REMARK    1  A    between atoms: O_2  and  C_3 
REMARK    2  A    between atoms: C_5  and  O_6 
REMARK    3  A    between atoms: C_9  and  N_10 
REMARK       I    between atoms: N_10  and  C_11 
REMARK    4  A    between atoms: C_11  and  C_12 
REMARK    5  A    between atoms: C_12  and  N_13 
REMARK    6  A    between atoms: C_19  and  C_20 
ROOT
HETATM    1  N   UNL     1       7.560  30.107  58.375  1.00  0.00    -0.063 N 
HETATM    2  H   UNL     1       7.683  29.599  59.272  1.00  0.00     0.280 HD
HETATM    3  C   UNL     1       6.266  29.609  57.775  1.00  0.00     0.240 C 
HETATM    4  C   UNL     1       6.381  28.140  57.411  1.00  0.00     0.083 C 
HETATM    5  C   UNL     1       7.578  27.873  56.499  1.00  0.00     0.131 A 
HETATM    6  N   UNL     1       7.708  26.403  56.344  1.00  0.00    -0.251 NA
HETATM    7  C   UNL     1       7.580  26.136  55.071  1.00  0.00     0.132 A 
HETATM    8  C   UNL     1       7.345  27.389  54.260  1.00  0.00     0.272 A 
HETATM    9  O   UNL     1       7.146  27.494  53.075  1.00  0.00    -0.266 OA
HETATM   10  N   UNL     1       7.383  28.392  55.180  1.00  0.00    -0.327 N 
HETATM   11  C   UNL     1       8.866  28.394  57.137  1.00  0.00     0.083 C 
HETATM   12  C   UNL     1       8.761  29.863  57.504  1.00  0.00     0.240 C 
HETATM   13  H   UNL     1       7.209  29.341  54.877  1.00  0.00     0.165 HD
ENDROOT
BRANCH   1  14
HETATM   14  C   UNL     1       7.460  31.582  58.804  1.00  0.00     0.337 C 
BRANCH  14  15
HETATM   15  C   UNL     1       7.302  31.703  60.322  1.00  0.00     0.248 C 
HETATM   16  N   UNL     1       6.408  32.674  60.720  1.00  0.00    -0.326 N 
HETATM   17  H   UNL     1       5.917  33.208  60.010  1.00  0.00     0.169 HD
HETATM   18  O   UNL     1       7.920  30.912  61.032  1.00  0.00    -0.271 OA
BRANCH  16  19
HETATM   19  C   UNL     1       6.033  32.998  62.044  1.00  0.00     0.040 A 
HETATM   20  C   UNL     1       6.932  33.139  63.105  1.00  0.00     0.066 A 
HETATM   21  C   UNL     1       6.466  33.463  64.384  1.00  0.00     0.073 A 
HETATM   22  C   UNL     1       5.095  33.631  64.606  1.00  0.00     0.073 A 
HETATM   23  C   UNL     1       4.189  33.492  63.559  1.00  0.00     0.073 A 
HETATM   24  C   UNL     1       4.666  33.189  62.282  1.00  0.00     0.066 A 
BRANCH  21  25
HETATM   25  O   UNL     1       7.240  33.640  65.498  1.00  0.00    -0.356 OA
HETATM   26  C   UNL     1       6.604  34.149  66.663  1.00  0.00     0.210 C 
ENDBRANCH  21  25
BRANCH  23  27
HETATM   27  O   UNL     1       2.831  33.622  63.641  1.00  0.00    -0.356 OA
HETATM   28  C   UNL     1       2.194  34.374  62.612  1.00  0.00     0.210 C 
ENDBRANCH  23  27
ENDBRANCH  16  19
ENDBRANCH  14  15
ENDBRANCH   1  14
BRANCH   7  29
HETATM   29  C   UNL     1       7.648  24.773  54.507  1.00  0.00    -0.002 A 
HETATM   30  C   UNL     1       7.490  23.681  55.375  1.00  0.00     0.016 A 
HETATM   31  C   UNL     1       7.544  22.373  54.886  1.00  0.00     0.024 A 
HETATM   32  C   UNL     1       7.762  22.149  53.529  1.00  0.00     0.034 A 
HETATM   33 CL   UNL     1       7.829  20.541  52.926  1.00  0.00    -0.084 Cl
HETATM   34  C   UNL     1       7.927  23.224  52.659  1.00  0.00     0.024 A 
HETATM   35  C   UNL     1       7.871  24.534  53.146  1.00  0.00     0.016 A 
ENDBRANCH   7  29
TORSDOF 6
ENDMDL
MODEL 2
REMARK VINA RESULT:      -9.9      2.508      4.029
REMARK  6 active torsions:
REMARK  status: ('A' for Active; 'I' for Inactive)
REMARK    1  A    between atoms: O_2  and  C_3 
REMARK    2  A    between atoms: C_5  and  O_6 
REMARK    3  A    between atoms: C_9  and  N_10 
REMARK       I    between atoms: N_10  and  C_11 
REMARK    4  A    between atoms: C_11  and  C_12 
REMARK    5  A    between atoms: C_12  and  N_13 
REMARK    6  A    between atoms: C_19  and  C_20 
ROOT
HETATM    1  N   UNL     1       4.481  30.255  56.450  1.00  0.00    -0.063 N 
HETATM    2  H   UNL     1       3.936  30.383  55.576  1.00  0.00     0.280 HD
HETATM    3  C   UNL     1       5.936  30.229  56.047  1.00  0.00     0.240 C 
HETATM    4  C   UNL     1       6.228  29.009  55.193  1.00  0.00     0.083 C 
HETATM    5  C   UNL     1       5.800  27.716  55.885  1.00  0.00     0.131 A 
HETATM    6  N   UNL     1       5.960  26.608  54.911  1.00  0.00    -0.251 NA
HETATM    7  C   UNL     1       6.817  25.764  55.424  1.00  0.00     0.132 A 
HETATM    8  C   UNL     1       7.314  26.226  56.774  1.00  0.00     0.272 A 
HETATM    9  O   UNL     1       8.132  25.710  57.494  1.00  0.00    -0.266 OA
HETATM   10  N   UNL     1       6.640  27.389  56.995  1.00  0.00    -0.327 N 
HETATM   11  C   UNL     1       4.324  27.782  56.281  1.00  0.00     0.083 C 
HETATM   12  C   UNL     1       4.022  28.999  57.136  1.00  0.00     0.240 C 
HETATM   13  H   UNL     1       6.837  27.916  57.836  1.00  0.00     0.165 HD
ENDROOT
BRANCH   1  14
HETATM   14  C   UNL     1       4.140  31.510  57.274  1.00  0.00     0.337 C 
BRANCH  14  15
HETATM   15  C   UNL     1       5.392  32.090  57.936  1.00  0.00     0.248 C 
HETATM   16  N   UNL     1       5.954  31.271  58.893  1.00  0.00    -0.326 N 
HETATM   17  H   UNL     1       5.531  30.366  59.073  1.00  0.00     0.169 HD
HETATM   18  O   UNL     1       5.812  33.173  57.532  1.00  0.00    -0.271 OA
BRANCH  16  19
HETATM   19  C   UNL     1       7.123  31.519  59.649  1.00  0.00     0.040 A 
HETATM   20  C   UNL     1       7.143  31.683  61.036  1.00  0.00     0.066 A 
HETATM   21  C   UNL     1       8.352  31.925  61.699  1.00  0.00     0.073 A 
HETATM   22  C   UNL     1       9.542  32.019  60.969  1.00  0.00     0.073 A 
HETATM   23  C   UNL     1       9.535  31.859  59.587  1.00  0.00     0.073 A 
HETATM   24  C   UNL     1       8.327  31.597  58.937  1.00  0.00     0.066 A 
BRANCH  21  25
HETATM   25  O   UNL     1       8.508  32.092  63.048  1.00  0.00    -0.356 OA
HETATM   26  C   UNL     1       7.644  33.015  63.698  1.00  0.00     0.210 C 
ENDBRANCH  21  25
BRANCH  23  27
HETATM   27  O   UNL     1      10.619  31.933  58.758  1.00  0.00    -0.356 OA
HETATM   28  C   UNL     1      10.684  30.983  57.698  1.00  0.00     0.210 C 
ENDBRANCH  23  27
ENDBRANCH  16  19
ENDBRANCH  14  15
ENDBRANCH   1  14
BRANCH   7  29
HETATM   29  C   UNL     1       7.247  24.521  54.753  1.00  0.00    -0.002 A 
HETATM   30  C   UNL     1       7.286  23.335  55.502  1.00  0.00     0.016 A 
HETATM   31  C   UNL     1       7.684  22.134  54.910  1.00  0.00     0.024 A 
HETATM   32  C   UNL     1       8.051  22.112  53.567  1.00  0.00     0.034 A 
HETATM   33 CL   UNL     1       8.542  20.637  52.835  1.00  0.00    -0.084 Cl
HETATM   34  C   UNL     1       8.024  23.285  52.814  1.00  0.00     0.024 A 
HETATM   35  C   UNL     1       7.624  24.488  53.405  1.00  0.00     0.016 A 
ENDBRANCH   7  29
TORSDOF 6
ENDMDL
MODEL 3
REMARK VINA RESULT:      -9.8      1.627      2.693
REMARK  6 active torsions:
REMARK  status: ('A' for Active; 'I' for Inactive)
REMARK    1  A    between atoms: O_2  and  C_3 
REMARK    2  A    between atoms: C_5  and  O_6 
REMARK    3  A    between atoms: C_9  and  N_10 
REMARK       I    between atoms: N_10  and  C_11 
REMARK    4  A    between atoms: C_11  and  C_12 
REMARK    5  A    between atoms: C_12  and  N_13 
REMARK    6  A    between atoms: C_19  and  C_20 
ROOT
HETATM    1  N   UNL     1       4.848  30.027  57.587  1.00  0.00    -0.063 N 
HETATM    2  H   UNL     1       4.418  29.528  58.388  1.00  0.00     0.280 HD
HETATM    3  C   UNL     1       4.215  29.460  56.338  1.00  0.00     0.240 C 
HETATM    4  C   UNL     1       4.591  28.000  56.169  1.00  0.00     0.083 C 
HETATM    5  C   UNL     1       6.106  27.798  56.188  1.00  0.00     0.131 A 
HETATM    6  N   UNL     1       6.366  26.337  56.194  1.00  0.00    -0.251 NA
HETATM    7  C   UNL     1       7.056  26.063  55.117  1.00  0.00     0.132 A 
HETATM    8  C   UNL     1       7.313  27.301  54.291  1.00  0.00     0.272 A 
HETATM    9  O   UNL     1       7.877  27.396  53.229  1.00  0.00    -0.266 OA
HETATM   10  N   UNL     1       6.737  28.305  55.008  1.00  0.00    -0.327 N 
HETATM   11  C   UNL     1       6.711  28.388  57.462  1.00  0.00     0.083 C 
HETATM   12  C   UNL     1       6.340  29.849  57.640  1.00  0.00     0.240 C 
HETATM   13  H   UNL     1       6.745  29.244  54.631  1.00  0.00     0.165 HD
ENDROOT
BRANCH   1  14
HETATM   14  C   UNL     1       4.443  31.495  57.816  1.00  0.00     0.337 C 
BRANCH  14  15
HETATM   15  C   UNL     1       5.240  32.112  58.967  1.00  0.00     0.248 C 
HETATM   16  N   UNL     1       4.845  31.686  60.218  1.00  0.00    -0.326 N 
HETATM   17  H   UNL     1       4.097  31.004  60.289  1.00  0.00     0.169 HD
HETATM   18  O   UNL     1       6.173  32.864  58.687  1.00  0.00    -0.271 OA
BRANCH  16  19
HETATM   19  C   UNL     1       5.407  32.055  61.462  1.00  0.00     0.040 A 
HETATM   20  C   UNL     1       4.661  32.414  62.587  1.00  0.00     0.066 A 
HETATM   21  C   UNL     1       5.307  32.764  63.778  1.00  0.00     0.073 A 
HETATM   22  C   UNL     1       6.705  32.770  63.838  1.00  0.00     0.073 A 
HETATM   23  C   UNL     1       7.460  32.417  62.724  1.00  0.00     0.073 A 
HETATM   24  C   UNL     1       6.805  32.049  61.547  1.00  0.00     0.066 A 
BRANCH  21  25
HETATM   25  O   UNL     1       4.695  33.122  64.948  1.00  0.00    -0.356 OA
HETATM   26  C   UNL     1       5.444  33.907  65.866  1.00  0.00     0.210 C 
ENDBRANCH  21  25
BRANCH  23  27
HETATM   27  O   UNL     1       8.824  32.388  62.646  1.00  0.00    -0.356 OA
HETATM   28  C   UNL     1       9.397  31.437  61.754  1.00  0.00     0.210 C 
ENDBRANCH  23  27
ENDBRANCH  16  19
ENDBRANCH  14  15
ENDBRANCH   1  14
BRANCH   7  29
HETATM   29  C   UNL     1       7.513  24.706  54.758  1.00  0.00    -0.002 A 
HETATM   30  C   UNL     1       7.099  24.163  53.532  1.00  0.00     0.016 A 
HETATM   31  C   UNL     1       7.508  22.883  53.148  1.00  0.00     0.024 A 
HETATM   32  C   UNL     1       8.328  22.136  53.991  1.00  0.00     0.034 A 
HETATM   33 CL   UNL     1       8.832  20.562  53.522  1.00  0.00    -0.084 Cl
HETATM   34  C   UNL     1       8.739  22.661  55.214  1.00  0.00     0.024 A 
HETATM   35  C   UNL     1       8.332  23.943  55.599  1.00  0.00     0.016 A 
ENDBRANCH   7  29
TORSDOF 6
ENDMDL
MODEL 4
REMARK VINA RESULT:      -9.8      2.043      3.280
REMARK  6 active torsions:
REMARK  status: ('A' for Active; 'I' for Inactive)
REMARK    1  A    between atoms: O_2  and  C_3 
REMARK    2  A    between atoms: C_5  and  O_6 
REMARK    3  A    between atoms: C_9  and  N_10 
REMARK       I    between atoms: N_10  and  C_11 
REMARK    4  A    between atoms: C_11  and  C_12 
REMARK    5  A    between atoms: C_12  and  N_13 
REMARK    6  A    between atoms: C_19  and  C_20 
ROOT
HETATM    1  N   UNL     1       5.794  30.732  55.950  1.00  0.00    -0.063 N 
HETATM    2  H   UNL     1       6.438  31.113  55.231  1.00  0.00     0.280 HD
HETATM    3  C   UNL     1       6.647  29.941  56.914  1.00  0.00     0.240 C 
HETATM    4  C   UNL     1       7.254  28.737  56.218  1.00  0.00     0.083 C 
HETATM    5  C   UNL     1       6.187  27.870  55.549  1.00  0.00     0.131 A 
HETATM    6  N   UNL     1       6.885  26.828  54.756  1.00  0.00    -0.251 NA
HETATM    7  C   UNL     1       6.516  25.668  55.233  1.00  0.00     0.132 A 
HETATM    8  C   UNL     1       5.552  25.821  56.387  1.00  0.00     0.272 A 
HETATM    9  O   UNL     1       5.054  24.964  57.073  1.00  0.00    -0.266 OA
HETATM   10  N   UNL     1       5.382  27.168  56.501  1.00  0.00    -0.327 N 
HETATM   11  C   UNL     1       5.343  28.705  54.587  1.00  0.00     0.083 C 
HETATM   12  C   UNL     1       4.731  29.913  55.273  1.00  0.00     0.240 C 
HETATM   13  H   UNL     1       4.797  27.527  57.244  1.00  0.00     0.165 HD
ENDROOT
BRANCH   1  14
HETATM   14  C   UNL     1       5.205  31.992  56.611  1.00  0.00     0.337 C 
BRANCH  14  15
HETATM   15  C   UNL     1       5.055  31.800  58.123  1.00  0.00     0.248 C 
HETATM   16  N   UNL     1       6.010  32.455  58.872  1.00  0.00    -0.326 N 
HETATM   17  H   UNL     1       6.708  33.015  58.394  1.00  0.00     0.169 HD
HETATM   18  O   UNL     1       4.094  31.149  58.530  1.00  0.00    -0.271 OA
BRANCH  16  19
HETATM   19  C   UNL     1       6.113  32.488  60.282  1.00  0.00     0.040 A 
HETATM   20  C   UNL     1       5.227  33.169  61.120  1.00  0.00     0.066 A 
HETATM   21  C   UNL     1       5.410  33.145  62.506  1.00  0.00     0.073 A 
HETATM   22  C   UNL     1       6.494  32.450  63.056  1.00  0.00     0.073 A 
HETATM   23  C   UNL     1       7.385  31.769  62.232  1.00  0.00     0.073 A 
HETATM   24  C   UNL     1       7.181  31.783  60.851  1.00  0.00     0.066 A 
BRANCH  21  25
HETATM   25  O   UNL     1       4.611  33.758  63.433  1.00  0.00    -0.356 OA
HETATM   26  C   UNL     1       4.933  33.568  64.804  1.00  0.00     0.210 C 
ENDBRANCH  21  25
BRANCH  23  27
HETATM   27  O   UNL     1       8.481  31.061  62.636  1.00  0.00    -0.356 OA
HETATM   28  C   UNL     1       9.290  30.488  61.613  1.00  0.00     0.210 C 
ENDBRANCH  23  27
ENDBRANCH  16  19
ENDBRANCH  14  15
ENDBRANCH   1  14
BRANCH   7  29
HETATM   29  C   UNL     1       6.997  24.374  54.710  1.00  0.00    -0.002 A 
HETATM   30  C   UNL     1       7.130  24.222  53.321  1.00  0.00     0.016 A 
HETATM   31  C   UNL     1       7.584  23.016  52.779  1.00  0.00     0.024 A 
HETATM   32  C   UNL     1       7.901  21.954  53.622  1.00  0.00     0.034 A 
HETATM   33 CL   UNL     1       8.459  20.470  52.959  1.00  0.00    -0.084 Cl
HETATM   34  C   UNL     1       7.766  22.090  55.002  1.00  0.00     0.024 A 
HETATM   35  C   UNL     1       7.314  23.297  55.546  1.00  0.00     0.016 A 
ENDBRANCH   7  29
TORSDOF 6
ENDMDL
MODEL 5
REMARK VINA RESULT:      -9.7      0.616      2.180
REMARK  6 active torsions:
REMARK  status: ('A' for Active; 'I' for Inactive)
REMARK    1  A    between atoms: O_2  and  C_3 
REMARK    2  A    between atoms: C_5  and  O_6 
REMARK    3  A    between atoms: C_9  and  N_10 
REMARK       I    between atoms: N_10  and  C_11 
REMARK    4  A    between atoms: C_11  and  C_12 
REMARK    5  A    between atoms: C_12  and  N_13 
REMARK    6  A    between atoms: C_19  and  C_20 
ROOT
HETATM    1  N   UNL     1       8.677  30.211  58.545  1.00  0.00    -0.063 N 
HETATM    2  H   UNL     1       9.089  29.696  59.347  1.00  0.00     0.280 HD
HETATM    3  C   UNL     1       7.285  29.658  58.351  1.00  0.00     0.240 C 
HETATM    4  C   UNL     1       7.347  28.203  57.924  1.00  0.00     0.083 C 
HETATM    5  C   UNL     1       8.219  28.012  56.684  1.00  0.00     0.131 A 
HETATM    6  N   UNL     1       8.360  26.554  56.452  1.00  0.00    -0.251 NA
HETATM    7  C   UNL     1       7.862  26.301  55.269  1.00  0.00     0.132 A 
HETATM    8  C   UNL     1       7.337  27.553  54.607  1.00  0.00     0.272 A 
HETATM    9  O   UNL     1       6.782  27.668  53.543  1.00  0.00    -0.266 OA
HETATM   10  N   UNL     1       7.610  28.542  55.503  1.00  0.00    -0.327 N 
HETATM   11  C   UNL     1       9.617  28.587  56.917  1.00  0.00     0.083 C 
HETATM   12  C   UNL     1       9.565  30.042  57.344  1.00  0.00     0.240 C 
HETATM   13  H   UNL     1       7.311  29.486  55.297  1.00  0.00     0.165 HD
ENDROOT
BRANCH   1  14
HETATM   14  C   UNL     1       8.648  31.672  59.031  1.00  0.00     0.337 C 
BRANCH  14  15
HETATM   15  C   UNL     1       8.113  31.765  60.462  1.00  0.00     0.248 C 
HETATM   16  N   UNL     1       7.031  32.608  60.605  1.00  0.00    -0.326 N 
HETATM   17  H   UNL     1       6.662  33.075  59.783  1.00  0.00     0.169 HD
HETATM   18  O   UNL     1       8.637  31.059  61.322  1.00  0.00    -0.271 OA
BRANCH  16  19
HETATM   19  C   UNL     1       6.308  32.874  61.790  1.00  0.00     0.040 A 
HETATM   20  C   UNL     1       4.919  33.013  61.851  1.00  0.00     0.066 A 
HETATM   21  C   UNL     1       4.291  33.276  63.073  1.00  0.00     0.073 A 
HETATM   22  C   UNL     1       5.056  33.418  64.236  1.00  0.00     0.073 A 
HETATM   23  C   UNL     1       6.440  33.285  64.189  1.00  0.00     0.073 A 
HETATM   24  C   UNL     1       7.056  33.001  62.968  1.00  0.00     0.066 A 
BRANCH  21  25
HETATM   25  O   UNL     1       2.944  33.422  63.268  1.00  0.00    -0.356 OA
HETATM   26  C   UNL     1       2.294  34.483  62.581  1.00  0.00     0.210 C 
ENDBRANCH  21  25
BRANCH  23  27
HETATM   27  O   UNL     1       7.301  33.405  65.243  1.00  0.00    -0.356 OA
HETATM   28  C   UNL     1       6.820  34.096  66.392  1.00  0.00     0.210 C 
ENDBRANCH  23  27
ENDBRANCH  16  19
ENDBRANCH  14  15
ENDBRANCH   1  14
BRANCH   7  29
HETATM   29  C   UNL     1       7.814  24.952  54.670  1.00  0.00    -0.002 A 
HETATM   30  C   UNL     1       7.631  23.849  55.517  1.00  0.00     0.016 A 
HETATM   31  C   UNL     1       7.577  22.554  54.995  1.00  0.00     0.024 A 
HETATM   32  C   UNL     1       7.710  22.354  53.623  1.00  0.00     0.034 A 
HETATM   33 CL   UNL     1       7.644  20.763  52.978  1.00  0.00    -0.084 Cl
HETATM   34  C   UNL     1       7.899  23.441  52.772  1.00  0.00     0.024 A 
HETATM   35  C   UNL     1       7.952  24.738  53.293  1.00  0.00     0.016 A 
ENDBRANCH   7  29
TORSDOF 6
ENDMDL
MODEL 6
REMARK VINA RESULT:      -9.7      1.894      2.555
REMARK  6 active torsions:
REMARK  status: ('A' for Active; 'I' for Inactive)
REMARK    1  A    between atoms: O_2  and  C_3 
REMARK    2  A    between atoms: C_5  and  O_6 
REMARK    3  A    between atoms: C_9  and  N_10 
REMARK       I    between atoms: N_10  and  C_11 
REMARK    4  A    between atoms: C_11  and  C_12 
REMARK    5  A    between atoms: C_12  and  N_13 
REMARK    6  A    between atoms: C_19  and  C_20 
ROOT
HETATM    1  N   UNL     1       4.126  30.513  57.199  1.00  0.00    -0.063 N 
HETATM    2  H   UNL     1       3.376  29.973  57.672  1.00  0.00     0.280 HD
HETATM    3  C   UNL     1       3.935  30.302  55.715  1.00  0.00     0.240 C 
HETATM    4  C   UNL     1       4.176  28.848  55.352  1.00  0.00     0.083 C 
HETATM    5  C   UNL     1       5.543  28.362  55.830  1.00  0.00     0.131 A 
HETATM    6  N   UNL     1       5.613  26.900  55.588  1.00  0.00    -0.251 NA
HETATM    7  C   UNL     1       6.613  26.691  54.772  1.00  0.00     0.132 A 
HETATM    8  C   UNL     1       7.297  27.982  54.388  1.00  0.00     0.272 A 
HETATM    9  O   UNL     1       8.219  28.150  53.628  1.00  0.00    -0.266 OA
HETATM   10  N   UNL     1       6.617  28.937  55.081  1.00  0.00    -0.327 N 
HETATM   11  C   UNL     1       5.701  28.596  57.333  1.00  0.00     0.083 C 
HETATM   12  C   UNL     1       5.462  30.048  57.707  1.00  0.00     0.240 C 
HETATM   13  H   UNL     1       6.872  29.908  54.955  1.00  0.00     0.165 HD
ENDROOT
BRANCH   1  14
HETATM   14  C   UNL     1       3.837  31.968  57.609  1.00  0.00     0.337 C 
BRANCH  14  15
HETATM   15  C   UNL     1       4.822  32.443  58.681  1.00  0.00     0.248 C 
HETATM   16  N   UNL     1       4.552  31.965  59.945  1.00  0.00    -0.326 N 
HETATM   17  H   UNL     1       3.765  31.338  60.074  1.00  0.00     0.169 HD
HETATM   18  O   UNL     1       5.771  33.139  58.325  1.00  0.00    -0.271 OA
BRANCH  16  19
HETATM   19  C   UNL     1       5.295  32.204  61.125  1.00  0.00     0.040 A 
HETATM   20  C   UNL     1       6.682  32.070  61.221  1.00  0.00     0.066 A 
HETATM   21  C   UNL     1       7.331  32.330  62.434  1.00  0.00     0.073 A 
HETATM   22  C   UNL     1       6.588  32.709  63.557  1.00  0.00     0.073 A 
HETATM   23  C   UNL     1       5.205  32.843  63.474  1.00  0.00     0.073 A 
HETATM   24  C   UNL     1       4.570  32.602  62.255  1.00  0.00     0.066 A 
BRANCH  21  25
HETATM   25  O   UNL     1       8.679  32.247  62.656  1.00  0.00    -0.356 OA
HETATM   26  C   UNL     1       9.497  31.828  61.572  1.00  0.00     0.210 C 
ENDBRANCH  21  25
BRANCH  23  27
HETATM   27  O   UNL     1       4.364  33.198  64.491  1.00  0.00    -0.356 OA
HETATM   28  C   UNL     1       4.959  33.797  65.638  1.00  0.00     0.210 C 
ENDBRANCH  23  27
ENDBRANCH  16  19
ENDBRANCH  14  15
ENDBRANCH   1  14
BRANCH   7  29
HETATM   29  C   UNL     1       7.010  25.355  54.285  1.00  0.00    -0.002 A 
HETATM   30  C   UNL     1       7.054  24.294  55.202  1.00  0.00     0.016 A 
HETATM   31  C   UNL     1       7.422  23.011  54.787  1.00  0.00     0.024 A 
HETATM   32  C   UNL     1       7.753  22.783  53.454  1.00  0.00     0.034 A 
HETATM   33 CL   UNL     1       8.206  21.207  52.940  1.00  0.00    -0.084 Cl
HETATM   34  C   UNL     1       7.721  23.830  52.535  1.00  0.00     0.024 A 
HETATM   35  C   UNL     1       7.351  25.114  52.949  1.00  0.00     0.016 A 
ENDBRANCH   7  29
TORSDOF 6
ENDMDL
MODEL 7
REMARK VINA RESULT:      -9.5      1.222      1.484
REMARK  6 active torsions:
REMARK  status: ('A' for Active; 'I' for Inactive)
REMARK    1  A    between atoms: O_2  and  C_3 
REMARK    2  A    between atoms: C_5  and  O_6 
REMARK    3  A    between atoms: C_9  and  N_10 
REMARK       I    between atoms: N_10  and  C_11 
REMARK    4  A    between atoms: C_11  and  C_12 
REMARK    5  A    between atoms: C_12  and  N_13 
REMARK    6  A    between atoms: C_19  and  C_20 
ROOT
HETATM    1  N   UNL     1       6.138  29.954  57.393  1.00  0.00    -0.063 N 
HETATM    2  H   UNL     1       6.248  29.632  58.373  1.00  0.00     0.280 HD
HETATM    3  C   UNL     1       5.058  29.096  56.779  1.00  0.00     0.240 C 
HETATM    4  C   UNL     1       5.513  27.651  56.694  1.00  0.00     0.083 C 
HETATM    5  C   UNL     1       6.843  27.517  55.954  1.00  0.00     0.131 A 
HETATM    6  N   UNL     1       7.288  26.107  56.076  1.00  0.00    -0.251 NA
HETATM    7  C   UNL     1       7.377  25.623  54.865  1.00  0.00     0.132 A 
HETATM    8  C   UNL     1       6.996  26.652  53.825  1.00  0.00     0.272 A 
HETATM    9  O   UNL     1       6.929  26.526  52.628  1.00  0.00    -0.266 OA
HETATM   10  N   UNL     1       6.714  27.769  54.552  1.00  0.00    -0.327 N 
HETATM   11  C   UNL     1       7.909  28.402  56.601  1.00  0.00     0.083 C 
HETATM   12  C   UNL     1       7.463  29.850  56.690  1.00  0.00     0.240 C 
HETATM   13  H   UNL     1       6.390  28.598  54.070  1.00  0.00     0.165 HD
ENDROOT
BRANCH   1  14
HETATM   14  C   UNL     1       5.687  31.419  57.542  1.00  0.00     0.337 C 
BRANCH  14  15
HETATM   15  C   UNL     1       6.087  31.981  58.908  1.00  0.00     0.248 C 
HETATM   16  N   UNL     1       5.062  31.999  59.831  1.00  0.00    -0.326 N 
HETATM   17  H   UNL     1       4.154  31.634  59.563  1.00  0.00     0.169 HD
HETATM   18  O   UNL     1       7.261  32.302  59.080  1.00  0.00    -0.271 OA
BRANCH  16  19
HETATM   19  C   UNL     1       5.133  32.431  61.176  1.00  0.00     0.040 A 
HETATM   20  C   UNL     1       6.293  32.398  61.953  1.00  0.00     0.066 A 
HETATM   21  C   UNL     1       6.265  32.848  63.278  1.00  0.00     0.073 A 
HETATM   22  C   UNL     1       5.069  33.318  63.831  1.00  0.00     0.073 A 
HETATM   23  C   UNL     1       3.906  33.355  63.068  1.00  0.00     0.073 A 
HETATM   24  C   UNL     1       3.949  32.922  61.741  1.00  0.00     0.066 A 
BRANCH  21  25
HETATM   25  O   UNL     1       7.330  32.879  64.137  1.00  0.00    -0.356 OA
HETATM   26  C   UNL     1       7.159  33.571  65.367  1.00  0.00     0.210 C 
ENDBRANCH  21  25
BRANCH  23  27
HETATM   27  O   UNL     1       2.677  33.781  63.486  1.00  0.00    -0.356 OA
HETATM   28  C   UNL     1       1.844  34.398  62.509  1.00  0.00     0.210 C 
ENDBRANCH  23  27
ENDBRANCH  16  19
ENDBRANCH  14  15
ENDBRANCH   1  14
BRANCH   7  29
HETATM   29  C   UNL     1       7.790  24.239  54.561  1.00  0.00    -0.002 A 
HETATM   30  C   UNL     1       7.218  23.598  53.452  1.00  0.00     0.016 A 
HETATM   31  C   UNL     1       7.580  22.288  53.124  1.00  0.00     0.024 A 
HETATM   32  C   UNL     1       8.511  21.610  53.907  1.00  0.00     0.034 A 
HETATM   33 CL   UNL     1       8.958  20.000  53.507  1.00  0.00    -0.084 Cl
HETATM   34  C   UNL     1       9.081  22.233  55.016  1.00  0.00     0.024 A 
HETATM   35  C   UNL     1       8.721  23.545  55.344  1.00  0.00     0.016 A 
ENDBRANCH   7  29
TORSDOF 6
ENDMDL
MODEL 8
REMARK VINA RESULT:      -9.5      1.748      2.085
REMARK  6 active torsions:
REMARK  status: ('A' for Active; 'I' for Inactive)
REMARK    1  A    between atoms: O_2  and  C_3 
REMARK    2  A    between atoms: C_5  and  O_6 
REMARK    3  A    between atoms: C_9  and  N_10 
REMARK       I    between atoms: N_10  and  C_11 
REMARK    4  A    between atoms: C_11  and  C_12 
REMARK    5  A    between atoms: C_12  and  N_13 
REMARK    6  A    between atoms: C_19  and  C_20 
ROOT
HETATM    1  N   UNL     1       5.966  30.621  58.413  1.00  0.00    -0.063 N 
HETATM    2  H   UNL     1       5.706  30.185  59.318  1.00  0.00     0.280 HD
HETATM    3  C   UNL     1       5.013  30.066  57.381  1.00  0.00     0.240 C 
HETATM    4  C   UNL     1       5.234  28.575  57.203  1.00  0.00     0.083 C 
HETATM    5  C   UNL     1       6.690  28.252  56.873  1.00  0.00     0.131 A 
HETATM    6  N   UNL     1       6.841  26.776  56.893  1.00  0.00    -0.251 NA
HETATM    7  C   UNL     1       7.231  26.411  55.700  1.00  0.00     0.132 A 
HETATM    8  C   UNL     1       7.369  27.596  54.773  1.00  0.00     0.272 A 
HETATM    9  O   UNL     1       7.666  27.609  53.605  1.00  0.00    -0.266 OA
HETATM   10  N   UNL     1       7.054  28.667  55.554  1.00  0.00    -0.327 N 
HETATM   11  C   UNL     1       7.623  28.833  57.936  1.00  0.00     0.083 C 
HETATM   12  C   UNL     1       7.411  30.324  58.121  1.00  0.00     0.240 C 
HETATM   13  H   UNL     1       7.038  29.588  55.137  1.00  0.00     0.165 HD
ENDROOT
BRANCH   1  14
HETATM   14  C   UNL     1       5.733  32.124  58.655  1.00  0.00     0.337 C 
BRANCH  14  15
HETATM   15  C   UNL     1       6.038  32.500  60.107  1.00  0.00     0.248 C 
HETATM   16  N   UNL     1       5.181  33.441  60.637  1.00  0.00    -0.326 N 
HETATM   17  H   UNL     1       4.422  33.792  60.062  1.00  0.00     0.169 HD
HETATM   18  O   UNL     1       6.953  31.909  60.677  1.00  0.00    -0.271 OA
BRANCH  16  19
HETATM   19  C   UNL     1       5.193  33.962  61.952  1.00  0.00     0.040 A 
HETATM   20  C   UNL     1       4.804  33.246  63.086  1.00  0.00     0.066 A 
HETATM   21  C   UNL     1       4.850  33.848  64.349  1.00  0.00     0.073 A 
HETATM   22  C   UNL     1       5.273  35.176  64.474  1.00  0.00     0.073 A 
HETATM   23  C   UNL     1       5.661  35.901  63.352  1.00  0.00     0.073 A 
HETATM   24  C   UNL     1       5.630  35.285  62.100  1.00  0.00     0.066 A 
BRANCH  21  25
HETATM   25  O   UNL     1       4.509  33.254  65.533  1.00  0.00    -0.356 OA
HETATM   26  C   UNL     1       4.487  34.074  66.694  1.00  0.00     0.210 C 
ENDBRANCH  21  25
BRANCH  23  27
HETATM   27  O   UNL     1       6.086  37.200  63.335  1.00  0.00    -0.356 OA
HETATM   28  C   UNL     1       5.405  38.110  64.193  1.00  0.00     0.210 C 
ENDBRANCH  23  27
ENDBRANCH  16  19
ENDBRANCH  14  15
ENDBRANCH   1  14
BRANCH   7  29
HETATM   29  C   UNL     1       7.490  25.010  55.314  1.00  0.00    -0.002 A 
HETATM   30  C   UNL     1       7.001  24.554  54.080  1.00  0.00     0.016 A 
HETATM   31  C   UNL     1       7.224  23.236  53.671  1.00  0.00     0.024 A 
HETATM   32  C   UNL     1       7.933  22.366  54.495  1.00  0.00     0.034 A 
HETATM   33 CL   UNL     1       8.209  20.745  53.995  1.00  0.00    -0.084 Cl
HETATM   34  C   UNL     1       8.419  22.805  55.725  1.00  0.00     0.024 A 
HETATM   35  C   UNL     1       8.198  24.124  56.135  1.00  0.00     0.016 A 
ENDBRANCH   7  29
TORSDOF 6
ENDMDL
MODEL 9
REMARK VINA RESULT:      -9.1      1.283      2.719
REMARK  6 active torsions:
REMARK  status: ('A' for Active; 'I' for Inactive)
REMARK    1  A    between atoms: O_2  and  C_3 
REMARK    2  A    between atoms: C_5  and  O_6 
REMARK    3  A    between atoms: C_9  and  N_10 
REMARK       I    between atoms: N_10  and  C_11 
REMARK    4  A    between atoms: C_11  and  C_12 
REMARK    5  A    between atoms: C_12  and  N_13 
REMARK    6  A    between atoms: C_19  and  C_20 
ROOT
HETATM    1  N   UNL     1       8.394  30.129  58.455  1.00  0.00    -0.063 N 
HETATM    2  H   UNL     1       8.674  29.636  59.323  1.00  0.00     0.280 HD
HETATM    3  C   UNL     1       7.012  29.632  58.105  1.00  0.00     0.240 C 
HETATM    4  C   UNL     1       7.053  28.157  57.751  1.00  0.00     0.083 C 
HETATM    5  C   UNL     1       8.065  27.867  56.643  1.00  0.00     0.131 A 
HETATM    6  N   UNL     1       8.159  26.394  56.493  1.00  0.00    -0.251 NA
HETATM    7  C   UNL     1       7.803  26.107  55.268  1.00  0.00     0.132 A 
HETATM    8  C   UNL     1       7.432  27.349  54.491  1.00  0.00     0.272 A 
HETATM    9  O   UNL     1       7.025  27.437  53.360  1.00  0.00    -0.266 OA
HETATM   10  N   UNL     1       7.639  28.366  55.373  1.00  0.00    -0.327 N 
HETATM   11  C   UNL     1       9.449  28.388  57.031  1.00  0.00     0.083 C 
HETATM   12  C   UNL     1       9.418  29.863  57.387  1.00  0.00     0.240 C 
HETATM   13  H   UNL     1       7.418  29.312  55.090  1.00  0.00     0.165 HD
ENDROOT
BRANCH   1  14
HETATM   14  C   UNL     1       8.379  31.612  58.870  1.00  0.00     0.337 C 
BRANCH  14  15
HETATM   15  C   UNL     1       7.318  31.871  59.943  1.00  0.00     0.248 C 
HETATM   16  N   UNL     1       6.254  32.634  59.511  1.00  0.00    -0.326 N 
HETATM   17  H   UNL     1       6.233  32.942  58.544  1.00  0.00     0.169 HD
HETATM   18  O   UNL     1       7.470  31.345  61.045  1.00  0.00    -0.271 OA
BRANCH  16  19
HETATM   19  C   UNL     1       5.115  33.012  60.259  1.00  0.00     0.040 A 
HETATM   20  C   UNL     1       3.851  33.238  59.708  1.00  0.00     0.066 A 
HETATM   21  C   UNL     1       2.782  33.610  60.531  1.00  0.00     0.073 A 
HETATM   22  C   UNL     1       2.981  33.771  61.907  1.00  0.00     0.073 A 
HETATM   23  C   UNL     1       4.236  33.550  62.467  1.00  0.00     0.073 A 
HETATM   24  C   UNL     1       5.291  33.160  61.641  1.00  0.00     0.066 A 
BRANCH  21  25
HETATM   25  O   UNL     1       1.499  33.848  60.120  1.00  0.00    -0.356 OA
HETATM   26  C   UNL     1       0.705  34.715  60.919  1.00  0.00     0.210 C 
ENDBRANCH  21  25
BRANCH  23  27
HETATM   27  O   UNL     1       4.566  33.677  63.787  1.00  0.00    -0.356 OA
HETATM   28  C   UNL     1       3.659  34.403  64.610  1.00  0.00     0.210 C 
ENDBRANCH  23  27
ENDBRANCH  16  19
ENDBRANCH  14  15
ENDBRANCH   1  14
BRANCH   7  29
HETATM   29  C   UNL     1       7.763  24.735  54.724  1.00  0.00    -0.002 A 
HETATM   30  C   UNL     1       7.917  24.558  53.341  1.00  0.00     0.016 A 
HETATM   31  C   UNL     1       7.887  23.278  52.781  1.00  0.00     0.024 A 
HETATM   32  C   UNL     1       7.699  22.168  53.600  1.00  0.00     0.034 A 
HETATM   33 CL   UNL     1       7.662  20.593  52.915  1.00  0.00    -0.084 Cl
HETATM   34  C   UNL     1       7.537  22.331  54.975  1.00  0.00     0.024 A 
HETATM   35  C   UNL     1       7.568  23.611  55.537  1.00  0.00     0.016 A 
ENDBRANCH   7  29
TORSDOF 6
ENDMDL
MODEL 10
REMARK VINA RESULT:      -8.8      4.361     11.215
REMARK  6 active torsions:
REMARK  status: ('A' for Active; 'I' for Inactive)
REMARK    1  A    between atoms: O_2  and  C_3 
REMARK    2  A    between atoms: C_5  and  O_6 
REMARK    3  A    between atoms: C_9  and  N_10 
REMARK       I    between atoms: N_10  and  C_11 
REMARK    4  A    between atoms: C_11  and  C_12 
REMARK    5  A    between atoms: C_12  and  N_13 
REMARK    6  A    between atoms: C_19  and  C_20 
ROOT
HETATM    1  N   UNL     1       9.097  31.162  59.018  1.00  0.00    -0.063 N 
HETATM    2  H   UNL     1       9.624  32.022  58.771  1.00  0.00     0.280 HD
HETATM    3  C   UNL     1       7.634  31.488  58.832  1.00  0.00     0.240 C 
HETATM    4  C   UNL     1       7.196  32.546  59.828  1.00  0.00     0.083 C 
HETATM    5  C   UNL     1       7.516  32.139  61.266  1.00  0.00     0.131 A 
HETATM    6  N   UNL     1       7.216  33.299  62.141  1.00  0.00    -0.251 NA
HETATM    7  C   UNL     1       6.297  32.917  62.988  1.00  0.00     0.132 A 
HETATM    8  C   UNL     1       5.891  31.479  62.758  1.00  0.00     0.272 A 
HETATM    9  O   UNL     1       5.049  30.832  63.329  1.00  0.00    -0.266 OA
HETATM   10  N   UNL     1       6.683  31.072  61.727  1.00  0.00    -0.327 N 
HETATM   11  C   UNL     1       9.003  31.813  61.413  1.00  0.00     0.083 C 
HETATM   12  C   UNL     1       9.451  30.755  60.421  1.00  0.00     0.240 C 
HETATM   13  H   UNL     1       6.567  30.137  61.360  1.00  0.00     0.165 HD
ENDROOT
BRANCH   1  14
HETATM   14  C   UNL     1       9.587  30.129  57.986  1.00  0.00     0.337 C 
BRANCH  14  15
HETATM   15  C   UNL     1       8.453  29.188  57.571  1.00  0.00     0.248 C 
HETATM   16  N   UNL     1       8.116  29.266  56.236  1.00  0.00    -0.326 N 
HETATM   17  H   UNL     1       8.634  29.900  55.637  1.00  0.00     0.169 HD
HETATM   18  O   UNL     1       7.996  28.425  58.420  1.00  0.00    -0.271 OA
BRANCH  16  19
HETATM   19  C   UNL     1       7.136  28.506  55.558  1.00  0.00     0.040 A 
HETATM   20  C   UNL     1       5.899  29.006  55.145  1.00  0.00     0.066 A 
HETATM   21  C   UNL     1       4.991  28.175  54.478  1.00  0.00     0.073 A 
HETATM   22  C   UNL     1       5.317  26.836  54.237  1.00  0.00     0.073 A 
HETATM   23  C   UNL     1       6.545  26.325  54.645  1.00  0.00     0.073 A 
HETATM   24  C   UNL     1       7.452  27.167  55.292  1.00  0.00     0.066 A 
BRANCH  21  25
HETATM   25  O   UNL     1       3.758  28.544  54.014  1.00  0.00    -0.356 OA
HETATM   26  C   UNL     1       3.552  29.920  53.723  1.00  0.00     0.210 C 
ENDBRANCH  21  25
BRANCH  23  27
HETATM   27  O   UNL     1       6.983  25.041  54.480  1.00  0.00    -0.356 OA
HETATM   28  C   UNL     1       6.828  24.160  55.588  1.00  0.00     0.210 C 
ENDBRANCH  23  27
ENDBRANCH  16  19
ENDBRANCH  14  15
ENDBRANCH   1  14
BRANCH   7  29
HETATM   29  C   UNL     1       5.725  33.792  64.030  1.00  0.00    -0.002 A 
HETATM   30  C   UNL     1       6.227  33.694  65.336  1.00  0.00     0.016 A 
HETATM   31  C   UNL     1       5.718  34.504  66.356  1.00  0.00     0.024 A 
HETATM   32  C   UNL     1       4.701  35.412  66.075  1.00  0.00     0.034 A 
HETATM   33 CL   UNL     1       4.073  36.409  67.326  1.00  0.00    -0.084 Cl
HETATM   34  C   UNL     1       4.188  35.513  64.784  1.00  0.00     0.024 A 
HETATM   35  C   UNL     1       4.698  34.705  63.762  1.00  0.00     0.016 A 
ENDBRANCH   7  29
TORSDOF 6
ENDMDL
