MODEL 1
REMARK VINA RESULT:     -11.3      0.000      0.000
REMARK  7 active torsions:
REMARK  status: ('A' for Active; 'I' for Inactive)
REMARK    1  A    between atoms: C_5  and  C_6 
REMARK       I    between atoms: C_6  and  N_7 
REMARK    2  A    between atoms: N_7  and  C_8 
REMARK    3  A    between atoms: C_8  and  C_9 
REMARK    4  A    between atoms: C_9  and  C_10 
REMARK    5  A    between atoms: N_15  and  C_17 
REMARK    6  A    between atoms: C_17  and  C_18 
REMARK    7  A    between atoms: C_21  and  C_22 
ROOT
HETATM    1  C   UNL     1       8.583  31.929  59.547  1.00  0.00     0.131 A 
HETATM    2  N   UNL     1       8.379  30.958  58.590  1.00  0.00    -0.319 N 
HETATM    3  C   UNL     1       9.571  30.835  57.916  1.00  0.00     0.131 A 
HETATM    4  C   UNL     1       9.889  29.868  56.830  1.00  0.00     0.108 C 
HETATM    5  C   UNL     1       9.363  28.471  57.133  1.00  0.00     0.243 C 
HETATM    6  N   UNL     1       7.876  28.322  56.808  1.00  0.00    -0.065 N 
HETATM    7  H   UNL     1       7.846  28.128  55.797  1.00  0.00     0.280 HD
HETATM    8  C   UNL     1       7.015  29.556  57.012  1.00  0.00     0.255 C 
HETATM    9  C   UNL     1       7.166  30.197  58.392  1.00  0.00     0.159 C 
HETATM   10  N   UNL     1      10.423  31.704  58.408  1.00  0.00    -0.135 NA
HETATM   11  N   UNL     1       9.812  32.378  59.423  1.00  0.00    -0.135 NA
ENDROOT
BRANCH   1  12
HETATM   12  C   UNL     1       7.600  32.370  60.583  1.00  0.00     0.100 C 
BRANCH  12  13
HETATM   13  C   UNL     1       7.969  31.826  61.969  1.00  0.00     0.130 C 
BRANCH  13  14
HETATM   14  N   UNL     1       7.856  32.806  63.042  1.00  0.00    -0.360 N 
HETATM   15  C   UNL     1       6.650  33.162  63.590  1.00  0.00     0.223 C 
HETATM   16  O   UNL     1       5.603  32.539  63.418  1.00  0.00    -0.273 OA
HETATM   17  H   UNL     1       8.649  33.430  63.152  1.00  0.00     0.162 HD
BRANCH  15  18
HETATM   18  C   UNL     1       6.705  34.360  64.529  1.00  0.00     0.103 C 
HETATM   19  C   UNL     1       5.898  35.516  63.936  1.00  0.00     0.248 C 
HETATM   20  N   UNL     1       4.417  35.204  63.964  1.00  0.00    -0.074 N 
HETATM   21  C   UNL     1       3.605  36.256  63.265  1.00  0.00     0.269 C 
HETATM   22  H   UNL     1       4.314  34.338  63.401  1.00  0.00     0.279 HD
HETATM   23  C   UNL     1       3.911  34.926  65.353  1.00  0.00     0.234 C 
HETATM   24  C   UNL     1       4.683  33.758  65.952  1.00  0.00     0.029 C 
HETATM   25  C   UNL     1       6.196  33.980  65.924  1.00  0.00     0.017 C 
ENDBRANCH  15  18
ENDBRANCH  13  14
ENDBRANCH  12  13
ENDBRANCH   1  12
BRANCH   6  26
HETATM   26  C   UNL     1       7.274  27.074  57.443  1.00  0.00     0.273 C 
BRANCH  26  27
HETATM   27  C   UNL     1       7.505  25.829  56.634  1.00  0.00    -0.033 A 
HETATM   28  C   UNL     1       6.749  25.579  55.483  1.00  0.00     0.010 A 
HETATM   29  C   UNL     1       6.946  24.405  54.748  1.00  0.00     0.015 A 
HETATM   30  C   UNL     1       7.902  23.457  55.137  1.00  0.00    -0.002 A 
HETATM   31  C   UNL     1       8.659  23.717  56.286  1.00  0.00     0.015 A 
HETATM   32  C   UNL     1       8.464  24.886  57.031  1.00  0.00     0.010 A 
BRANCH  30  33
HETATM   33  C   UNL     1       8.111  22.236  54.363  1.00  0.00     0.085 A 
HETATM   34  O   UNL     1       8.536  21.144  55.068  1.00  0.00    -0.322 OA
HETATM   35  C   UNL     1       8.674  20.119  54.189  1.00  0.00     0.142 A 
HETATM   36  C   UNL     1       8.346  20.529  52.921  1.00  0.00     0.027 A 
HETATM   37  C   UNL     1       7.984  21.895  53.030  1.00  0.00     0.040 A 
ENDBRANCH  30  33
ENDBRANCH  26  27
ENDBRANCH   6  26
TORSDOF 7
ENDMDL
MODEL 2
REMARK VINA RESULT:     -11.0      1.091      1.627
REMARK  7 active torsions:
REMARK  status: ('A' for Active; 'I' for Inactive)
REMARK    1  A    between atoms: C_5  and  C_6 
REMARK       I    between atoms: C_6  and  N_7 
REMARK    2  A    between atoms: N_7  and  C_8 
REMARK    3  A    between atoms: C_8  and  C_9 
REMARK    4  A    between atoms: C_9  and  C_10 
REMARK    5  A    between atoms: N_15  and  C_17 
REMARK    6  A    between atoms: C_17  and  C_18 
REMARK    7  A    between atoms: C_21  and  C_22 
ROOT
HETATM    1  C   UNL     1       7.786  32.188  59.557  1.00  0.00     0.131 A 
HETATM    2  N   UNL     1       7.809  31.177  58.620  1.00  0.00    -0.319 N 
HETATM    3  C   UNL     1       9.123  31.037  58.245  1.00  0.00     0.131 A 
HETATM    4  C   UNL     1       9.683  30.029  57.304  1.00  0.00     0.108 C 
HETATM    5  C   UNL     1       9.100  28.641  57.536  1.00  0.00     0.243 C 
HETATM    6  N   UNL     1       7.729  28.465  56.883  1.00  0.00    -0.065 N 
HETATM    7  H   UNL     1       7.933  28.229  55.901  1.00  0.00     0.280 HD
HETATM    8  C   UNL     1       6.844  29.698  56.831  1.00  0.00     0.255 C 
HETATM    9  C   UNL     1       6.673  30.397  58.180  1.00  0.00     0.159 C 
HETATM   10  N   UNL     1       9.839  31.933  58.884  1.00  0.00    -0.135 NA
HETATM   11  N   UNL     1       9.011  32.643  59.701  1.00  0.00    -0.135 NA
ENDROOT
BRANCH   1  12
HETATM   12  C   UNL     1       6.591  32.662  60.318  1.00  0.00     0.100 C 
BRANCH  12  13
HETATM   13  C   UNL     1       6.969  33.078  61.746  1.00  0.00     0.130 C 
BRANCH  13  14
HETATM   14  N   UNL     1       5.835  33.482  62.568  1.00  0.00    -0.360 N 
HETATM   15  C   UNL     1       5.904  33.549  63.936  1.00  0.00     0.223 C 
HETATM   16  O   UNL     1       6.953  33.521  64.576  1.00  0.00    -0.273 OA
HETATM   17  H   UNL     1       4.924  33.410  62.124  1.00  0.00     0.162 HD
BRANCH  15  18
HETATM   18  C   UNL     1       4.565  33.761  64.632  1.00  0.00     0.103 C 
HETATM   19  C   UNL     1       4.775  33.813  66.147  1.00  0.00     0.248 C 
HETATM   20  N   UNL     1       5.504  35.079  66.542  1.00  0.00    -0.074 N 
HETATM   21  C   UNL     1       5.849  35.099  68.004  1.00  0.00     0.269 C 
HETATM   22  H   UNL     1       6.408  35.041  66.032  1.00  0.00     0.279 HD
HETATM   23  C   UNL     1       4.774  36.323  66.114  1.00  0.00     0.234 C 
HETATM   24  C   UNL     1       4.580  36.306  64.604  1.00  0.00     0.029 C 
HETATM   25  C   UNL     1       3.883  35.034  64.118  1.00  0.00     0.017 C 
ENDBRANCH  15  18
ENDBRANCH  13  14
ENDBRANCH  12  13
ENDBRANCH   1  12
BRANCH   6  26
HETATM   26  C   UNL     1       6.996  27.238  57.414  1.00  0.00     0.273 C 
BRANCH  26  27
HETATM   27  C   UNL     1       7.277  25.993  56.623  1.00  0.00    -0.033 A 
HETATM   28  C   UNL     1       6.608  25.749  55.417  1.00  0.00     0.010 A 
HETATM   29  C   UNL     1       6.851  24.576  54.697  1.00  0.00     0.015 A 
HETATM   30  C   UNL     1       7.768  23.620  55.155  1.00  0.00    -0.002 A 
HETATM   31  C   UNL     1       8.439  23.872  56.358  1.00  0.00     0.015 A 
HETATM   32  C   UNL     1       8.197  25.042  57.088  1.00  0.00     0.010 A 
BRANCH  30  33
HETATM   33  C   UNL     1       8.025  22.398  54.397  1.00  0.00     0.085 A 
HETATM   34  O   UNL     1       8.517  21.340  55.111  1.00  0.00    -0.322 OA
HETATM   35  C   UNL     1       8.691  20.309  54.247  1.00  0.00     0.142 A 
HETATM   36  C   UNL     1       8.322  20.681  52.978  1.00  0.00     0.027 A 
HETATM   37  C   UNL     1       7.894  22.028  53.072  1.00  0.00     0.040 A 
ENDBRANCH  30  33
ENDBRANCH  26  27
ENDBRANCH   6  26
TORSDOF 7
ENDMDL
MODEL 3
REMARK VINA RESULT:     -10.7      1.368      1.931
REMARK  7 active torsions:
REMARK  status: ('A' for Active; 'I' for Inactive)
REMARK    1  A    between atoms: C_5  and  C_6 
REMARK       I    between atoms: C_6  and  N_7 
REMARK    2  A    between atoms: N_7  and  C_8 
REMARK    3  A    between atoms: C_8  and  C_9 
REMARK    4  A    between atoms: C_9  and  C_10 
REMARK    5  A    between atoms: N_15  and  C_17 
REMARK    6  A    between atoms: C_17  and  C_18 
REMARK    7  A    between atoms: C_21  and  C_22 
ROOT
HETATM    1  C   UNL     1       6.581  32.033  58.976  1.00  0.00     0.131 A 
HETATM    2  N   UNL     1       6.835  30.970  58.136  1.00  0.00    -0.319 N 
HETATM    3  C   UNL     1       8.194  30.768  58.180  1.00  0.00     0.131 A 
HETATM    4  C   UNL     1       8.961  29.692  57.496  1.00  0.00     0.108 C 
HETATM    5  C   UNL     1       8.272  28.338  57.604  1.00  0.00     0.243 C 
HETATM    6  N   UNL     1       7.151  28.168  56.578  1.00  0.00    -0.065 N 
HETATM    7  H   UNL     1       7.628  27.871  55.714  1.00  0.00     0.280 HD
HETATM    8  C   UNL     1       6.381  29.424  56.208  1.00  0.00     0.255 C 
HETATM    9  C   UNL     1       5.848  30.202  57.411  1.00  0.00     0.159 C 
HETATM   10  N   UNL     1       8.727  31.676  58.963  1.00  0.00    -0.135 NA
HETATM   11  N   UNL     1       7.727  32.457  59.462  1.00  0.00    -0.135 NA
ENDROOT
BRANCH   1  12
HETATM   12  C   UNL     1       5.237  32.586  59.322  1.00  0.00     0.100 C 
BRANCH  12  13
HETATM   13  C   UNL     1       4.904  32.357  60.802  1.00  0.00     0.130 C 
BRANCH  13  14
HETATM   14  N   UNL     1       5.542  33.304  61.709  1.00  0.00    -0.360 N 
HETATM   15  C   UNL     1       5.005  33.633  62.927  1.00  0.00     0.223 C 
HETATM   16  O   UNL     1       4.100  33.006  63.474  1.00  0.00    -0.273 OA
HETATM   17  H   UNL     1       6.217  33.932  61.283  1.00  0.00     0.162 HD
BRANCH  15  18
HETATM   18  C   UNL     1       5.684  34.804  63.628  1.00  0.00     0.103 C 
HETATM   19  C   UNL     1       4.827  35.264  64.809  1.00  0.00     0.248 C 
HETATM   20  N   UNL     1       4.839  34.228  65.913  1.00  0.00    -0.074 N 
HETATM   21  C   UNL     1       3.899  34.582  67.029  1.00  0.00     0.269 C 
HETATM   22  H   UNL     1       4.459  33.365  65.478  1.00  0.00     0.279 HD
HETATM   23  C   UNL     1       6.227  33.931  66.411  1.00  0.00     0.234 C 
HETATM   24  C   UNL     1       7.090  33.444  65.255  1.00  0.00     0.029 C 
HETATM   25  C   UNL     1       7.097  34.421  64.078  1.00  0.00     0.017 C 
ENDBRANCH  15  18
ENDBRANCH  13  14
ENDBRANCH  12  13
ENDBRANCH   1  12
BRANCH   6  26
HETATM   26  C   UNL     1       6.237  26.997  56.918  1.00  0.00     0.273 C 
BRANCH  26  27
HETATM   27  C   UNL     1       6.651  25.712  56.261  1.00  0.00    -0.033 A 
HETATM   28  C   UNL     1       7.413  24.768  56.960  1.00  0.00     0.010 A 
HETATM   29  C   UNL     1       7.822  23.585  56.336  1.00  0.00     0.015 A 
HETATM   30  C   UNL     1       7.479  23.311  55.005  1.00  0.00    -0.002 A 
HETATM   31  C   UNL     1       6.711  24.256  54.313  1.00  0.00     0.015 A 
HETATM   32  C   UNL     1       6.303  25.445  54.929  1.00  0.00     0.010 A 
BRANCH  30  33
HETATM   33  C   UNL     1       7.900  22.071  54.357  1.00  0.00     0.085 A 
HETATM   34  O   UNL     1       8.396  21.100  55.183  1.00  0.00    -0.322 OA
HETATM   35  C   UNL     1       8.732  20.038  54.408  1.00  0.00     0.142 A 
HETATM   36  C   UNL     1       8.464  20.305  53.089  1.00  0.00     0.027 A 
HETATM   37  C   UNL     1       7.929  21.616  53.052  1.00  0.00     0.040 A 
ENDBRANCH  30  33
ENDBRANCH  26  27
ENDBRANCH   6  26
TORSDOF 7
ENDMDL
MODEL 4
REMARK VINA RESULT:     -10.5      1.238      1.703
REMARK  7 active torsions:
REMARK  status: ('A' for Active; 'I' for Inactive)
REMARK    1  A    between atoms: C_5  and  C_6 
REMARK       I    between atoms: C_6  and  N_7 
REMARK    2  A    between atoms: N_7  and  C_8 
REMARK    3  A    between atoms: C_8  and  C_9 
REMARK    4  A    between atoms: C_9  and  C_10 
REMARK    5  A    between atoms: N_15  and  C_17 
REMARK    6  A    between atoms: C_17  and  C_18 
REMARK    7  A    between atoms: C_21  and  C_22 
ROOT
HETATM    1  C   UNL     1       9.346  31.790  59.184  1.00  0.00     0.131 A 
HETATM    2  N   UNL     1       8.786  30.906  58.287  1.00  0.00    -0.319 N 
HETATM    3  C   UNL     1       9.787  30.571  57.408  1.00  0.00     0.131 A 
HETATM    4  C   UNL     1       9.706  29.592  56.290  1.00  0.00     0.108 C 
HETATM    5  C   UNL     1       8.977  28.317  56.694  1.00  0.00     0.243 C 
HETATM    6  N   UNL     1       7.457  28.472  56.648  1.00  0.00    -0.065 N 
HETATM    7  H   UNL     1       7.207  28.317  55.660  1.00  0.00     0.280 HD
HETATM    8  C   UNL     1       6.908  29.845  56.997  1.00  0.00     0.255 C 
HETATM    9  C   UNL     1       7.430  30.403  58.321  1.00  0.00     0.159 C 
HETATM   10  N   UNL     1      10.869  31.241  57.730  1.00  0.00    -0.135 NA
HETATM   11  N   UNL     1      10.598  31.992  58.834  1.00  0.00    -0.135 NA
ENDROOT
BRANCH   1  12
HETATM   12  C   UNL     1       8.675  32.385  60.378  1.00  0.00     0.100 C 
BRANCH  12  13
HETATM   13  C   UNL     1       8.230  31.299  61.367  1.00  0.00     0.130 C 
BRANCH  13  14
HETATM   14  N   UNL     1       6.880  31.484  61.885  1.00  0.00    -0.360 N 
HETATM   15  C   UNL     1       6.592  32.372  62.891  1.00  0.00     0.223 C 
HETATM   16  O   UNL     1       7.361  33.251  63.275  1.00  0.00    -0.273 OA
HETATM   17  H   UNL     1       6.231  30.725  61.697  1.00  0.00     0.162 HD
BRANCH  15  18
HETATM   18  C   UNL     1       5.182  32.259  63.455  1.00  0.00     0.103 C 
HETATM   19  C   UNL     1       4.970  33.330  64.527  1.00  0.00     0.248 C 
HETATM   20  N   UNL     1       4.916  34.708  63.902  1.00  0.00    -0.074 N 
HETATM   21  C   UNL     1       4.847  35.795  64.936  1.00  0.00     0.269 C 
HETATM   22  H   UNL     1       5.829  34.823  63.422  1.00  0.00     0.279 HD
HETATM   23  C   UNL     1       3.824  34.832  62.874  1.00  0.00     0.234 C 
HETATM   24  C   UNL     1       4.032  33.792  61.781  1.00  0.00     0.029 C 
HETATM   25  C   UNL     1       4.139  32.371  62.338  1.00  0.00     0.017 C 
ENDBRANCH  15  18
ENDBRANCH  13  14
ENDBRANCH  12  13
ENDBRANCH   1  12
BRANCH   6  26
HETATM   26  C   UNL     1       6.744  27.348  57.392  1.00  0.00     0.273 C 
BRANCH  26  27
HETATM   27  C   UNL     1       7.071  25.984  56.856  1.00  0.00    -0.033 A 
HETATM   28  C   UNL     1       6.438  25.501  55.704  1.00  0.00     0.010 A 
HETATM   29  C   UNL     1       6.723  24.219  55.224  1.00  0.00     0.015 A 
HETATM   30  C   UNL     1       7.648  23.390  55.872  1.00  0.00    -0.002 A 
HETATM   31  C   UNL     1       8.283  23.881  57.020  1.00  0.00     0.015 A 
HETATM   32  C   UNL     1       7.998  25.161  57.511  1.00  0.00     0.010 A 
BRANCH  30  33
HETATM   33  C   UNL     1       7.950  22.054  55.364  1.00  0.00     0.085 A 
HETATM   34  O   UNL     1       7.754  21.862  54.025  1.00  0.00    -0.322 OA
HETATM   35  C   UNL     1       8.083  20.576  53.744  1.00  0.00     0.142 A 
HETATM   36  C   UNL     1       8.489  19.926  54.883  1.00  0.00     0.027 A 
HETATM   37  C   UNL     1       8.403  20.877  55.931  1.00  0.00     0.040 A 
ENDBRANCH  30  33
ENDBRANCH  26  27
ENDBRANCH   6  26
TORSDOF 7
ENDMDL
MODEL 5
REMARK VINA RESULT:     -10.2      1.692      2.616
REMARK  7 active torsions:
REMARK  status: ('A' for Active; 'I' for Inactive)
REMARK    1  A    between atoms: C_5  and  C_6 
REMARK       I    between atoms: C_6  and  N_7 
REMARK    2  A    between atoms: N_7  and  C_8 
REMARK    3  A    between atoms: C_8  and  C_9 
REMARK    4  A    between atoms: C_9  and  C_10 
REMARK    5  A    between atoms: N_15  and  C_17 
REMARK    6  A    between atoms: C_17  and  C_18 
REMARK    7  A    between atoms: C_21  and  C_22 
ROOT
HETATM    1  C   UNL     1       7.793  31.249  59.213  1.00  0.00     0.131 A 
HETATM    2  N   UNL     1       7.206  30.388  58.311  1.00  0.00    -0.319 N 
HETATM    3  C   UNL     1       6.141  31.069  57.774  1.00  0.00     0.131 A 
HETATM    4  C   UNL     1       5.225  30.595  56.701  1.00  0.00     0.108 C 
HETATM    5  C   UNL     1       5.976  29.909  55.567  1.00  0.00     0.243 C 
HETATM    6  N   UNL     1       6.323  28.455  55.889  1.00  0.00    -0.065 N 
HETATM    7  H   UNL     1       5.469  27.925  55.663  1.00  0.00     0.280 HD
HETATM    8  C   UNL     1       6.623  28.142  57.345  1.00  0.00     0.255 C 
HETATM    9  C   UNL     1       7.671  29.060  57.974  1.00  0.00     0.159 C 
HETATM   10  N   UNL     1       6.067  32.249  58.344  1.00  0.00    -0.135 NA
HETATM   11  N   UNL     1       7.095  32.363  59.233  1.00  0.00    -0.135 NA
ENDROOT
BRANCH   1  12
HETATM   12  C   UNL     1       9.036  30.993  60.002  1.00  0.00     0.100 C 
BRANCH  12  13
HETATM   13  C   UNL     1       8.724  30.831  61.496  1.00  0.00     0.130 C 
BRANCH  13  14
HETATM   14  N   UNL     1       7.336  31.109  61.846  1.00  0.00    -0.360 N 
HETATM   15  C   UNL     1       6.990  32.011  62.821  1.00  0.00     0.223 C 
HETATM   16  O   UNL     1       7.765  32.831  63.309  1.00  0.00    -0.273 OA
HETATM   17  H   UNL     1       6.664  30.401  61.570  1.00  0.00     0.162 HD
BRANCH  15  18
HETATM   18  C   UNL     1       5.516  31.997  63.206  1.00  0.00     0.103 C 
HETATM   19  C   UNL     1       5.252  33.065  64.269  1.00  0.00     0.248 C 
HETATM   20  N   UNL     1       5.376  34.452  63.676  1.00  0.00    -0.074 N 
HETATM   21  C   UNL     1       5.259  35.525  64.719  1.00  0.00     0.269 C 
HETATM   22  H   UNL     1       6.347  34.504  63.314  1.00  0.00     0.279 HD
HETATM   23  C   UNL     1       4.432  34.674  62.525  1.00  0.00     0.234 C 
HETATM   24  C   UNL     1       4.697  33.637  61.441  1.00  0.00     0.029 C 
HETATM   25  C   UNL     1       4.630  32.204  61.973  1.00  0.00     0.017 C 
ENDBRANCH  15  18
ENDBRANCH  13  14
ENDBRANCH  12  13
ENDBRANCH   1  12
BRANCH   6  26
HETATM   26  C   UNL     1       7.372  27.893  54.938  1.00  0.00     0.273 C 
BRANCH  26  27
HETATM   27  C   UNL     1       7.533  26.404  55.048  1.00  0.00    -0.033 A 
HETATM   28  C   UNL     1       7.820  25.808  56.282  1.00  0.00     0.010 A 
HETATM   29  C   UNL     1       7.997  24.424  56.377  1.00  0.00     0.015 A 
HETATM   30  C   UNL     1       7.888  23.600  55.249  1.00  0.00    -0.002 A 
HETATM   31  C   UNL     1       7.594  24.201  54.018  1.00  0.00     0.015 A 
HETATM   32  C   UNL     1       7.421  25.586  53.915  1.00  0.00     0.010 A 
BRANCH  30  33
HETATM   33  C   UNL     1       8.066  22.154  55.351  1.00  0.00     0.085 A 
HETATM   34  O   UNL     1       8.162  21.475  54.168  1.00  0.00    -0.322 OA
HETATM   35  C   UNL     1       8.321  20.160  54.463  1.00  0.00     0.142 A 
HETATM   36  C   UNL     1       8.327  19.972  55.823  1.00  0.00     0.027 A 
HETATM   37  C   UNL     1       8.162  21.257  56.399  1.00  0.00     0.040 A 
ENDBRANCH  30  33
ENDBRANCH  26  27
ENDBRANCH   6  26
TORSDOF 7
ENDMDL
MODEL 6
REMARK VINA RESULT:      -9.6      2.224      3.167
REMARK  7 active torsions:
REMARK  status: ('A' for Active; 'I' for Inactive)
REMARK    1  A    between atoms: C_5  and  C_6 
REMARK       I    between atoms: C_6  and  N_7 
REMARK    2  A    between atoms: N_7  and  C_8 
REMARK    3  A    between atoms: C_8  and  C_9 
REMARK    4  A    between atoms: C_9  and  C_10 
REMARK    5  A    between atoms: N_15  and  C_17 
REMARK    6  A    between atoms: C_17  and  C_18 
REMARK    7  A    between atoms: C_21  and  C_22 
ROOT
HETATM    1  C   UNL     1       5.397  31.929  58.632  1.00  0.00     0.131 A 
HETATM    2  N   UNL     1       5.328  30.777  57.878  1.00  0.00    -0.319 N 
HETATM    3  C   UNL     1       4.169  30.871  57.147  1.00  0.00     0.131 A 
HETATM    4  C   UNL     1       3.673  29.907  56.127  1.00  0.00     0.108 C 
HETATM    5  C   UNL     1       4.785  29.429  55.202  1.00  0.00     0.243 C 
HETATM    6  N   UNL     1       5.625  28.313  55.825  1.00  0.00    -0.065 N 
HETATM    7  H   UNL     1       5.089  27.451  55.648  1.00  0.00     0.280 HD
HETATM    8  C   UNL     1       5.815  28.373  57.330  1.00  0.00     0.255 C 
HETATM    9  C   UNL     1       6.319  29.725  57.838  1.00  0.00     0.159 C 
HETATM   10  N   UNL     1       3.558  31.987  57.470  1.00  0.00    -0.135 NA
HETATM   11  N   UNL     1       4.322  32.646  58.387  1.00  0.00    -0.135 NA
ENDROOT
BRANCH   1  12
HETATM   12  C   UNL     1       6.515  32.328  59.539  1.00  0.00     0.100 C 
BRANCH  12  13
HETATM   13  C   UNL     1       6.100  32.228  61.013  1.00  0.00     0.130 C 
BRANCH  13  14
HETATM   14  N   UNL     1       5.258  33.327  61.469  1.00  0.00    -0.360 N 
HETATM   15  C   UNL     1       4.621  33.311  62.684  1.00  0.00     0.223 C 
HETATM   16  O   UNL     1       4.880  32.518  63.588  1.00  0.00    -0.273 OA
HETATM   17  H   UNL     1       4.915  33.948  60.742  1.00  0.00     0.162 HD
BRANCH  15  18
HETATM   18  C   UNL     1       3.607  34.430  62.887  1.00  0.00     0.103 C 
HETATM   19  C   UNL     1       3.128  34.433  64.340  1.00  0.00     0.248 C 
HETATM   20  N   UNL     1       4.237  34.885  65.267  1.00  0.00    -0.074 N 
HETATM   21  C   UNL     1       3.847  34.769  66.712  1.00  0.00     0.269 C 
HETATM   22  H   UNL     1       5.006  34.203  65.119  1.00  0.00     0.279 HD
HETATM   23  C   UNL     1       4.752  36.257  64.925  1.00  0.00     0.234 C 
HETATM   24  C   UNL     1       5.260  36.268  63.490  1.00  0.00     0.029 C 
HETATM   25  C   UNL     1       4.207  35.783  62.492  1.00  0.00     0.017 C 
ENDBRANCH  15  18
ENDBRANCH  13  14
ENDBRANCH  12  13
ENDBRANCH   1  12
BRANCH   6  26
HETATM   26  C   UNL     1       6.934  28.096  55.075  1.00  0.00     0.273 C 
BRANCH  26  27
HETATM   27  C   UNL     1       7.211  26.651  54.774  1.00  0.00    -0.033 A 
HETATM   28  C   UNL     1       7.351  25.722  55.812  1.00  0.00     0.010 A 
HETATM   29  C   UNL     1       7.637  24.382  55.530  1.00  0.00     0.015 A 
HETATM   30  C   UNL     1       7.784  23.934  54.211  1.00  0.00    -0.002 A 
HETATM   31  C   UNL     1       7.636  24.867  53.176  1.00  0.00     0.015 A 
HETATM   32  C   UNL     1       7.356  26.210  53.451  1.00  0.00     0.010 A 
BRANCH  30  33
HETATM   33  C   UNL     1       8.076  22.533  53.918  1.00  0.00     0.085 A 
HETATM   34  O   UNL     1       8.551  21.787  54.962  1.00  0.00    -0.322 OA
HETATM   35  C   UNL     1       8.761  20.528  54.502  1.00  0.00     0.142 A 
HETATM   36  C   UNL     1       8.433  20.444  53.171  1.00  0.00     0.027 A 
HETATM   37  C   UNL     1       7.991  21.736  52.792  1.00  0.00     0.040 A 
ENDBRANCH  30  33
ENDBRANCH  26  27
ENDBRANCH   6  26
TORSDOF 7
ENDMDL
MODEL 7
REMARK VINA RESULT:      -9.3      2.982      3.936
REMARK  7 active torsions:
REMARK  status: ('A' for Active; 'I' for Inactive)
REMARK    1  A    between atoms: C_5  and  C_6 
REMARK       I    between atoms: C_6  and  N_7 
REMARK    2  A    between atoms: N_7  and  C_8 
REMARK    3  A    between atoms: C_8  and  C_9 
REMARK    4  A    between atoms: C_9  and  C_10 
REMARK    5  A    between atoms: N_15  and  C_17 
REMARK    6  A    between atoms: C_17  and  C_18 
REMARK    7  A    between atoms: C_21  and  C_22 
ROOT
HETATM    1  C   UNL     1       3.514  31.619  57.170  1.00  0.00     0.131 A 
HETATM    2  N   UNL     1       3.849  30.519  56.411  1.00  0.00    -0.319 N 
HETATM    3  C   UNL     1       3.309  30.737  55.167  1.00  0.00     0.131 A 
HETATM    4  C   UNL     1       3.448  29.870  53.966  1.00  0.00     0.108 C 
HETATM    5  C   UNL     1       4.872  29.362  53.786  1.00  0.00     0.243 C 
HETATM    6  N   UNL     1       5.180  28.155  54.673  1.00  0.00    -0.065 N 
HETATM    7  H   UNL     1       4.812  27.345  54.153  1.00  0.00     0.280 HD
HETATM    8  C   UNL     1       4.488  28.118  56.025  1.00  0.00     0.255 C 
HETATM    9  C   UNL     1       4.657  29.399  56.843  1.00  0.00     0.159 C 
HETATM   10  N   UNL     1       2.655  31.875  55.188  1.00  0.00    -0.135 NA
HETATM   11  N   UNL     1       2.787  32.425  56.428  1.00  0.00    -0.135 NA
ENDROOT
BRANCH   1  12
HETATM   12  C   UNL     1       3.936  31.885  58.579  1.00  0.00     0.100 C 
BRANCH  12  13
HETATM   13  C   UNL     1       4.074  33.390  58.844  1.00  0.00     0.130 C 
BRANCH  13  14
HETATM   14  N   UNL     1       4.947  33.718  59.965  1.00  0.00    -0.360 N 
HETATM   15  C   UNL     1       4.491  34.352  61.093  1.00  0.00     0.223 C 
HETATM   16  O   UNL     1       3.302  34.483  61.377  1.00  0.00    -0.273 OA
HETATM   17  H   UNL     1       5.940  33.742  59.754  1.00  0.00     0.162 HD
BRANCH  15  18
HETATM   18  C   UNL     1       5.583  34.817  62.047  1.00  0.00     0.103 C 
HETATM   19  C   UNL     1       4.952  35.296  63.357  1.00  0.00     0.248 C 
HETATM   20  N   UNL     1       4.378  34.128  64.131  1.00  0.00    -0.074 N 
HETATM   21  C   UNL     1       3.629  34.576  65.354  1.00  0.00     0.269 C 
HETATM   22  H   UNL     1       3.671  33.707  63.498  1.00  0.00     0.279 HD
HETATM   23  C   UNL     1       5.411  33.081  64.448  1.00  0.00     0.234 C 
HETATM   24  C   UNL     1       6.032  32.570  63.155  1.00  0.00     0.029 C 
HETATM   25  C   UNL     1       6.601  33.699  62.293  1.00  0.00     0.017 C 
ENDBRANCH  15  18
ENDBRANCH  13  14
ENDBRANCH  12  13
ENDBRANCH   1  12
BRANCH   6  26
HETATM   26  C   UNL     1       6.676  27.883  54.771  1.00  0.00     0.273 C 
BRANCH  26  27
HETATM   27  C   UNL     1       7.029  26.437  54.576  1.00  0.00    -0.033 A 
HETATM   28  C   UNL     1       7.008  25.547  55.656  1.00  0.00     0.010 A 
HETATM   29  C   UNL     1       7.364  24.206  55.477  1.00  0.00     0.015 A 
HETATM   30  C   UNL     1       7.745  23.718  54.219  1.00  0.00    -0.002 A 
HETATM   31  C   UNL     1       7.758  24.613  53.141  1.00  0.00     0.015 A 
HETATM   32  C   UNL     1       7.408  25.957  53.314  1.00  0.00     0.010 A 
BRANCH  30  33
HETATM   33  C   UNL     1       8.110  22.316  54.033  1.00  0.00     0.085 A 
HETATM   34  O   UNL     1       8.537  21.653  55.150  1.00  0.00    -0.322 OA
HETATM   35  C   UNL     1       8.829  20.379  54.782  1.00  0.00     0.142 A 
HETATM   36  C   UNL     1       8.598  20.205  53.440  1.00  0.00     0.027 A 
HETATM   37  C   UNL     1       8.136  21.453  52.954  1.00  0.00     0.040 A 
ENDBRANCH  30  33
ENDBRANCH  26  27
ENDBRANCH   6  26
TORSDOF 7
ENDMDL
MODEL 8
REMARK VINA RESULT:      -9.2      2.683      3.867
REMARK  7 active torsions:
REMARK  status: ('A' for Active; 'I' for Inactive)
REMARK    1  A    between atoms: C_5  and  C_6 
REMARK       I    between atoms: C_6  and  N_7 
REMARK    2  A    between atoms: N_7  and  C_8 
REMARK    3  A    between atoms: C_8  and  C_9 
REMARK    4  A    between atoms: C_9  and  C_10 
REMARK    5  A    between atoms: N_15  and  C_17 
REMARK    6  A    between atoms: C_17  and  C_18 
REMARK    7  A    between atoms: C_21  and  C_22 
ROOT
HETATM    1  C   UNL     1       4.280  32.274  57.536  1.00  0.00     0.131 A 
HETATM    2  N   UNL     1       4.501  30.974  57.135  1.00  0.00    -0.319 N 
HETATM    3  C   UNL     1       3.476  30.663  56.274  1.00  0.00     0.131 A 
HETATM    4  C   UNL     1       3.298  29.394  55.517  1.00  0.00     0.108 C 
HETATM    5  C   UNL     1       4.604  28.903  54.905  1.00  0.00     0.243 C 
HETATM    6  N   UNL     1       5.480  28.159  55.913  1.00  0.00    -0.065 N 
HETATM    7  H   UNL     1       5.108  27.198  55.925  1.00  0.00     0.280 HD
HETATM    8  C   UNL     1       5.409  28.640  57.352  1.00  0.00     0.255 C 
HETATM    9  C   UNL     1       5.624  30.145  57.513  1.00  0.00     0.159 C 
HETATM   10  N   UNL     1       2.668  31.694  56.194  1.00  0.00    -0.135 NA
HETATM   11  N   UNL     1       3.169  32.695  56.972  1.00  0.00    -0.135 NA
ENDROOT
BRANCH   1  12
HETATM   12  C   UNL     1       5.165  33.091  58.420  1.00  0.00     0.100 C 
BRANCH  12  13
HETATM   13  C   UNL     1       4.365  33.760  59.545  1.00  0.00     0.130 C 
BRANCH  13  14
HETATM   14  N   UNL     1       4.404  33.040  60.812  1.00  0.00    -0.360 N 
HETATM   15  C   UNL     1       4.823  33.625  61.980  1.00  0.00     0.223 C 
HETATM   16  O   UNL     1       4.966  34.837  62.131  1.00  0.00    -0.273 OA
HETATM   17  H   UNL     1       4.409  32.027  60.740  1.00  0.00     0.162 HD
BRANCH  15  18
HETATM   18  C   UNL     1       5.015  32.660  63.143  1.00  0.00     0.103 C 
HETATM   19  C   UNL     1       6.015  31.571  62.747  1.00  0.00     0.248 C 
HETATM   20  N   UNL     1       7.409  32.146  62.622  1.00  0.00    -0.074 N 
HETATM   21  C   UNL     1       8.392  31.135  62.102  1.00  0.00     0.269 C 
HETATM   22  H   UNL     1       7.335  32.879  61.891  1.00  0.00     0.279 HD
HETATM   23  C   UNL     1       7.883  32.795  63.895  1.00  0.00     0.234 C 
HETATM   24  C   UNL     1       6.916  33.903  64.291  1.00  0.00     0.029 C 
HETATM   25  C   UNL     1       5.472  33.409  64.399  1.00  0.00     0.017 C 
ENDBRANCH  15  18
ENDBRANCH  13  14
ENDBRANCH  12  13
ENDBRANCH   1  12
BRANCH   6  26
HETATM   26  C   UNL     1       6.912  27.997  55.417  1.00  0.00     0.273 C 
BRANCH  26  27
HETATM   27  C   UNL     1       7.261  26.578  55.070  1.00  0.00    -0.033 A 
HETATM   28  C   UNL     1       7.569  26.223  53.751  1.00  0.00     0.010 A 
HETATM   29  C   UNL     1       7.866  24.896  53.426  1.00  0.00     0.015 A 
HETATM   30  C   UNL     1       7.869  23.892  54.403  1.00  0.00    -0.002 A 
HETATM   31  C   UNL     1       7.566  24.255  55.722  1.00  0.00     0.015 A 
HETATM   32  C   UNL     1       7.262  25.580  56.055  1.00  0.00     0.010 A 
BRANCH  30  33
HETATM   33  C   UNL     1       8.187  22.508  54.062  1.00  0.00     0.085 A 
HETATM   34  O   UNL     1       7.538  21.993  52.974  1.00  0.00    -0.322 OA
HETATM   35  C   UNL     1       7.957  20.712  52.817  1.00  0.00     0.142 A 
HETATM   36  C   UNL     1       8.868  20.384  53.791  1.00  0.00     0.027 A 
HETATM   37  C   UNL     1       9.017  21.540  54.596  1.00  0.00     0.040 A 
ENDBRANCH  30  33
ENDBRANCH  26  27
ENDBRANCH   6  26
TORSDOF 7
ENDMDL
MODEL 9
REMARK VINA RESULT:      -9.0      9.326     12.554
REMARK  7 active torsions:
REMARK  status: ('A' for Active; 'I' for Inactive)
REMARK    1  A    between atoms: C_5  and  C_6 
REMARK       I    between atoms: C_6  and  N_7 
REMARK    2  A    between atoms: N_7  and  C_8 
REMARK    3  A    between atoms: C_8  and  C_9 
REMARK    4  A    between atoms: C_9  and  C_10 
REMARK    5  A    between atoms: N_15  and  C_17 
REMARK    6  A    between atoms: C_17  and  C_18 
REMARK    7  A    between atoms: C_21  and  C_22 
ROOT
HETATM    1  C   UNL     1       3.909  30.761  48.477  1.00  0.00     0.131 A 
HETATM    2  N   UNL     1       3.962  29.678  49.328  1.00  0.00    -0.319 N 
HETATM    3  C   UNL     1       3.781  28.567  48.540  1.00  0.00     0.131 A 
HETATM    4  C   UNL     1       3.821  27.144  48.976  1.00  0.00     0.108 C 
HETATM    5  C   UNL     1       4.974  26.870  49.933  1.00  0.00     0.243 C 
HETATM    6  N   UNL     1       4.654  27.284  51.370  1.00  0.00    -0.065 N 
HETATM    7  H   UNL     1       4.124  26.491  51.760  1.00  0.00     0.280 HD
HETATM    8  C   UNL     1       3.755  28.496  51.537  1.00  0.00     0.255 C 
HETATM    9  C   UNL     1       4.216  29.724  50.751  1.00  0.00     0.159 C 
HETATM   10  N   UNL     1       3.589  28.958  47.302  1.00  0.00    -0.135 NA
HETATM   11  N   UNL     1       3.674  30.318  47.262  1.00  0.00    -0.135 NA
ENDROOT
BRANCH   1  12
HETATM   12  C   UNL     1       4.125  32.191  48.850  1.00  0.00     0.100 C 
BRANCH  12  13
HETATM   13  C   UNL     1       4.198  33.086  47.606  1.00  0.00     0.130 C 
BRANCH  13  14
HETATM   14  N   UNL     1       5.532  33.196  47.030  1.00  0.00    -0.360 N 
HETATM   15  C   UNL     1       5.773  33.851  45.848  1.00  0.00     0.223 C 
HETATM   16  O   UNL     1       4.967  34.599  45.298  1.00  0.00    -0.273 OA
HETATM   17  H   UNL     1       6.212  32.519  47.364  1.00  0.00     0.162 HD
BRANCH  15  18
HETATM   18  C   UNL     1       7.178  33.663  45.290  1.00  0.00     0.103 C 
HETATM   19  C   UNL     1       7.236  34.188  43.854  1.00  0.00     0.248 C 
HETATM   20  N   UNL     1       7.122  35.697  43.832  1.00  0.00    -0.074 N 
HETATM   21  C   UNL     1       7.036  36.237  42.433  1.00  0.00     0.269 C 
HETATM   22  H   UNL     1       6.208  35.906  44.279  1.00  0.00     0.279 HD
HETATM   23  C   UNL     1       8.203  36.369  44.635  1.00  0.00     0.234 C 
HETATM   24  C   UNL     1       8.145  35.882  46.076  1.00  0.00     0.029 C 
HETATM   25  C   UNL     1       8.213  34.357  46.181  1.00  0.00     0.017 C 
ENDBRANCH  15  18
ENDBRANCH  13  14
ENDBRANCH  12  13
ENDBRANCH   1  12
BRANCH   6  26
HETATM   26  C   UNL     1       5.906  27.356  52.236  1.00  0.00     0.273 C 
BRANCH  26  27
HETATM   27  C   UNL     1       6.374  26.011  52.712  1.00  0.00    -0.033 A 
HETATM   28  C   UNL     1       5.772  25.398  53.818  1.00  0.00     0.010 A 
HETATM   29  C   UNL     1       6.229  24.158  54.276  1.00  0.00     0.015 A 
HETATM   30  C   UNL     1       7.290  23.497  53.644  1.00  0.00    -0.002 A 
HETATM   31  C   UNL     1       7.884  24.112  52.534  1.00  0.00     0.015 A 
HETATM   32  C   UNL     1       7.436  25.356  52.073  1.00  0.00     0.010 A 
BRANCH  30  33
HETATM   33  C   UNL     1       7.761  22.198  54.120  1.00  0.00     0.085 A 
HETATM   34  O   UNL     1       8.276  21.360  53.170  1.00  0.00    -0.322 OA
HETATM   35  C   UNL     1       8.655  20.217  53.795  1.00  0.00     0.142 A 
HETATM   36  C   UNL     1       8.391  20.298  55.140  1.00  0.00     0.027 A 
HETATM   37  C   UNL     1       7.813  21.574  55.353  1.00  0.00     0.040 A 
ENDBRANCH  30  33
ENDBRANCH  26  27
ENDBRANCH   6  26
TORSDOF 7
ENDMDL
MODEL 10
REMARK VINA RESULT:      -9.0     10.452     14.696
REMARK  7 active torsions:
REMARK  status: ('A' for Active; 'I' for Inactive)
REMARK    1  A    between atoms: C_5  and  C_6 
REMARK       I    between atoms: C_6  and  N_7 
REMARK    2  A    between atoms: N_7  and  C_8 
REMARK    3  A    between atoms: C_8  and  C_9 
REMARK    4  A    between atoms: C_9  and  C_10 
REMARK    5  A    between atoms: N_15  and  C_17 
REMARK    6  A    between atoms: C_17  and  C_18 
REMARK    7  A    between atoms: C_21  and  C_22 
ROOT
HETATM    1  C   UNL     1       1.918  28.330  47.265  1.00  0.00     0.131 A 
HETATM    2  N   UNL     1       3.048  27.992  47.978  1.00  0.00    -0.319 N 
HETATM    3  C   UNL     1       3.986  28.950  47.678  1.00  0.00     0.131 A 
HETATM    4  C   UNL     1       5.356  29.070  48.247  1.00  0.00     0.108 C 
HETATM    5  C   UNL     1       5.374  28.836  49.752  1.00  0.00     0.243 C 
HETATM    6  N   UNL     1       5.372  27.351  50.115  1.00  0.00    -0.065 N 
HETATM    7  H   UNL     1       6.358  27.062  50.044  1.00  0.00     0.280 HD
HETATM    8  C   UNL     1       4.610  26.430  49.177  1.00  0.00     0.255 C 
HETATM    9  C   UNL     1       3.176  26.881  48.895  1.00  0.00     0.159 C 
HETATM   10  N   UNL     1       3.469  29.787  46.809  1.00  0.00    -0.135 NA
HETATM   11  N   UNL     1       2.184  29.406  46.557  1.00  0.00    -0.135 NA
ENDROOT
BRANCH   1  12
HETATM   12  C   UNL     1       0.597  27.632  47.314  1.00  0.00     0.100 C 
BRANCH  12  13
HETATM   13  C   UNL     1       0.056  27.365  45.904  1.00  0.00     0.130 C 
BRANCH  13  14
HETATM   14  N   UNL     1      -0.383  28.563  45.198  1.00  0.00    -0.360 N 
HETATM   15  C   UNL     1      -0.991  28.512  43.969  1.00  0.00     0.223 C 
HETATM   16  O   UNL     1      -1.439  27.485  43.463  1.00  0.00    -0.273 OA
HETATM   17  H   UNL     1       0.049  29.431  45.499  1.00  0.00     0.162 HD
BRANCH  15  18
HETATM   18  C   UNL     1      -1.166  29.864  43.290  1.00  0.00     0.103 C 
HETATM   19  C   UNL     1      -1.954  29.689  41.990  1.00  0.00     0.248 C 
HETATM   20  N   UNL     1      -3.395  29.331  42.284  1.00  0.00    -0.074 N 
HETATM   21  C   UNL     1      -4.165  29.016  41.033  1.00  0.00     0.269 C 
HETATM   22  H   UNL     1      -3.349  28.446  42.825  1.00  0.00     0.279 HD
HETATM   23  C   UNL     1      -4.086  30.366  43.130  1.00  0.00     0.234 C 
HETATM   24  C   UNL     1      -3.333  30.536  44.443  1.00  0.00     0.029 C 
HETATM   25  C   UNL     1      -1.853  30.860  44.230  1.00  0.00     0.017 C 
ENDBRANCH  15  18
ENDBRANCH  13  14
ENDBRANCH  12  13
ENDBRANCH   1  12
BRANCH   6  26
HETATM   26  C   UNL     1       5.021  27.120  51.580  1.00  0.00     0.273 C 
BRANCH  26  27
HETATM   27  C   UNL     1       5.763  25.966  52.191  1.00  0.00    -0.033 A 
HETATM   28  C   UNL     1       5.304  25.370  53.371  1.00  0.00     0.010 A 
HETATM   29  C   UNL     1       6.013  24.315  53.954  1.00  0.00     0.015 A 
HETATM   30  C   UNL     1       7.191  23.824  53.375  1.00  0.00    -0.002 A 
HETATM   31  C   UNL     1       7.642  24.421  52.190  1.00  0.00     0.015 A 
HETATM   32  C   UNL     1       6.941  25.482  51.604  1.00  0.00     0.010 A 
BRANCH  30  33
HETATM   33  C   UNL     1       7.926  22.717  53.981  1.00  0.00     0.085 A 
HETATM   34  O   UNL     1       7.808  21.505  53.359  1.00  0.00    -0.322 OA
HETATM   35  C   UNL     1       8.551  20.612  54.060  1.00  0.00     0.142 A 
HETATM   36  C   UNL     1       9.150  21.225  55.132  1.00  0.00     0.027 A 
HETATM   37  C   UNL     1       8.748  22.583  55.084  1.00  0.00     0.040 A 
ENDBRANCH  30  33
ENDBRANCH  26  27
ENDBRANCH   6  26
TORSDOF 7
ENDMDL
