MODEL 1
REMARK VINA RESULT:      -8.8      0.000      0.000
REMARK  3 active torsions:
REMARK  status: ('A' for Active; 'I' for Inactive)
REMARK    1  A    between atoms: C_2  and  C_3 
REMARK    2  A    between atoms: C_7  and  N_8 
REMARK       I    between atoms: N_8  and  C_9 
REMARK    3  A    between atoms: C_9  and  C_10 
ROOT
HETATM    1  N   UNL     1       7.544  27.983  56.170  1.00  0.00    -0.309 N 
HETATM    2  C   UNL     1       7.710  26.616  56.156  1.00  0.00     0.234 C 
HETATM    3  O   UNL     1       8.318  25.952  56.988  1.00  0.00    -0.272 OA
HETATM    4  H   UNL     1       7.183  28.455  55.352  1.00  0.00     0.170 HD
ENDROOT
BRANCH   2   5
HETATM    5  C   UNL     1       7.053  25.978  54.943  1.00  0.00     0.138 C 
HETATM    6  C   UNL     1       7.449  24.562  54.695  1.00  0.00    -0.008 A 
HETATM    7  C   UNL     1       7.707  24.398  53.342  1.00  0.00     0.076 A 
HETATM    8  C   UNL     1       7.516  23.480  55.560  1.00  0.00     0.030 A 
HETATM    9  C   UNL     1       8.035  23.173  52.796  1.00  0.00     0.039 A 
HETATM   10  O   UNL     1       7.584  25.549  52.611  1.00  0.00    -0.349 OA
HETATM   11  C   UNL     1       8.120  22.077  53.655  1.00  0.00     0.022 A 
HETATM   12  C   UNL     1       7.864  22.235  55.026  1.00  0.00     0.011 A 
HETATM   13 BR   UNL     1       7.979  20.733  56.171  1.00  0.00    -0.051 Br
HETATM   14  C   UNL     1       7.536  26.588  53.620  1.00  0.00     0.194 C 
ENDBRANCH   2   5
BRANCH   1  15
HETATM   15  C   UNL     1       8.012  28.886  57.093  1.00  0.00     0.158 A 
HETATM   16  N   UNL     1       7.231  29.073  58.162  1.00  0.00    -0.156 NA
HETATM   17  N   UNL     1       7.850  30.024  58.867  1.00  0.00    -0.280 N 
HETATM   18  C   UNL     1       9.033  30.429  58.322  1.00  0.00     0.037 A 
HETATM   19  H   UNL     1       7.412  30.352  59.722  1.00  0.00     0.189 HD
HETATM   20  C   UNL     1       9.196  29.675  57.168  1.00  0.00     0.010 A 
HETATM   21  C   UNL     1      10.375  29.709  56.267  1.00  0.00     0.054 C 
BRANCH  18  22
HETATM   22  C   UNL     1       9.874  31.479  58.962  1.00  0.00     0.055 C 
HETATM   23  C   UNL     1       9.328  31.892  60.319  1.00  0.00     0.011 C 
ENDBRANCH  18  22
ENDBRANCH   1  15
TORSDOF 3
ENDMDL
MODEL 2
REMARK VINA RESULT:      -8.4      4.219      7.026
REMARK  3 active torsions:
REMARK  status: ('A' for Active; 'I' for Inactive)
REMARK    1  A    between atoms: C_2  and  C_3 
REMARK    2  A    between atoms: C_7  and  N_8 
REMARK       I    between atoms: N_8  and  C_9 
REMARK    3  A    between atoms: C_9  and  C_10 
ROOT
HETATM    1  N   UNL     1       6.248  26.459  51.731  1.00  0.00    -0.309 N 
HETATM    2  C   UNL     1       5.978  26.118  53.038  1.00  0.00     0.234 C 
HETATM    3  O   UNL     1       4.866  25.968  53.531  1.00  0.00    -0.272 OA
HETATM    4  H   UNL     1       7.185  26.732  51.465  1.00  0.00     0.170 HD
ENDROOT
BRANCH   2   5
HETATM    5  C   UNL     1       7.249  25.954  53.854  1.00  0.00     0.138 C 
HETATM    6  C   UNL     1       7.582  24.543  54.205  1.00  0.00    -0.008 A 
HETATM    7  C   UNL     1       7.958  24.489  55.540  1.00  0.00     0.076 A 
HETATM    8  C   UNL     1       7.625  23.403  53.417  1.00  0.00     0.030 A 
HETATM    9  C   UNL     1       8.388  23.322  56.140  1.00  0.00     0.039 A 
HETATM   10  O   UNL     1       7.883  25.695  56.186  1.00  0.00    -0.349 OA
HETATM   11  C   UNL     1       8.423  22.163  55.363  1.00  0.00     0.022 A 
HETATM   12  C   UNL     1       8.041  22.208  54.014  1.00  0.00     0.011 A 
HETATM   13 BR   UNL     1       8.103  20.626  52.978  1.00  0.00    -0.051 Br
HETATM   14  C   UNL     1       7.116  26.520  55.275  1.00  0.00     0.194 C 
ENDBRANCH   2   5
BRANCH   1  15
HETATM   15  C   UNL     1       5.357  26.704  50.715  1.00  0.00     0.158 A 
HETATM   16  N   UNL     1       4.638  25.651  50.313  1.00  0.00    -0.156 NA
HETATM   17  N   UNL     1       3.908  26.114  49.294  1.00  0.00    -0.280 N 
HETATM   18  C   UNL     1       4.087  27.443  49.050  1.00  0.00     0.037 A 
HETATM   19  H   UNL     1       3.296  25.466  48.807  1.00  0.00     0.189 HD
HETATM   20  C   UNL     1       5.008  27.881  49.990  1.00  0.00     0.010 A 
HETATM   21  C   UNL     1       5.471  29.280  50.169  1.00  0.00     0.054 C 
BRANCH  18  22
HETATM   22  C   UNL     1       3.359  28.146  47.956  1.00  0.00     0.055 C 
HETATM   23  C   UNL     1       2.382  27.224  47.244  1.00  0.00     0.011 C 
ENDBRANCH  18  22
ENDBRANCH   1  15
TORSDOF 3
ENDMDL
MODEL 3
REMARK VINA RESULT:      -8.2      3.192      7.360
REMARK  3 active torsions:
REMARK  status: ('A' for Active; 'I' for Inactive)
REMARK    1  A    between atoms: C_2  and  C_3 
REMARK    2  A    between atoms: C_7  and  N_8 
REMARK       I    between atoms: N_8  and  C_9 
REMARK    3  A    between atoms: C_9  and  C_10 
ROOT
HETATM    1  N   UNL     1       6.966  25.908  54.767  1.00  0.00    -0.309 N 
HETATM    2  C   UNL     1       6.402  26.266  55.971  1.00  0.00     0.234 C 
HETATM    3  O   UNL     1       6.155  25.515  56.907  1.00  0.00    -0.272 OA
HETATM    4  H   UNL     1       6.966  26.561  53.996  1.00  0.00     0.170 HD
ENDROOT
BRANCH   2   5
HETATM    5  C   UNL     1       6.082  27.751  56.025  1.00  0.00     0.138 C 
HETATM    6  C   UNL     1       7.122  28.585  56.694  1.00  0.00    -0.008 A 
HETATM    7  C   UNL     1       6.497  29.481  57.550  1.00  0.00     0.076 A 
HETATM    8  C   UNL     1       8.498  28.617  56.527  1.00  0.00     0.030 A 
HETATM    9  C   UNL     1       7.198  30.432  58.264  1.00  0.00     0.039 A 
HETATM   10  O   UNL     1       5.135  29.343  57.599  1.00  0.00    -0.349 OA
HETATM   11  C   UNL     1       8.585  30.467  58.117  1.00  0.00     0.022 A 
HETATM   12  C   UNL     1       9.226  29.563  57.255  1.00  0.00     0.011 A 
HETATM   13 BR   UNL     1      11.107  29.634  57.067  1.00  0.00    -0.051 Br
HETATM   14  C   UNL     1       4.900  28.067  56.953  1.00  0.00     0.194 C 
ENDBRANCH   2   5
BRANCH   1  15
HETATM   15  C   UNL     1       7.366  24.660  54.354  1.00  0.00     0.158 A 
HETATM   16  N   UNL     1       6.902  24.272  53.162  1.00  0.00    -0.156 NA
HETATM   17  N   UNL     1       7.362  23.026  53.012  1.00  0.00    -0.280 N 
HETATM   18  C   UNL     1       8.151  22.606  54.042  1.00  0.00     0.037 A 
HETATM   19  H   UNL     1       7.104  22.515  52.174  1.00  0.00     0.189 HD
HETATM   20  C   UNL     1       8.211  23.668  54.932  1.00  0.00     0.010 A 
HETATM   21  C   UNL     1       9.013  23.713  56.180  1.00  0.00     0.054 C 
BRANCH  18  22
HETATM   22  C   UNL     1       8.763  21.247  54.059  1.00  0.00     0.055 C 
HETATM   23  C   UNL     1       8.363  20.432  52.840  1.00  0.00     0.011 C 
ENDBRANCH  18  22
ENDBRANCH   1  15
TORSDOF 3
ENDMDL
MODEL 4
REMARK VINA RESULT:      -8.1      1.812      2.226
REMARK  3 active torsions:
REMARK  status: ('A' for Active; 'I' for Inactive)
REMARK    1  A    between atoms: C_2  and  C_3 
REMARK    2  A    between atoms: C_7  and  N_8 
REMARK       I    between atoms: N_8  and  C_9 
REMARK    3  A    between atoms: C_9  and  C_10 
ROOT
HETATM    1  N   UNL     1       6.554  28.617  56.498  1.00  0.00    -0.309 N 
HETATM    2  C   UNL     1       7.208  28.354  55.316  1.00  0.00     0.234 C 
HETATM    3  O   UNL     1       8.313  28.776  54.991  1.00  0.00    -0.272 OA
HETATM    4  H   UNL     1       5.578  28.372  56.599  1.00  0.00     0.170 HD
ENDROOT
BRANCH   2   5
HETATM    5  C   UNL     1       6.385  27.464  54.399  1.00  0.00     0.138 C 
HETATM    6  C   UNL     1       7.028  26.162  54.059  1.00  0.00    -0.008 A 
HETATM    7  C   UNL     1       6.879  25.929  52.699  1.00  0.00     0.076 A 
HETATM    8  C   UNL     1       7.635  25.216  54.871  1.00  0.00     0.030 A 
HETATM    9  C   UNL     1       7.316  24.766  52.097  1.00  0.00     0.039 A 
HETATM   10  O   UNL     1       6.245  26.942  52.030  1.00  0.00    -0.349 OA
HETATM   11  C   UNL     1       7.941  23.811  52.899  1.00  0.00     0.022 A 
HETATM   12  C   UNL     1       8.098  24.039  54.274  1.00  0.00     0.011 A 
HETATM   13 BR   UNL     1       8.943  22.727  55.343  1.00  0.00    -0.051 Br
HETATM   14  C   UNL     1       6.257  28.036  52.980  1.00  0.00     0.194 C 
ENDBRANCH   2   5
BRANCH   1  15
HETATM   15  C   UNL     1       6.978  29.391  57.551  1.00  0.00     0.158 A 
HETATM   16  N   UNL     1       7.905  28.835  58.338  1.00  0.00    -0.156 NA
HETATM   17  N   UNL     1       8.104  29.733  59.307  1.00  0.00    -0.280 N 
HETATM   18  C   UNL     1       7.376  30.876  59.154  1.00  0.00     0.037 A 
HETATM   19  H   UNL     1       8.760  29.505  60.048  1.00  0.00     0.189 HD
HETATM   20  C   UNL     1       6.647  30.708  57.986  1.00  0.00     0.010 A 
HETATM   21  C   UNL     1       5.756  31.718  57.363  1.00  0.00     0.054 C 
BRANCH  18  22
HETATM   22  C   UNL     1       7.462  31.998  60.130  1.00  0.00     0.055 C 
HETATM   23  C   UNL     1       8.903  32.339  60.475  1.00  0.00     0.011 C 
ENDBRANCH  18  22
ENDBRANCH   1  15
TORSDOF 3
ENDMDL
MODEL 5
REMARK VINA RESULT:      -7.9      5.039      7.035
REMARK  3 active torsions:
REMARK  status: ('A' for Active; 'I' for Inactive)
REMARK    1  A    between atoms: C_2  and  C_3 
REMARK    2  A    between atoms: C_7  and  N_8 
REMARK       I    between atoms: N_8  and  C_9 
REMARK    3  A    between atoms: C_9  and  C_10 
ROOT
HETATM    1  N   UNL     1       6.252  25.821  53.940  1.00  0.00    -0.309 N 
HETATM    2  C   UNL     1       5.159  25.800  53.102  1.00  0.00     0.234 C 
HETATM    3  O   UNL     1       4.492  24.815  52.806  1.00  0.00    -0.272 OA
HETATM    4  H   UNL     1       6.840  26.642  53.981  1.00  0.00     0.170 HD
ENDROOT
BRANCH   2   5
HETATM    5  C   UNL     1       4.854  27.177  52.537  1.00  0.00     0.138 C 
HETATM    6  C   UNL     1       4.817  27.242  51.048  1.00  0.00    -0.008 A 
HETATM    7  C   UNL     1       5.510  28.369  50.630  1.00  0.00     0.076 A 
HETATM    8  C   UNL     1       4.176  26.429  50.124  1.00  0.00     0.030 A 
HETATM    9  C   UNL     1       5.594  28.734  49.301  1.00  0.00     0.039 A 
HETATM   10  O   UNL     1       6.074  29.084  51.653  1.00  0.00    -0.349 OA
HETATM   11  C   UNL     1       4.966  27.918  48.359  1.00  0.00     0.022 A 
HETATM   12  C   UNL     1       4.266  26.775  48.772  1.00  0.00     0.011 A 
HETATM   13 BR   UNL     1       3.416  25.687  47.478  1.00  0.00    -0.051 Br
HETATM   14  C   UNL     1       5.988  28.182  52.784  1.00  0.00     0.194 C 
ENDBRANCH   2   5
BRANCH   1  15
HETATM   15  C   UNL     1       6.826  24.770  54.612  1.00  0.00     0.158 A 
HETATM   16  N   UNL     1       6.706  24.803  55.943  1.00  0.00    -0.156 NA
HETATM   17  N   UNL     1       7.388  23.735  56.369  1.00  0.00    -0.280 N 
HETATM   18  C   UNL     1       7.906  22.979  55.360  1.00  0.00     0.037 A 
HETATM   19  H   UNL     1       7.457  23.575  57.369  1.00  0.00     0.189 HD
HETATM   20  C   UNL     1       7.527  23.605  54.182  1.00  0.00     0.010 A 
HETATM   21  C   UNL     1       7.798  23.113  52.808  1.00  0.00     0.054 C 
BRANCH  18  22
HETATM   22  C   UNL     1       8.697  21.744  55.630  1.00  0.00     0.055 C 
HETATM   23  C   UNL     1       7.812  20.595  56.086  1.00  0.00     0.011 C 
ENDBRANCH  18  22
ENDBRANCH   1  15
TORSDOF 3
ENDMDL
MODEL 6
REMARK VINA RESULT:      -7.9      3.514      7.477
REMARK  3 active torsions:
REMARK  status: ('A' for Active; 'I' for Inactive)
REMARK    1  A    between atoms: C_2  and  C_3 
REMARK    2  A    between atoms: C_7  and  N_8 
REMARK       I    between atoms: N_8  and  C_9 
REMARK    3  A    between atoms: C_9  and  C_10 
ROOT
HETATM    1  N   UNL     1       7.799  27.279  56.715  1.00  0.00    -0.309 N 
HETATM    2  C   UNL     1       6.665  28.005  57.003  1.00  0.00     0.234 C 
HETATM    3  O   UNL     1       5.583  27.548  57.355  1.00  0.00    -0.272 OA
HETATM    4  H   UNL     1       8.584  27.729  56.265  1.00  0.00     0.170 HD
ENDROOT
BRANCH   2   5
HETATM    5  C   UNL     1       6.886  29.497  56.818  1.00  0.00     0.138 C 
HETATM    6  C   UNL     1       7.151  30.245  58.081  1.00  0.00    -0.008 A 
HETATM    7  C   UNL     1       6.401  31.413  58.077  1.00  0.00     0.076 A 
HETATM    8  C   UNL     1       8.025  29.976  59.123  1.00  0.00     0.030 A 
HETATM    9  C   UNL     1       6.486  32.348  59.089  1.00  0.00     0.039 A 
HETATM   10  O   UNL     1       5.599  31.552  56.976  1.00  0.00    -0.349 OA
HETATM   11  C   UNL     1       7.351  32.084  60.152  1.00  0.00     0.022 A 
HETATM   12  C   UNL     1       8.111  30.905  60.165  1.00  0.00     0.011 A 
HETATM   13 BR   UNL     1       9.282  30.571  61.613  1.00  0.00    -0.051 Br
HETATM   14  C   UNL     1       5.613  30.233  56.377  1.00  0.00     0.194 C 
ENDBRANCH   2   5
BRANCH   1  15
HETATM   15  C   UNL     1       7.968  25.916  56.753  1.00  0.00     0.158 A 
HETATM   16  N   UNL     1       8.333  25.414  57.937  1.00  0.00    -0.156 NA
HETATM   17  N   UNL     1       8.497  24.107  57.711  1.00  0.00    -0.280 N 
HETATM   18  C   UNL     1       8.203  23.731  56.434  1.00  0.00     0.037 A 
HETATM   19  H   UNL     1       8.808  23.521  58.479  1.00  0.00     0.189 HD
HETATM   20  C   UNL     1       7.813  24.889  55.777  1.00  0.00     0.010 A 
HETATM   21  C   UNL     1       7.329  24.974  54.377  1.00  0.00     0.054 C 
BRANCH  18  22
HETATM   22  C   UNL     1       8.320  22.314  55.986  1.00  0.00     0.055 C 
HETATM   23  C   UNL     1       8.432  21.357  57.161  1.00  0.00     0.011 C 
ENDBRANCH  18  22
ENDBRANCH   1  15
TORSDOF 3
ENDMDL
MODEL 7
REMARK VINA RESULT:      -7.9      2.458      3.031
REMARK  3 active torsions:
REMARK  status: ('A' for Active; 'I' for Inactive)
REMARK    1  A    between atoms: C_2  and  C_3 
REMARK    2  A    between atoms: C_7  and  N_8 
REMARK       I    between atoms: N_8  and  C_9 
REMARK    3  A    between atoms: C_9  and  C_10 
ROOT
HETATM    1  N   UNL     1       8.220  27.519  57.109  1.00  0.00    -0.309 N 
HETATM    2  C   UNL     1       7.718  26.250  57.296  1.00  0.00     0.234 C 
HETATM    3  O   UNL     1       6.724  25.954  57.948  1.00  0.00    -0.272 OA
HETATM    4  H   UNL     1       9.139  27.643  56.707  1.00  0.00     0.170 HD
ENDROOT
BRANCH   2   5
HETATM    5  C   UNL     1       8.565  25.199  56.598  1.00  0.00     0.138 C 
HETATM    6  C   UNL     1       8.001  24.704  55.309  1.00  0.00    -0.008 A 
HETATM    7  C   UNL     1       8.115  23.322  55.270  1.00  0.00     0.076 A 
HETATM    8  C   UNL     1       7.491  25.398  54.222  1.00  0.00     0.030 A 
HETATM    9  C   UNL     1       7.736  22.580  54.169  1.00  0.00     0.039 A 
HETATM   10  O   UNL     1       8.652  22.778  56.406  1.00  0.00    -0.349 OA
HETATM   11  C   UNL     1       7.208  23.263  53.072  1.00  0.00     0.022 A 
HETATM   12  C   UNL     1       7.087  24.660  53.104  1.00  0.00     0.011 A 
HETATM   13 BR   UNL     1       6.374  25.565  51.603  1.00  0.00    -0.051 Br
HETATM   14  C   UNL     1       8.601  23.867  57.360  1.00  0.00     0.194 C 
ENDBRANCH   2   5
BRANCH   1  15
HETATM   15  C   UNL     1       7.733  28.706  57.601  1.00  0.00     0.158 A 
HETATM   16  N   UNL     1       8.294  29.131  58.738  1.00  0.00    -0.156 NA
HETATM   17  N   UNL     1       7.623  30.244  59.047  1.00  0.00    -0.280 N 
HETATM   18  C   UNL     1       6.678  30.588  58.126  1.00  0.00     0.037 A 
HETATM   19  H   UNL     1       7.865  30.730  59.904  1.00  0.00     0.189 HD
HETATM   20  C   UNL     1       6.743  29.619  57.135  1.00  0.00     0.010 A 
HETATM   21  C   UNL     1       5.950  29.603  55.881  1.00  0.00     0.054 C 
BRANCH  18  22
HETATM   22  C   UNL     1       5.826  31.800  58.290  1.00  0.00     0.055 C 
HETATM   23  C   UNL     1       6.022  32.449  59.650  1.00  0.00     0.011 C 
ENDBRANCH  18  22
ENDBRANCH   1  15
TORSDOF 3
ENDMDL
MODEL 8
REMARK VINA RESULT:      -7.8      6.723     10.660
REMARK  3 active torsions:
REMARK  status: ('A' for Active; 'I' for Inactive)
REMARK    1  A    between atoms: C_2  and  C_3 
REMARK    2  A    between atoms: C_7  and  N_8 
REMARK       I    between atoms: N_8  and  C_9 
REMARK    3  A    between atoms: C_9  and  C_10 
ROOT
HETATM    1  N   UNL     1       7.262  31.876  60.118  1.00  0.00    -0.309 N 
HETATM    2  C   UNL     1       7.232  32.284  61.433  1.00  0.00     0.234 C 
HETATM    3  O   UNL     1       8.199  32.406  62.175  1.00  0.00    -0.272 OA
HETATM    4  H   UNL     1       6.401  31.636  59.645  1.00  0.00     0.170 HD
ENDROOT
BRANCH   2   5
HETATM    5  C   UNL     1       5.815  32.568  61.905  1.00  0.00     0.138 C 
HETATM    6  C   UNL     1       5.628  33.906  62.536  1.00  0.00    -0.008 A 
HETATM    7  C   UNL     1       4.869  33.757  63.689  1.00  0.00     0.076 A 
HETATM    8  C   UNL     1       6.023  35.166  62.114  1.00  0.00     0.030 A 
HETATM    9  C   UNL     1       4.475  34.834  64.457  1.00  0.00     0.039 A 
HETATM   10  O   UNL     1       4.538  32.458  63.970  1.00  0.00    -0.349 OA
HETATM   11  C   UNL     1       4.876  36.107  64.053  1.00  0.00     0.022 A 
HETATM   12  C   UNL     1       5.646  36.267  62.891  1.00  0.00     0.011 A 
HETATM   13 BR   UNL     1       6.174  38.004  62.358  1.00  0.00    -0.051 Br
HETATM   14  C   UNL     1       5.403  31.691  63.096  1.00  0.00     0.194 C 
ENDBRANCH   2   5
BRANCH   1  15
HETATM   15  C   UNL     1       8.353  31.518  59.364  1.00  0.00     0.158 A 
HETATM   16  N   UNL     1       9.348  32.411  59.333  1.00  0.00    -0.156 NA
HETATM   17  N   UNL     1      10.248  31.880  58.500  1.00  0.00    -0.280 N 
HETATM   18  C   UNL     1       9.899  30.651  58.027  1.00  0.00     0.037 A 
HETATM   19  H   UNL     1      11.090  32.411  58.300  1.00  0.00     0.189 HD
HETATM   20  C   UNL     1       8.671  30.357  58.602  1.00  0.00     0.010 A 
HETATM   21  C   UNL     1       7.916  29.089  58.442  1.00  0.00     0.054 C 
BRANCH  18  22
HETATM   22  C   UNL     1      10.773  29.893  57.087  1.00  0.00     0.055 C 
HETATM   23  C   UNL     1      10.108  29.689  55.736  1.00  0.00     0.011 C 
ENDBRANCH  18  22
ENDBRANCH   1  15
TORSDOF 3
ENDMDL
MODEL 9
REMARK VINA RESULT:      -7.8      4.278      6.814
REMARK  3 active torsions:
REMARK  status: ('A' for Active; 'I' for Inactive)
REMARK    1  A    between atoms: C_2  and  C_3 
REMARK    2  A    between atoms: C_7  and  N_8 
REMARK       I    between atoms: N_8  and  C_9 
REMARK    3  A    between atoms: C_9  and  C_10 
ROOT
HETATM    1  N   UNL     1       5.668  25.523  52.191  1.00  0.00    -0.309 N 
HETATM    2  C   UNL     1       6.850  24.867  52.453  1.00  0.00     0.234 C 
HETATM    3  O   UNL     1       7.889  24.964  51.810  1.00  0.00    -0.272 OA
HETATM    4  H   UNL     1       4.821  25.244  52.667  1.00  0.00     0.170 HD
ENDROOT
BRANCH   2   5
HETATM    5  C   UNL     1       6.735  23.953  53.662  1.00  0.00     0.138 C 
HETATM    6  C   UNL     1       7.310  24.513  54.919  1.00  0.00    -0.008 A 
HETATM    7  C   UNL     1       8.056  23.527  55.549  1.00  0.00     0.076 A 
HETATM    8  C   UNL     1       7.147  25.756  55.511  1.00  0.00     0.030 A 
HETATM    9  C   UNL     1       8.660  23.728  56.774  1.00  0.00     0.039 A 
HETATM   10  O   UNL     1       8.112  22.347  54.856  1.00  0.00    -0.349 OA
HETATM   11  C   UNL     1       8.517  24.979  57.376  1.00  0.00     0.022 A 
HETATM   12  C   UNL     1       7.767  25.982  56.744  1.00  0.00     0.011 A 
HETATM   13 BR   UNL     1       7.580  27.669  57.581  1.00  0.00    -0.051 Br
HETATM   14  C   UNL     1       7.615  22.701  53.542  1.00  0.00     0.194 C 
ENDBRANCH   2   5
BRANCH   1  15
HETATM   15  C   UNL     1       5.394  26.408  51.177  1.00  0.00     0.158 A 
HETATM   16  N   UNL     1       5.003  25.858  50.023  1.00  0.00    -0.156 NA
HETATM   17  N   UNL     1       4.863  26.892  49.189  1.00  0.00    -0.280 N 
HETATM   18  C   UNL     1       5.101  28.102  49.771  1.00  0.00     0.037 A 
HETATM   19  H   UNL     1       4.595  26.703  48.228  1.00  0.00     0.189 HD
HETATM   20  C   UNL     1       5.418  27.831  51.094  1.00  0.00     0.010 A 
HETATM   21  C   UNL     1       5.689  28.840  52.148  1.00  0.00     0.054 C 
BRANCH  18  22
HETATM   22  C   UNL     1       4.994  29.376  49.005  1.00  0.00     0.055 C 
HETATM   23  C   UNL     1       4.661  29.131  47.543  1.00  0.00     0.011 C 
ENDBRANCH  18  22
ENDBRANCH   1  15
TORSDOF 3
ENDMDL
MODEL 10
REMARK VINA RESULT:      -7.7      5.350      7.528
REMARK  3 active torsions:
REMARK  status: ('A' for Active; 'I' for Inactive)
REMARK    1  A    between atoms: C_2  and  C_3 
REMARK    2  A    between atoms: C_7  and  N_8 
REMARK       I    between atoms: N_8  and  C_9 
REMARK    3  A    between atoms: C_9  and  C_10 
ROOT
HETATM    1  N   UNL     1       6.924  24.762  52.674  1.00  0.00    -0.309 N 
HETATM    2  C   UNL     1       5.655  25.209  52.384  1.00  0.00     0.234 C 
HETATM    3  O   UNL     1       4.605  24.695  52.754  1.00  0.00    -0.272 OA
HETATM    4  H   UNL     1       7.719  25.145  52.180  1.00  0.00     0.170 HD
ENDROOT
BRANCH   2   5
HETATM    5  C   UNL     1       5.678  26.448  51.504  1.00  0.00     0.138 C 
HETATM    6  C   UNL     1       4.928  27.613  52.055  1.00  0.00    -0.008 A 
HETATM    7  C   UNL     1       4.170  28.180  51.041  1.00  0.00     0.076 A 
HETATM    8  C   UNL     1       4.950  28.185  53.319  1.00  0.00     0.030 A 
HETATM    9  C   UNL     1       3.415  29.320  51.232  1.00  0.00     0.039 A 
HETATM   10  O   UNL     1       4.261  27.518  49.845  1.00  0.00    -0.349 OA
HETATM   11  C   UNL     1       3.416  29.899  52.502  1.00  0.00     0.022 A 
HETATM   12  C   UNL     1       4.178  29.331  53.534  1.00  0.00     0.011 A 
HETATM   13 BR   UNL     1       4.169  30.137  55.246  1.00  0.00    -0.051 Br
HETATM   14  C   UNL     1       4.889  26.262  50.200  1.00  0.00     0.194 C 
ENDBRANCH   2   5
BRANCH   1  15
HETATM   15  C   UNL     1       7.291  23.669  53.421  1.00  0.00     0.158 A 
HETATM   16  N   UNL     1       7.849  22.665  52.737  1.00  0.00    -0.156 NA
HETATM   17  N   UNL     1       8.052  21.710  53.649  1.00  0.00    -0.280 N 
HETATM   18  C   UNL     1       7.693  22.073  54.913  1.00  0.00     0.037 A 
HETATM   19  H   UNL     1       8.449  20.827  53.342  1.00  0.00     0.189 HD
HETATM   20  C   UNL     1       7.220  23.374  54.814  1.00  0.00     0.010 A 
HETATM   21  C   UNL     1       6.775  24.227  55.944  1.00  0.00     0.054 C 
BRANCH  18  22
HETATM   22  C   UNL     1       7.846  21.147  56.070  1.00  0.00     0.055 C 
HETATM   23  C   UNL     1       9.179  20.417  56.037  1.00  0.00     0.011 C 
ENDBRANCH  18  22
ENDBRANCH   1  15
TORSDOF 3
ENDMDL
