MODEL 1
REMARK VINA RESULT:      -9.5      0.000      0.000
REMARK  10 active torsions:
REMARK  status: ('A' for Active; 'I' for Inactive)
REMARK    1  A    between atoms: C_6  and  C_7 
REMARK    2  A    between atoms: C_9  and  C_10 
REMARK    3  A    between atoms: C_10  and  C_11 
REMARK       I    between atoms: C_11  and  N_12 
REMARK    4  A    between atoms: N_12  and  C_13 
REMARK    5  A    between atoms: C_13  and  C_14 
REMARK    6  A    between atoms: C_14  and  N_15 
REMARK    7  A    between atoms: C_26  and  C_27 
REMARK    8  A    between atoms: C_27  and  O_28 
REMARK    9  A    between atoms: O_28  and  C_29 
REMARK   10  A    between atoms: C_29  and  C_30 
ROOT
HETATM    1  C   UNL     1       5.541  27.466  54.209  1.00  0.00     0.166 C 
HETATM    2  N   UNL     1       5.990  28.437  55.231  1.00  0.00    -0.318 N 
HETATM    3  C   UNL     1       7.046  28.814  55.873  1.00  0.00     0.011 C 
HETATM    4  C   UNL     1       4.774  29.335  55.616  1.00  0.00     0.170 C 
HETATM    5  S   UNL     1       4.984  30.031  57.179  1.00  0.00    -0.086 SA
HETATM    6  C   UNL     1       6.782  29.756  57.043  1.00  0.00     0.135 C 
HETATM    7  N   UNL     1       3.811  29.607  54.801  1.00  0.00    -0.229 NA
HETATM    8  C   UNL     1       4.000  29.231  53.474  1.00  0.00     0.048 C 
HETATM    9  C   UNL     1       3.239  30.066  52.471  1.00  0.00     0.071 C 
HETATM   10  C   UNL     1       4.892  28.271  53.123  1.00  0.00     0.069 C 
ENDROOT
BRANCH   3  11
HETATM   11  C   UNL     1       8.443  28.444  55.459  1.00  0.00     0.156 C 
BRANCH  11  12
HETATM   12  C   UNL     1       9.448  29.394  56.091  1.00  0.00     0.223 C 
HETATM   13  N   UNL     1       9.532  29.385  57.462  1.00  0.00    -0.359 N 
HETATM   14  H   UNL     1       8.817  28.878  57.981  1.00  0.00     0.162 HD
HETATM   15  O   UNL     1      10.153  30.122  55.397  1.00  0.00    -0.273 OA
BRANCH  13  16
HETATM   16  C   UNL     1      10.235  30.450  58.179  1.00  0.00     0.150 C 
BRANCH  16  17
HETATM   17  C   UNL     1       9.335  31.474  58.917  1.00  0.00     0.253 C 
BRANCH  17  18
HETATM   18  N   UNL     1       8.506  30.827  60.019  1.00  0.00    -0.077 N 
HETATM   19  H   UNL     1       8.184  29.906  59.692  1.00  0.00     0.279 HD
HETATM   20  C   UNL     1       9.281  30.610  61.294  1.00  0.00     0.269 C 
HETATM   21  C   UNL     1       7.250  31.620  60.300  1.00  0.00     0.269 C 
ENDBRANCH  17  18
ENDBRANCH  16  17
ENDBRANCH  13  16
ENDBRANCH  11  12
ENDBRANCH   3  11
BRANCH   1  22
HETATM   22  C   UNL     1       6.370  26.189  54.053  1.00  0.00    -0.024 A 
HETATM   23  C   UNL     1       6.271  25.126  55.004  1.00  0.00    -0.053 A 
HETATM   24  C   UNL     1       6.958  23.909  54.787  1.00  0.00     0.014 A 
HETATM   25  C   UNL     1       5.435  25.182  56.262  1.00  0.00     0.049 C 
HETATM   26  C   UNL     1       7.712  23.689  53.637  1.00  0.00    -0.061 A 
HETATM   27  C   UNL     1       8.321  22.347  53.352  1.00  0.00     0.048 C 
HETATM   28  C   UNL     1       7.794  24.708  52.699  1.00  0.00     0.007 A 
HETATM   29  C   UNL     1       7.141  25.928  52.906  1.00  0.00     0.011 A 
ENDBRANCH   1  22
BRANCH  10  30
HETATM   30  C   UNL     1       5.345  28.238  51.732  1.00  0.00     0.294 C 
HETATM   31  O   UNL     1       6.156  28.998  51.246  1.00  0.00    -0.259 OA
BRANCH  30  32
HETATM   32  O   UNL     1       4.660  27.239  51.127  1.00  0.00    -0.313 OA
BRANCH  32  33
HETATM   33  C   UNL     1       5.095  26.871  49.803  1.00  0.00     0.217 C 
BRANCH  33  34
HETATM   34  C   UNL     1       3.881  26.904  48.905  1.00  0.00    -0.034 A 
HETATM   35  C   UNL     1       2.878  27.864  49.091  1.00  0.00     0.009 A 
HETATM   36  C   UNL     1       1.730  27.851  48.297  1.00  0.00     0.001 A 
HETATM   37  C   UNL     1       1.571  26.881  47.309  1.00  0.00     0.000 A 
HETATM   38  C   UNL     1       2.566  25.928  47.104  1.00  0.00     0.001 A 
HETATM   39  C   UNL     1       3.720  25.947  47.892  1.00  0.00     0.009 A 
ENDBRANCH  33  34
ENDBRANCH  32  33
ENDBRANCH  30  32
ENDBRANCH  10  30
TORSDOF 10
ENDMDL
MODEL 2
REMARK VINA RESULT:      -9.2      2.323      3.742
REMARK  10 active torsions:
REMARK  status: ('A' for Active; 'I' for Inactive)
REMARK    1  A    between atoms: C_6  and  C_7 
REMARK    2  A    between atoms: C_9  and  C_10 
REMARK    3  A    between atoms: C_10  and  C_11 
REMARK       I    between atoms: C_11  and  N_12 
REMARK    4  A    between atoms: N_12  and  C_13 
REMARK    5  A    between atoms: C_13  and  C_14 
REMARK    6  A    between atoms: C_14  and  N_15 
REMARK    7  A    between atoms: C_26  and  C_27 
REMARK    8  A    between atoms: C_27  and  O_28 
REMARK    9  A    between atoms: O_28  and  C_29 
REMARK   10  A    between atoms: C_29  and  C_30 
ROOT
HETATM    1  C   UNL     1       4.943  28.558  55.215  1.00  0.00     0.166 C 
HETATM    2  N   UNL     1       5.155  29.835  55.932  1.00  0.00    -0.318 N 
HETATM    3  C   UNL     1       6.042  30.473  56.621  1.00  0.00     0.011 C 
HETATM    4  C   UNL     1       3.883  30.717  55.738  1.00  0.00     0.170 C 
HETATM    5  S   UNL     1       3.742  31.890  56.993  1.00  0.00    -0.086 SA
HETATM    6  C   UNL     1       5.526  31.718  57.334  1.00  0.00     0.135 C 
HETATM    7  N   UNL     1       3.124  30.643  54.696  1.00  0.00    -0.229 NA
HETATM    8  C   UNL     1       3.604  29.878  53.637  1.00  0.00     0.048 C 
HETATM    9  C   UNL     1       3.083  30.290  52.280  1.00  0.00     0.071 C 
HETATM   10  C   UNL     1       4.551  28.923  53.815  1.00  0.00     0.069 C 
ENDROOT
BRANCH   3  11
HETATM   11  C   UNL     1       7.496  30.093  56.653  1.00  0.00     0.156 C 
BRANCH  11  12
HETATM   12  C   UNL     1       7.935  29.812  58.081  1.00  0.00     0.223 C 
HETATM   13  N   UNL     1       8.391  30.883  58.811  1.00  0.00    -0.359 N 
HETATM   14  H   UNL     1       8.564  31.758  58.319  1.00  0.00     0.162 HD
HETATM   15  O   UNL     1       7.872  28.679  58.550  1.00  0.00    -0.273 OA
BRANCH  13  16
HETATM   16  C   UNL     1       9.108  30.683  60.072  1.00  0.00     0.150 C 
BRANCH  16  17
HETATM   17  C   UNL     1       8.250  30.792  61.359  1.00  0.00     0.253 C 
BRANCH  17  18
HETATM   18  N   UNL     1       7.930  32.238  61.720  1.00  0.00    -0.077 N 
HETATM   19  H   UNL     1       8.610  32.852  61.251  1.00  0.00     0.279 HD
HETATM   20  C   UNL     1       6.553  32.667  61.283  1.00  0.00     0.269 C 
HETATM   21  C   UNL     1       8.110  32.488  63.200  1.00  0.00     0.269 C 
ENDBRANCH  17  18
ENDBRANCH  16  17
ENDBRANCH  13  16
ENDBRANCH  11  12
ENDBRANCH   3  11
BRANCH   1  22
HETATM   22  C   UNL     1       5.787  27.362  55.664  1.00  0.00    -0.024 A 
HETATM   23  C   UNL     1       7.149  27.224  55.250  1.00  0.00    -0.053 A 
HETATM   24  C   UNL     1       7.947  26.176  55.761  1.00  0.00     0.014 A 
HETATM   25  C   UNL     1       7.848  28.162  54.292  1.00  0.00     0.049 C 
HETATM   26  C   UNL     1       7.458  25.276  56.705  1.00  0.00    -0.061 A 
HETATM   27  C   UNL     1       8.354  24.255  57.344  1.00  0.00     0.048 C 
HETATM   28  C   UNL     1       6.144  25.417  57.129  1.00  0.00     0.007 A 
HETATM   29  C   UNL     1       5.330  26.434  56.616  1.00  0.00     0.011 A 
ENDBRANCH   1  22
BRANCH  10  30
HETATM   30  C   UNL     1       5.301  28.480  52.639  1.00  0.00     0.294 C 
HETATM   31  O   UNL     1       6.169  29.121  52.084  1.00  0.00    -0.259 OA
BRANCH  30  32
HETATM   32  O   UNL     1       4.807  27.265  52.302  1.00  0.00    -0.313 OA
BRANCH  32  33
HETATM   33  C   UNL     1       5.569  26.504  51.344  1.00  0.00     0.217 C 
BRANCH  33  34
HETATM   34  C   UNL     1       6.263  25.395  52.100  1.00  0.00    -0.034 A 
HETATM   35  C   UNL     1       5.576  24.647  53.064  1.00  0.00     0.009 A 
HETATM   36  C   UNL     1       6.240  23.665  53.802  1.00  0.00     0.001 A 
HETATM   37  C   UNL     1       7.594  23.419  53.585  1.00  0.00     0.000 A 
HETATM   38  C   UNL     1       8.286  24.147  52.619  1.00  0.00     0.001 A 
HETATM   39  C   UNL     1       7.620  25.122  51.874  1.00  0.00     0.009 A 
ENDBRANCH  33  34
ENDBRANCH  32  33
ENDBRANCH  30  32
ENDBRANCH  10  30
TORSDOF 10
ENDMDL
MODEL 3
REMARK VINA RESULT:      -9.0      1.936      2.611
REMARK  10 active torsions:
REMARK  status: ('A' for Active; 'I' for Inactive)
REMARK    1  A    between atoms: C_6  and  C_7 
REMARK    2  A    between atoms: C_9  and  C_10 
REMARK    3  A    between atoms: C_10  and  C_11 
REMARK       I    between atoms: C_11  and  N_12 
REMARK    4  A    between atoms: N_12  and  C_13 
REMARK    5  A    between atoms: C_13  and  C_14 
REMARK    6  A    between atoms: C_14  and  N_15 
REMARK    7  A    between atoms: C_26  and  C_27 
REMARK    8  A    between atoms: C_27  and  O_28 
REMARK    9  A    between atoms: O_28  and  C_29 
REMARK   10  A    between atoms: C_29  and  C_30 
ROOT
HETATM    1  C   UNL     1       5.244  26.925  53.505  1.00  0.00     0.166 C 
HETATM    2  N   UNL     1       5.482  28.061  54.422  1.00  0.00    -0.318 N 
HETATM    3  C   UNL     1       6.425  28.650  55.079  1.00  0.00     0.011 C 
HETATM    4  C   UNL     1       4.135  28.826  54.607  1.00  0.00     0.170 C 
HETATM    5  S   UNL     1       4.127  29.725  56.077  1.00  0.00    -0.086 SA
HETATM    6  C   UNL     1       5.950  29.680  56.098  1.00  0.00     0.135 C 
HETATM    7  N   UNL     1       3.216  28.869  53.700  1.00  0.00    -0.229 NA
HETATM    8  C   UNL     1       3.561  28.367  52.448  1.00  0.00     0.048 C 
HETATM    9  C   UNL     1       2.787  28.968  51.298  1.00  0.00     0.071 C 
HETATM   10  C   UNL     1       4.592  27.501  52.284  1.00  0.00     0.069 C 
ENDROOT
BRANCH   3  11
HETATM   11  C   UNL     1       7.887  28.425  54.810  1.00  0.00     0.156 C 
BRANCH  11  12
HETATM   12  C   UNL     1       8.702  28.696  56.065  1.00  0.00     0.223 C 
HETATM   13  N   UNL     1       9.536  29.788  56.038  1.00  0.00    -0.359 N 
HETATM   14  H   UNL     1       9.688  30.250  55.144  1.00  0.00     0.162 HD
HETATM   15  O   UNL     1       8.602  27.972  57.052  1.00  0.00    -0.273 OA
BRANCH  13  16
HETATM   16  C   UNL     1      10.570  29.968  57.058  1.00  0.00     0.150 C 
BRANCH  16  17
HETATM   17  C   UNL     1      10.249  31.004  58.167  1.00  0.00     0.253 C 
BRANCH  17  18
HETATM   18  N   UNL     1       9.086  30.566  59.048  1.00  0.00    -0.077 N 
HETATM   19  H   UNL     1       8.890  29.572  58.865  1.00  0.00     0.279 HD
HETATM   20  C   UNL     1       9.371  30.710  60.521  1.00  0.00     0.269 C 
HETATM   21  C   UNL     1       7.816  31.303  58.688  1.00  0.00     0.269 C 
ENDBRANCH  17  18
ENDBRANCH  16  17
ENDBRANCH  13  16
ENDBRANCH  11  12
ENDBRANCH   3  11
BRANCH   1  22
HETATM   22  C   UNL     1       6.237  25.761  53.569  1.00  0.00    -0.024 A 
HETATM   23  C   UNL     1       6.286  24.898  54.708  1.00  0.00    -0.053 A 
HETATM   24  C   UNL     1       7.129  23.763  54.706  1.00  0.00     0.014 A 
HETATM   25  C   UNL     1       5.456  25.085  55.957  1.00  0.00     0.049 C 
HETATM   26  C   UNL     1       7.900  23.425  53.597  1.00  0.00    -0.061 A 
HETATM   27  C   UNL     1       8.682  22.144  53.554  1.00  0.00     0.048 C 
HETATM   28  C   UNL     1       7.840  24.246  52.479  1.00  0.00     0.007 A 
HETATM   29  C   UNL     1       7.030  25.387  52.470  1.00  0.00     0.011 A 
ENDBRANCH   1  22
BRANCH  10  30
HETATM   30  C   UNL     1       5.159  27.364  50.942  1.00  0.00     0.294 C 
HETATM   31  O   UNL     1       5.020  26.396  50.223  1.00  0.00    -0.259 OA
BRANCH  30  32
HETATM   32  O   UNL     1       5.869  28.493  50.706  1.00  0.00    -0.313 OA
BRANCH  32  33
HETATM   33  C   UNL     1       5.961  28.920  49.332  1.00  0.00     0.217 C 
BRANCH  33  34
HETATM   34  C   UNL     1       5.509  30.361  49.278  1.00  0.00    -0.034 A 
HETATM   35  C   UNL     1       5.809  31.245  50.321  1.00  0.00     0.009 A 
HETATM   36  C   UNL     1       5.337  32.558  50.293  1.00  0.00     0.001 A 
HETATM   37  C   UNL     1       4.561  33.003  49.224  1.00  0.00     0.000 A 
HETATM   38  C   UNL     1       4.267  32.137  48.173  1.00  0.00     0.001 A 
HETATM   39  C   UNL     1       4.748  30.826  48.196  1.00  0.00     0.009 A 
ENDBRANCH  33  34
ENDBRANCH  32  33
ENDBRANCH  30  32
ENDBRANCH  10  30
TORSDOF 10
ENDMDL
MODEL 4
REMARK VINA RESULT:      -8.6      2.927      6.175
REMARK  10 active torsions:
REMARK  status: ('A' for Active; 'I' for Inactive)
REMARK    1  A    between atoms: C_6  and  C_7 
REMARK    2  A    between atoms: C_9  and  C_10 
REMARK    3  A    between atoms: C_10  and  C_11 
REMARK       I    between atoms: C_11  and  N_12 
REMARK    4  A    between atoms: N_12  and  C_13 
REMARK    5  A    between atoms: C_13  and  C_14 
REMARK    6  A    between atoms: C_14  and  N_15 
REMARK    7  A    between atoms: C_26  and  C_27 
REMARK    8  A    between atoms: C_27  and  O_28 
REMARK    9  A    between atoms: O_28  and  C_29 
REMARK   10  A    between atoms: C_29  and  C_30 
ROOT
HETATM    1  C   UNL     1       6.632  27.897  55.693  1.00  0.00     0.166 C 
HETATM    2  N   UNL     1       6.813  28.876  56.788  1.00  0.00    -0.318 N 
HETATM    3  C   UNL     1       6.203  29.840  57.393  1.00  0.00     0.011 C 
HETATM    4  C   UNL     1       8.194  28.604  57.459  1.00  0.00     0.170 C 
HETATM    5  S   UNL     1       8.779  30.007  58.271  1.00  0.00    -0.086 SA
HETATM    6  C   UNL     1       7.077  30.662  58.333  1.00  0.00     0.135 C 
HETATM    7  N   UNL     1       8.743  27.436  57.499  1.00  0.00    -0.229 NA
HETATM    8  C   UNL     1       7.949  26.367  57.091  1.00  0.00     0.048 C 
HETATM    9  C   UNL     1       8.321  25.039  57.708  1.00  0.00     0.071 C 
HETATM   10  C   UNL     1       6.863  26.545  56.298  1.00  0.00     0.069 C 
ENDROOT
BRANCH   3  11
HETATM   11  C   UNL     1       4.725  30.091  57.271  1.00  0.00     0.156 C 
BRANCH  11  12
HETATM   12  C   UNL     1       4.329  31.312  58.086  1.00  0.00     0.223 C 
HETATM   13  N   UNL     1       3.912  31.086  59.376  1.00  0.00    -0.359 N 
HETATM   14  H   UNL     1       3.734  30.125  59.659  1.00  0.00     0.162 HD
HETATM   15  O   UNL     1       4.393  32.441  57.606  1.00  0.00    -0.273 OA
BRANCH  13  16
HETATM   16  C   UNL     1       3.234  32.135  60.140  1.00  0.00     0.150 C 
BRANCH  16  17
HETATM   17  C   UNL     1       4.108  32.879  61.184  1.00  0.00     0.253 C 
BRANCH  17  18
HETATM   18  N   UNL     1       5.353  32.088  61.564  1.00  0.00    -0.077 N 
HETATM   19  H   UNL     1       5.344  31.195  61.054  1.00  0.00     0.279 HD
HETATM   20  C   UNL     1       6.636  32.799  61.213  1.00  0.00     0.269 C 
HETATM   21  C   UNL     1       5.344  31.720  63.030  1.00  0.00     0.269 C 
ENDBRANCH  17  18
ENDBRANCH  16  17
ENDBRANCH  13  16
ENDBRANCH  11  12
ENDBRANCH   3  11
BRANCH   1  22
HETATM   22  C   UNL     1       5.638  28.266  54.588  1.00  0.00    -0.024 A 
HETATM   23  C   UNL     1       5.942  28.021  53.213  1.00  0.00    -0.053 A 
HETATM   24  C   UNL     1       4.970  28.264  52.214  1.00  0.00     0.014 A 
HETATM   25  C   UNL     1       7.259  27.472  52.714  1.00  0.00     0.049 C 
HETATM   26  C   UNL     1       3.688  28.705  52.532  1.00  0.00    -0.061 A 
HETATM   27  C   UNL     1       2.624  28.826  51.480  1.00  0.00     0.048 C 
HETATM   28  C   UNL     1       3.379  28.924  53.867  1.00  0.00     0.007 A 
HETATM   29  C   UNL     1       4.335  28.712  54.868  1.00  0.00     0.011 A 
ENDBRANCH   1  22
BRANCH  10  30
HETATM   30  C   UNL     1       5.858  25.481  56.272  1.00  0.00     0.294 C 
HETATM   31  O   UNL     1       5.093  25.224  57.178  1.00  0.00    -0.259 OA
BRANCH  30  32
HETATM   32  O   UNL     1       5.990  24.854  55.079  1.00  0.00    -0.313 OA
BRANCH  32  33
HETATM   33  C   UNL     1       7.335  24.658  54.600  1.00  0.00     0.217 C 
BRANCH  33  34
HETATM   34  C   UNL     1       7.533  23.173  54.408  1.00  0.00    -0.034 A 
HETATM   35  C   UNL     1       7.562  22.307  55.508  1.00  0.00     0.009 A 
HETATM   36  C   UNL     1       7.807  20.944  55.329  1.00  0.00     0.001 A 
HETATM   37  C   UNL     1       8.025  20.432  54.051  1.00  0.00     0.000 A 
HETATM   38  C   UNL     1       7.986  21.281  52.947  1.00  0.00     0.001 A 
HETATM   39  C   UNL     1       7.731  22.642  53.125  1.00  0.00     0.009 A 
ENDBRANCH  33  34
ENDBRANCH  32  33
ENDBRANCH  30  32
ENDBRANCH  10  30
TORSDOF 10
ENDMDL
MODEL 5
REMARK VINA RESULT:      -8.3      3.379      7.855
REMARK  10 active torsions:
REMARK  status: ('A' for Active; 'I' for Inactive)
REMARK    1  A    between atoms: C_6  and  C_7 
REMARK    2  A    between atoms: C_9  and  C_10 
REMARK    3  A    between atoms: C_10  and  C_11 
REMARK       I    between atoms: C_11  and  N_12 
REMARK    4  A    between atoms: N_12  and  C_13 
REMARK    5  A    between atoms: C_13  and  C_14 
REMARK    6  A    between atoms: C_14  and  N_15 
REMARK    7  A    between atoms: C_26  and  C_27 
REMARK    8  A    between atoms: C_27  and  O_28 
REMARK    9  A    between atoms: O_28  and  C_29 
REMARK   10  A    between atoms: C_29  and  C_30 
ROOT
HETATM    1  C   UNL     1       6.852  28.338  54.886  1.00  0.00     0.166 C 
HETATM    2  N   UNL     1       7.091  26.929  54.501  1.00  0.00    -0.318 N 
HETATM    3  C   UNL     1       7.412  25.783  55.003  1.00  0.00     0.011 C 
HETATM    4  C   UNL     1       6.805  26.788  52.974  1.00  0.00     0.170 C 
HETATM    5  S   UNL     1       7.629  25.429  52.309  1.00  0.00    -0.086 SA
HETATM    6  C   UNL     1       7.758  24.708  53.980  1.00  0.00     0.135 C 
HETATM    7  N   UNL     1       5.955  27.528  52.343  1.00  0.00    -0.229 NA
HETATM    8  C   UNL     1       5.138  28.336  53.129  1.00  0.00     0.048 C 
HETATM    9  C   UNL     1       3.806  28.677  52.502  1.00  0.00     0.071 C 
HETATM   10  C   UNL     1       5.477  28.679  54.397  1.00  0.00     0.069 C 
ENDROOT
BRANCH   3  11
HETATM   11  C   UNL     1       7.362  25.482  56.476  1.00  0.00     0.156 C 
BRANCH  11  12
HETATM   12  C   UNL     1       8.222  24.269  56.795  1.00  0.00     0.223 C 
HETATM   13  N   UNL     1       7.696  23.038  56.485  1.00  0.00    -0.359 N 
HETATM   14  H   UNL     1       6.714  22.992  56.219  1.00  0.00     0.162 HD
HETATM   15  O   UNL     1       9.336  24.399  57.296  1.00  0.00    -0.273 OA
BRANCH  13  16
HETATM   16  C   UNL     1       8.296  21.811  57.013  1.00  0.00     0.150 C 
BRANCH  16  17
HETATM   17  C   UNL     1       7.997  20.517  56.211  1.00  0.00     0.253 C 
BRANCH  17  18
HETATM   18  N   UNL     1       8.709  20.494  54.865  1.00  0.00    -0.077 N 
HETATM   19  H   UNL     1       9.232  19.612  54.783  1.00  0.00     0.279 HD
HETATM   20  C   UNL     1       7.763  20.571  53.693  1.00  0.00     0.269 C 
HETATM   21  C   UNL     1       9.745  21.592  54.772  1.00  0.00     0.269 C 
ENDBRANCH  17  18
ENDBRANCH  16  17
ENDBRANCH  13  16
ENDBRANCH  11  12
ENDBRANCH   3  11
BRANCH   1  22
HETATM   22  C   UNL     1       7.537  28.833  56.163  1.00  0.00    -0.024 A 
HETATM   23  C   UNL     1       8.887  29.301  56.140  1.00  0.00    -0.053 A 
HETATM   24  C   UNL     1       9.468  29.859  57.303  1.00  0.00     0.014 A 
HETATM   25  C   UNL     1       9.778  29.278  54.920  1.00  0.00     0.049 C 
HETATM   26  C   UNL     1       8.744  30.008  58.483  1.00  0.00    -0.061 A 
HETATM   27  C   UNL     1       9.326  30.728  59.666  1.00  0.00     0.048 C 
HETATM   28  C   UNL     1       7.426  29.577  58.506  1.00  0.00     0.007 A 
HETATM   29  C   UNL     1       6.840  29.001  57.373  1.00  0.00     0.011 A 
ENDBRANCH   1  22
BRANCH  10  30
HETATM   30  C   UNL     1       4.411  29.143  55.285  1.00  0.00     0.294 C 
HETATM   31  O   UNL     1       3.666  28.422  55.915  1.00  0.00    -0.259 OA
BRANCH  30  32
HETATM   32  O   UNL     1       4.417  30.496  55.221  1.00  0.00    -0.313 OA
BRANCH  32  33
HETATM   33  C   UNL     1       3.413  31.182  55.995  1.00  0.00     0.217 C 
BRANCH  33  34
HETATM   34  C   UNL     1       4.055  31.600  57.297  1.00  0.00    -0.034 A 
HETATM   35  C   UNL     1       3.458  31.284  58.523  1.00  0.00     0.009 A 
HETATM   36  C   UNL     1       4.024  31.725  59.720  1.00  0.00     0.001 A 
HETATM   37  C   UNL     1       5.191  32.487  59.706  1.00  0.00     0.000 A 
HETATM   38  C   UNL     1       5.802  32.797  58.493  1.00  0.00     0.001 A 
HETATM   39  C   UNL     1       5.242  32.346  57.296  1.00  0.00     0.009 A 
ENDBRANCH  33  34
ENDBRANCH  32  33
ENDBRANCH  30  32
ENDBRANCH  10  30
TORSDOF 10
ENDMDL
MODEL 6
REMARK VINA RESULT:      -8.3      2.864      8.183
REMARK  10 active torsions:
REMARK  status: ('A' for Active; 'I' for Inactive)
REMARK    1  A    between atoms: C_6  and  C_7 
REMARK    2  A    between atoms: C_9  and  C_10 
REMARK    3  A    between atoms: C_10  and  C_11 
REMARK       I    between atoms: C_11  and  N_12 
REMARK    4  A    between atoms: N_12  and  C_13 
REMARK    5  A    between atoms: C_13  and  C_14 
REMARK    6  A    between atoms: C_14  and  N_15 
REMARK    7  A    between atoms: C_26  and  C_27 
REMARK    8  A    between atoms: C_27  and  O_28 
REMARK    9  A    between atoms: O_28  and  C_29 
REMARK   10  A    between atoms: C_29  and  C_30 
ROOT
HETATM    1  C   UNL     1       5.911  27.959  52.964  1.00  0.00     0.166 C 
HETATM    2  N   UNL     1       5.016  28.836  53.752  1.00  0.00    -0.318 N 
HETATM    3  C   UNL     1       3.787  29.225  53.823  1.00  0.00     0.011 C 
HETATM    4  C   UNL     1       5.845  29.451  54.921  1.00  0.00     0.170 C 
HETATM    5  S   UNL     1       5.131  30.913  55.489  1.00  0.00    -0.086 SA
HETATM    6  C   UNL     1       3.539  30.400  54.762  1.00  0.00     0.135 C 
HETATM    7  N   UNL     1       6.856  28.856  55.461  1.00  0.00    -0.229 NA
HETATM    8  C   UNL     1       7.060  27.529  55.091  1.00  0.00     0.048 C 
HETATM    9  C   UNL     1       7.775  26.693  56.127  1.00  0.00     0.071 C 
HETATM   10  C   UNL     1       6.545  27.019  53.944  1.00  0.00     0.069 C 
ENDROOT
BRANCH   3  11
HETATM   11  C   UNL     1       2.656  28.530  53.117  1.00  0.00     0.156 C 
BRANCH  11  12
HETATM   12  C   UNL     1       2.352  29.222  51.798  1.00  0.00     0.223 C 
HETATM   13  N   UNL     1       1.615  28.513  50.881  1.00  0.00    -0.359 N 
HETATM   14  H   UNL     1       1.455  27.523  51.059  1.00  0.00     0.162 HD
HETATM   15  O   UNL     1       2.746  30.365  51.579  1.00  0.00    -0.273 OA
BRANCH  13  16
HETATM   16  C   UNL     1       1.520  28.956  49.488  1.00  0.00     0.150 C 
BRANCH  16  17
HETATM   17  C   UNL     1       1.446  27.828  48.427  1.00  0.00     0.253 C 
BRANCH  17  18
HETATM   18  N   UNL     1       1.128  28.363  47.036  1.00  0.00    -0.077 N 
HETATM   19  H   UNL     1       1.928  28.171  46.419  1.00  0.00     0.279 HD
HETATM   20  C   UNL     1      -0.087  27.720  46.418  1.00  0.00     0.269 C 
HETATM   21  C   UNL     1       0.974  29.867  47.049  1.00  0.00     0.269 C 
ENDBRANCH  17  18
ENDBRANCH  16  17
ENDBRANCH  13  16
ENDBRANCH  11  12
ENDBRANCH   3  11
BRANCH   1  22
HETATM   22  C   UNL     1       5.495  27.661  51.522  1.00  0.00    -0.024 A 
HETATM   23  C   UNL     1       5.566  28.670  50.511  1.00  0.00    -0.053 A 
HETATM   24  C   UNL     1       5.285  28.349  49.163  1.00  0.00     0.014 A 
HETATM   25  C   UNL     1       5.961  30.106  50.766  1.00  0.00     0.049 C 
HETATM   26  C   UNL     1       4.974  27.050  48.768  1.00  0.00    -0.061 A 
HETATM   27  C   UNL     1       4.816  26.695  47.318  1.00  0.00     0.048 C 
HETATM   28  C   UNL     1       4.926  26.061  49.740  1.00  0.00     0.007 A 
HETATM   29  C   UNL     1       5.178  26.363  51.084  1.00  0.00     0.011 A 
ENDBRANCH   1  22
BRANCH  10  30
HETATM   30  C   UNL     1       6.426  25.564  53.840  1.00  0.00     0.294 C 
HETATM   31  O   UNL     1       5.436  24.924  54.128  1.00  0.00    -0.259 OA
BRANCH  30  32
HETATM   32  O   UNL     1       7.625  25.109  53.404  1.00  0.00    -0.313 OA
BRANCH  32  33
HETATM   33  C   UNL     1       7.603  23.930  52.574  1.00  0.00     0.217 C 
BRANCH  33  34
HETATM   34  C   UNL     1       8.005  22.761  53.441  1.00  0.00    -0.034 A 
HETATM   35  C   UNL     1       8.526  22.967  54.725  1.00  0.00     0.009 A 
HETATM   36  C   UNL     1       8.953  21.886  55.497  1.00  0.00     0.001 A 
HETATM   37  C   UNL     1       8.865  20.588  54.997  1.00  0.00     0.000 A 
HETATM   38  C   UNL     1       8.337  20.368  53.727  1.00  0.00     0.001 A 
HETATM   39  C   UNL     1       7.900  21.449  52.958  1.00  0.00     0.009 A 
ENDBRANCH  33  34
ENDBRANCH  32  33
ENDBRANCH  30  32
ENDBRANCH  10  30
TORSDOF 10
ENDMDL
MODEL 7
REMARK VINA RESULT:      -8.3      2.837      6.687
REMARK  10 active torsions:
REMARK  status: ('A' for Active; 'I' for Inactive)
REMARK    1  A    between atoms: C_6  and  C_7 
REMARK    2  A    between atoms: C_9  and  C_10 
REMARK    3  A    between atoms: C_10  and  C_11 
REMARK       I    between atoms: C_11  and  N_12 
REMARK    4  A    between atoms: N_12  and  C_13 
REMARK    5  A    between atoms: C_13  and  C_14 
REMARK    6  A    between atoms: C_14  and  N_15 
REMARK    7  A    between atoms: C_26  and  C_27 
REMARK    8  A    between atoms: C_27  and  O_28 
REMARK    9  A    between atoms: O_28  and  C_29 
REMARK   10  A    between atoms: C_29  and  C_30 
ROOT
HETATM    1  C   UNL     1       6.390  27.929  55.759  1.00  0.00     0.166 C 
HETATM    2  N   UNL     1       6.286  28.965  56.810  1.00  0.00    -0.318 N 
HETATM    3  C   UNL     1       5.513  29.915  57.221  1.00  0.00     0.011 C 
HETATM    4  C   UNL     1       7.507  28.810  57.768  1.00  0.00     0.170 C 
HETATM    5  S   UNL     1       7.835  30.281  58.603  1.00  0.00    -0.086 SA
HETATM    6  C   UNL     1       6.127  30.832  58.274  1.00  0.00     0.135 C 
HETATM    7  N   UNL     1       8.095  27.681  57.986  1.00  0.00    -0.229 NA
HETATM    8  C   UNL     1       7.461  26.548  57.483  1.00  0.00     0.048 C 
HETATM    9  C   UNL     1       7.762  25.274  58.238  1.00  0.00     0.071 C 
HETATM   10  C   UNL     1       6.558  26.622  56.474  1.00  0.00     0.069 C 
ENDROOT
BRANCH   3  11
HETATM   11  C   UNL     1       4.084  30.069  56.781  1.00  0.00     0.156 C 
BRANCH  11  12
HETATM   12  C   UNL     1       3.862  31.448  56.180  1.00  0.00     0.223 C 
HETATM   13  N   UNL     1       4.800  31.888  55.277  1.00  0.00    -0.359 N 
HETATM   14  H   UNL     1       5.661  31.353  55.184  1.00  0.00     0.162 HD
HETATM   15  O   UNL     1       2.883  32.122  56.489  1.00  0.00    -0.273 OA
BRANCH  13  16
HETATM   16  C   UNL     1       4.850  33.293  54.870  1.00  0.00     0.150 C 
BRANCH  16  17
HETATM   17  C   UNL     1       4.286  33.606  53.460  1.00  0.00     0.253 C 
BRANCH  17  18
HETATM   18  N   UNL     1       5.120  32.976  52.352  1.00  0.00    -0.077 N 
HETATM   19  H   UNL     1       5.871  32.418  52.781  1.00  0.00     0.279 HD
HETATM   20  C   UNL     1       4.323  32.056  51.461  1.00  0.00     0.269 C 
HETATM   21  C   UNL     1       5.819  34.029  51.523  1.00  0.00     0.269 C 
ENDBRANCH  17  18
ENDBRANCH  16  17
ENDBRANCH  13  16
ENDBRANCH  11  12
ENDBRANCH   3  11
BRANCH   1  22
HETATM   22  C   UNL     1       5.633  28.187  54.453  1.00  0.00    -0.024 A 
HETATM   23  C   UNL     1       6.282  28.051  53.187  1.00  0.00    -0.053 A 
HETATM   24  C   UNL     1       5.542  28.183  51.989  1.00  0.00     0.014 A 
HETATM   25  C   UNL     1       7.749  27.734  53.009  1.00  0.00     0.049 C 
HETATM   26  C   UNL     1       4.167  28.406  51.998  1.00  0.00    -0.061 A 
HETATM   27  C   UNL     1       3.371  28.404  50.726  1.00  0.00     0.048 C 
HETATM   28  C   UNL     1       3.527  28.516  53.224  1.00  0.00     0.007 A 
HETATM   29  C   UNL     1       4.246  28.413  54.421  1.00  0.00     0.011 A 
ENDBRANCH   1  22
BRANCH  10  30
HETATM   30  C   UNL     1       5.637  25.498  56.300  1.00  0.00     0.294 C 
HETATM   31  O   UNL     1       4.802  25.151  57.109  1.00  0.00    -0.259 OA
BRANCH  30  32
HETATM   32  O   UNL     1       5.935  24.936  55.104  1.00  0.00    -0.313 OA
BRANCH  32  33
HETATM   33  C   UNL     1       7.332  24.718  54.826  1.00  0.00     0.217 C 
BRANCH  33  34
HETATM   34  C   UNL     1       7.516  23.241  54.573  1.00  0.00    -0.034 A 
HETATM   35  C   UNL     1       7.551  22.331  55.637  1.00  0.00     0.009 A 
HETATM   36  C   UNL     1       7.782  20.975  55.401  1.00  0.00     0.001 A 
HETATM   37  C   UNL     1       7.982  20.512  54.101  1.00  0.00     0.000 A 
HETATM   38  C   UNL     1       7.938  21.405  53.032  1.00  0.00     0.001 A 
HETATM   39  C   UNL     1       7.696  22.760  53.267  1.00  0.00     0.009 A 
ENDBRANCH  33  34
ENDBRANCH  32  33
ENDBRANCH  30  32
ENDBRANCH  10  30
TORSDOF 10
ENDMDL
MODEL 8
REMARK VINA RESULT:      -8.2      3.507      9.794
REMARK  10 active torsions:
REMARK  status: ('A' for Active; 'I' for Inactive)
REMARK    1  A    between atoms: C_6  and  C_7 
REMARK    2  A    between atoms: C_9  and  C_10 
REMARK    3  A    between atoms: C_10  and  C_11 
REMARK       I    between atoms: C_11  and  N_12 
REMARK    4  A    between atoms: N_12  and  C_13 
REMARK    5  A    between atoms: C_13  and  C_14 
REMARK    6  A    between atoms: C_14  and  N_15 
REMARK    7  A    between atoms: C_26  and  C_27 
REMARK    8  A    between atoms: C_27  and  O_28 
REMARK    9  A    between atoms: O_28  and  C_29 
REMARK   10  A    between atoms: C_29  and  C_30 
ROOT
HETATM    1  C   UNL     1       5.550  31.784  57.159  1.00  0.00     0.166 C 
HETATM    2  N   UNL     1       4.922  32.215  55.890  1.00  0.00    -0.318 N 
HETATM    3  C   UNL     1       4.318  31.746  54.850  1.00  0.00     0.011 C 
HETATM    4  C   UNL     1       4.972  33.773  55.829  1.00  0.00     0.170 C 
HETATM    5  S   UNL     1       4.872  34.336  54.203  1.00  0.00    -0.086 SA
HETATM    6  C   UNL     1       4.127  32.744  53.714  1.00  0.00     0.135 C 
HETATM    7  N   UNL     1       4.958  34.523  56.881  1.00  0.00    -0.229 NA
HETATM    8  C   UNL     1       4.686  33.886  58.088  1.00  0.00     0.048 C 
HETATM    9  C   UNL     1       4.062  34.775  59.139  1.00  0.00     0.071 C 
HETATM   10  C   UNL     1       4.863  32.550  58.249  1.00  0.00     0.069 C 
ENDROOT
BRANCH   3  11
HETATM   11  C   UNL     1       3.752  30.354  54.779  1.00  0.00     0.156 C 
BRANCH  11  12
HETATM   12  C   UNL     1       3.953  29.774  53.388  1.00  0.00     0.223 C 
HETATM   13  N   UNL     1       5.222  29.356  53.069  1.00  0.00    -0.359 N 
HETATM   14  H   UNL     1       5.980  29.603  53.703  1.00  0.00     0.162 HD
HETATM   15  O   UNL     1       3.015  29.681  52.601  1.00  0.00    -0.273 OA
BRANCH  13  16
HETATM   16  C   UNL     1       5.590  29.065  51.682  1.00  0.00     0.150 C 
BRANCH  16  17
HETATM   17  C   UNL     1       5.355  27.605  51.215  1.00  0.00     0.253 C 
BRANCH  17  18
HETATM   18  N   UNL     1       4.155  27.482  50.285  1.00  0.00    -0.077 N 
HETATM   19  H   UNL     1       3.317  27.293  50.852  1.00  0.00     0.279 HD
HETATM   20  C   UNL     1       3.892  28.734  49.488  1.00  0.00     0.269 C 
HETATM   21  C   UNL     1       4.296  26.294  49.360  1.00  0.00     0.269 C 
ENDBRANCH  17  18
ENDBRANCH  16  17
ENDBRANCH  13  16
ENDBRANCH  11  12
ENDBRANCH   3  11
BRANCH   1  22
HETATM   22  C   UNL     1       6.076  30.347  57.220  1.00  0.00    -0.024 A 
HETATM   23  C   UNL     1       7.342  30.052  57.816  1.00  0.00    -0.053 A 
HETATM   24  C   UNL     1       7.763  28.710  57.964  1.00  0.00     0.014 A 
HETATM   25  C   UNL     1       8.297  31.093  58.352  1.00  0.00     0.049 C 
HETATM   26  C   UNL     1       6.957  27.642  57.579  1.00  0.00    -0.061 A 
HETATM   27  C   UNL     1       7.354  26.223  57.869  1.00  0.00     0.048 C 
HETATM   28  C   UNL     1       5.718  27.921  57.020  1.00  0.00     0.007 A 
HETATM   29  C   UNL     1       5.292  29.243  56.843  1.00  0.00     0.011 A 
ENDBRANCH   1  22
BRANCH  10  30
HETATM   30  C   UNL     1       4.165  31.900  59.359  1.00  0.00     0.294 C 
HETATM   31  O   UNL     1       3.034  31.465  59.311  1.00  0.00    -0.259 OA
BRANCH  30  32
HETATM   32  O   UNL     1       5.014  31.922  60.414  1.00  0.00    -0.313 OA
BRANCH  32  33
HETATM   33  C   UNL     1       4.435  32.222  61.699  1.00  0.00     0.217 C 
BRANCH  33  34
HETATM   34  C   UNL     1       5.572  32.506  62.651  1.00  0.00    -0.034 A 
HETATM   35  C   UNL     1       5.332  33.097  63.898  1.00  0.00     0.009 A 
HETATM   36  C   UNL     1       6.394  33.413  64.747  1.00  0.00     0.001 A 
HETATM   37  C   UNL     1       7.706  33.143  64.362  1.00  0.00     0.000 A 
HETATM   38  C   UNL     1       7.958  32.543  63.130  1.00  0.00     0.001 A 
HETATM   39  C   UNL     1       6.895  32.218  62.285  1.00  0.00     0.009 A 
ENDBRANCH  33  34
ENDBRANCH  32  33
ENDBRANCH  30  32
ENDBRANCH  10  30
TORSDOF 10
ENDMDL
MODEL 9
REMARK VINA RESULT:      -8.1      3.484      6.013
REMARK  10 active torsions:
REMARK  status: ('A' for Active; 'I' for Inactive)
REMARK    1  A    between atoms: C_6  and  C_7 
REMARK    2  A    between atoms: C_9  and  C_10 
REMARK    3  A    between atoms: C_10  and  C_11 
REMARK       I    between atoms: C_11  and  N_12 
REMARK    4  A    between atoms: N_12  and  C_13 
REMARK    5  A    between atoms: C_13  and  C_14 
REMARK    6  A    between atoms: C_14  and  N_15 
REMARK    7  A    between atoms: C_26  and  C_27 
REMARK    8  A    between atoms: C_27  and  O_28 
REMARK    9  A    between atoms: O_28  and  C_29 
REMARK   10  A    between atoms: C_29  and  C_30 
ROOT
HETATM    1  C   UNL     1       4.032  30.056  50.968  1.00  0.00     0.166 C 
HETATM    2  N   UNL     1       4.404  29.689  52.353  1.00  0.00    -0.318 N 
HETATM    3  C   UNL     1       4.898  28.716  53.043  1.00  0.00     0.011 C 
HETATM    4  C   UNL     1       4.154  30.928  53.267  1.00  0.00     0.170 C 
HETATM    5  S   UNL     1       3.938  30.456  54.910  1.00  0.00    -0.086 SA
HETATM    6  C   UNL     1       4.791  28.883  54.555  1.00  0.00     0.135 C 
HETATM    7  N   UNL     1       4.234  32.146  52.845  1.00  0.00    -0.229 NA
HETATM    8  C   UNL     1       4.761  32.323  51.568  1.00  0.00     0.048 C 
HETATM    9  C   UNL     1       5.422  33.663  51.344  1.00  0.00     0.071 C 
HETATM   10  C   UNL     1       4.777  31.319  50.655  1.00  0.00     0.069 C 
ENDROOT
BRANCH   3  11
HETATM   11  C   UNL     1       5.614  27.545  52.429  1.00  0.00     0.156 C 
BRANCH  11  12
HETATM   12  C   UNL     1       6.661  27.005  53.390  1.00  0.00     0.223 C 
HETATM   13  N   UNL     1       6.420  25.767  53.937  1.00  0.00    -0.359 N 
HETATM   14  H   UNL     1       5.497  25.358  53.804  1.00  0.00     0.162 HD
HETATM   15  O   UNL     1       7.674  27.649  53.650  1.00  0.00    -0.273 OA
BRANCH  13  16
HETATM   16  C   UNL     1       7.196  25.288  55.083  1.00  0.00     0.150 C 
BRANCH  16  17
HETATM   17  C   UNL     1       7.241  23.749  55.269  1.00  0.00     0.253 C 
BRANCH  17  18
HETATM   18  N   UNL     1       8.333  23.097  54.432  1.00  0.00    -0.077 N 
HETATM   19  H   UNL     1       8.999  23.823  54.135  1.00  0.00     0.279 HD
HETATM   20  C   UNL     1       9.111  22.048  55.185  1.00  0.00     0.269 C 
HETATM   21  C   UNL     1       7.772  22.514  53.155  1.00  0.00     0.269 C 
ENDBRANCH  17  18
ENDBRANCH  16  17
ENDBRANCH  13  16
ENDBRANCH  11  12
ENDBRANCH   3  11
BRANCH   1  22
HETATM   22  C   UNL     1       3.703  28.908  50.011  1.00  0.00    -0.024 A 
HETATM   23  C   UNL     1       2.347  28.562  49.715  1.00  0.00    -0.053 A 
HETATM   24  C   UNL     1       2.059  27.574  48.745  1.00  0.00     0.014 A 
HETATM   25  C   UNL     1       1.142  29.211  50.355  1.00  0.00     0.049 C 
HETATM   26  C   UNL     1       3.067  26.940  48.023  1.00  0.00    -0.061 A 
HETATM   27  C   UNL     1       2.745  25.997  46.901  1.00  0.00     0.048 C 
HETATM   28  C   UNL     1       4.384  27.287  48.289  1.00  0.00     0.007 A 
HETATM   29  C   UNL     1       4.691  28.245  49.263  1.00  0.00     0.011 A 
ENDBRANCH   1  22
BRANCH  10  30
HETATM   30  C   UNL     1       5.708  31.435  49.533  1.00  0.00     0.294 C 
HETATM   31  O   UNL     1       6.844  31.009  49.524  1.00  0.00    -0.259 OA
BRANCH  30  32
HETATM   32  O   UNL     1       5.060  32.123  48.563  1.00  0.00    -0.313 OA
BRANCH  32  33
HETATM   33  C   UNL     1       4.783  31.409  47.342  1.00  0.00     0.217 C 
BRANCH  33  34
HETATM   34  C   UNL     1       3.287  31.218  47.261  1.00  0.00    -0.034 A 
HETATM   35  C   UNL     1       2.734  30.257  46.405  1.00  0.00     0.009 A 
HETATM   36  C   UNL     1       1.349  30.126  46.289  1.00  0.00     0.001 A 
HETATM   37  C   UNL     1       0.502  30.954  47.025  1.00  0.00     0.000 A 
HETATM   38  C   UNL     1       1.040  31.905  47.890  1.00  0.00     0.001 A 
HETATM   39  C   UNL     1       2.425  32.028  48.014  1.00  0.00     0.009 A 
ENDBRANCH  33  34
ENDBRANCH  32  33
ENDBRANCH  30  32
ENDBRANCH  10  30
TORSDOF 10
ENDMDL
MODEL 10
REMARK VINA RESULT:      -8.0      3.392      6.503
REMARK  10 active torsions:
REMARK  status: ('A' for Active; 'I' for Inactive)
REMARK    1  A    between atoms: C_6  and  C_7 
REMARK    2  A    between atoms: C_9  and  C_10 
REMARK    3  A    between atoms: C_10  and  C_11 
REMARK       I    between atoms: C_11  and  N_12 
REMARK    4  A    between atoms: N_12  and  C_13 
REMARK    5  A    between atoms: C_13  and  C_14 
REMARK    6  A    between atoms: C_14  and  N_15 
REMARK    7  A    between atoms: C_26  and  C_27 
REMARK    8  A    between atoms: C_27  and  O_28 
REMARK    9  A    between atoms: O_28  and  C_29 
REMARK   10  A    between atoms: C_29  and  C_30 
ROOT
HETATM    1  C   UNL     1       4.094  28.687  49.905  1.00  0.00     0.166 C 
HETATM    2  N   UNL     1       4.417  27.852  51.083  1.00  0.00    -0.318 N 
HETATM    3  C   UNL     1       4.234  27.789  52.360  1.00  0.00     0.011 C 
HETATM    4  C   UNL     1       5.205  26.599  50.588  1.00  0.00     0.170 C 
HETATM    5  S   UNL     1       6.153  25.919  51.856  1.00  0.00    -0.086 SA
HETATM    6  C   UNL     1       5.086  26.751  53.081  1.00  0.00     0.135 C 
HETATM    7  N   UNL     1       5.047  26.083  49.415  1.00  0.00    -0.229 NA
HETATM    8  C   UNL     1       3.981  26.572  48.665  1.00  0.00     0.048 C 
HETATM    9  C   UNL     1       3.430  25.596  47.651  1.00  0.00     0.071 C 
HETATM   10  C   UNL     1       3.420  27.780  48.920  1.00  0.00     0.069 C 
ENDROOT
BRANCH   3  11
HETATM   11  C   UNL     1       3.198  28.600  53.089  1.00  0.00     0.156 C 
BRANCH  11  12
HETATM   12  C   UNL     1       3.869  29.602  54.015  1.00  0.00     0.223 C 
HETATM   13  N   UNL     1       4.087  29.197  55.310  1.00  0.00    -0.359 N 
HETATM   14  H   UNL     1       3.650  28.332  55.620  1.00  0.00     0.162 HD
HETATM   15  O   UNL     1       4.202  30.712  53.610  1.00  0.00    -0.273 OA
BRANCH  13  16
HETATM   16  C   UNL     1       4.445  30.165  56.349  1.00  0.00     0.150 C 
BRANCH  16  17
HETATM   17  C   UNL     1       5.963  30.328  56.623  1.00  0.00     0.253 C 
BRANCH  17  18
HETATM   18  N   UNL     1       6.421  29.525  57.833  1.00  0.00    -0.077 N 
HETATM   19  H   UNL     1       5.647  29.476  58.509  1.00  0.00     0.279 HD
HETATM   20  C   UNL     1       6.814  28.110  57.491  1.00  0.00     0.269 C 
HETATM   21  C   UNL     1       7.551  30.220  58.558  1.00  0.00     0.269 C 
ENDBRANCH  17  18
ENDBRANCH  16  17
ENDBRANCH  13  16
ENDBRANCH  11  12
ENDBRANCH   3  11
BRANCH   1  22
HETATM   22  C   UNL     1       3.797  30.167  50.165  1.00  0.00    -0.024 A 
HETATM   23  C   UNL     1       4.799  31.166  49.963  1.00  0.00    -0.053 A 
HETATM   24  C   UNL     1       4.478  32.536  50.099  1.00  0.00     0.014 A 
HETATM   25  C   UNL     1       6.229  30.873  49.569  1.00  0.00     0.049 C 
HETATM   26  C   UNL     1       3.183  32.959  50.390  1.00  0.00    -0.061 A 
HETATM   27  C   UNL     1       2.824  34.417  50.394  1.00  0.00     0.048 C 
HETATM   28  C   UNL     1       2.200  31.996  50.565  1.00  0.00     0.007 A 
HETATM   29  C   UNL     1       2.503  30.633  50.458  1.00  0.00     0.011 A 
ENDBRANCH   1  22
BRANCH  10  30
HETATM   30  C   UNL     1       2.074  28.029  48.404  1.00  0.00     0.294 C 
HETATM   31  O   UNL     1       1.044  27.749  48.981  1.00  0.00    -0.259 OA
BRANCH  30  32
HETATM   32  O   UNL     1       2.227  28.585  47.178  1.00  0.00    -0.313 OA
BRANCH  32  33
HETATM   33  C   UNL     1       1.515  29.814  46.936  1.00  0.00     0.217 C 
BRANCH  33  34
HETATM   34  C   UNL     1       2.546  30.905  46.763  1.00  0.00    -0.034 A 
HETATM   35  C   UNL     1       2.189  32.253  46.890  1.00  0.00     0.009 A 
HETATM   36  C   UNL     1       3.132  33.258  46.669  1.00  0.00     0.001 A 
HETATM   37  C   UNL     1       4.440  32.929  46.318  1.00  0.00     0.000 A 
HETATM   38  C   UNL     1       4.811  31.591  46.201  1.00  0.00     0.001 A 
HETATM   39  C   UNL     1       3.871  30.585  46.432  1.00  0.00     0.009 A 
ENDBRANCH  33  34
ENDBRANCH  32  33
ENDBRANCH  30  32
ENDBRANCH  10  30
TORSDOF 10
ENDMDL
