MODEL 1
REMARK VINA RESULT:      -8.5      0.000      0.000
REMARK  10 active torsions:
REMARK  status: ('A' for Active; 'I' for Inactive)
REMARK    1  A    between atoms: C_2  and  O_3 
REMARK    2  A    between atoms: O_3  and  C_4 
REMARK    3  A    between atoms: C_4  and  C_5 
REMARK    4  A    between atoms: C_6  and  C_7 
REMARK    5  A    between atoms: C_14  and  C_15 
REMARK    6  A    between atoms: C_15  and  C_16 
REMARK       I    between atoms: C_16  and  N_17 
REMARK    7  A    between atoms: N_17  and  C_18 
REMARK    8  A    between atoms: C_18  and  C_19 
REMARK    9  A    between atoms: C_19  and  N_20 
REMARK   10  A    between atoms: C_31  and  C_32 
ROOT
HETATM    1  C   UNL     1       5.121  29.134  52.035  1.00  0.00     0.074 C 
HETATM    2  C   UNL     1       6.064  28.505  53.036  1.00  0.00     0.166 C 
HETATM    3  N   UNL     1       5.753  28.881  54.436  1.00  0.00    -0.318 N 
HETATM    4  C   UNL     1       6.383  28.750  55.560  1.00  0.00     0.011 C 
HETATM    5  C   UNL     1       4.302  29.358  54.643  1.00  0.00     0.170 C 
HETATM    6  S   UNL     1       3.888  29.481  56.318  1.00  0.00    -0.086 SA
HETATM    7  C   UNL     1       5.604  29.159  56.792  1.00  0.00     0.135 C 
HETATM    8  N   UNL     1       3.469  29.624  53.709  1.00  0.00    -0.223 NA
HETATM    9  C   UNL     1       3.896  29.577  52.400  1.00  0.00     0.084 C 
ENDROOT
BRANCH   4  10
HETATM   10  C   UNL     1       7.754  28.121  55.614  1.00  0.00     0.156 C 
BRANCH  10  11
HETATM   11  C   UNL     1       7.918  26.925  56.540  1.00  0.00     0.223 C 
HETATM   12  N   UNL     1       7.598  25.720  55.972  1.00  0.00    -0.359 N 
HETATM   13  H   UNL     1       7.210  25.728  55.032  1.00  0.00     0.162 HD
HETATM   14  O   UNL     1       8.293  27.032  57.703  1.00  0.00    -0.273 OA
BRANCH  12  15
HETATM   15  C   UNL     1       7.646  24.386  56.588  1.00  0.00     0.150 C 
BRANCH  15  16
HETATM   16  C   UNL     1       8.704  23.356  56.130  1.00  0.00     0.254 C 
BRANCH  16  17
HETATM   17  N   UNL     1       8.149  22.317  55.192  1.00  0.00    -0.070 N 
HETATM   18  H   UNL     1       7.246  22.714  54.868  1.00  0.00     0.279 HD
HETATM   19  C   UNL     1       7.799  20.995  55.859  1.00  0.00     0.235 C 
HETATM   20  C   UNL     1       8.523  19.942  55.041  1.00  0.00     0.029 C 
HETATM   21  C   UNL     1       8.629  20.561  53.663  1.00  0.00     0.029 C 
HETATM   22  C   UNL     1       8.985  21.998  53.976  1.00  0.00     0.235 C 
ENDBRANCH  16  17
ENDBRANCH  15  16
ENDBRANCH  12  15
ENDBRANCH  10  11
ENDBRANCH   4  10
BRANCH   2  23
HETATM   23  C   UNL     1       6.098  26.979  52.938  1.00  0.00    -0.030 A 
HETATM   24  C   UNL     1       7.278  26.332  52.529  1.00  0.00     0.009 A 
HETATM   25  C   UNL     1       7.336  24.940  52.449  1.00  0.00     0.001 A 
HETATM   26  C   UNL     1       6.219  24.174  52.770  1.00  0.00     0.000 A 
HETATM   27  C   UNL     1       5.036  24.797  53.155  1.00  0.00     0.001 A 
HETATM   28  C   UNL     1       4.968  26.189  53.234  1.00  0.00     0.009 A 
ENDBRANCH   2  23
BRANCH   1  29
HETATM   29  C   UNL     1       5.736  29.208  50.677  1.00  0.00     0.294 C 
HETATM   30  O   UNL     1       6.184  30.261  50.245  1.00  0.00    -0.259 OA
BRANCH  29  31
HETATM   31  O   UNL     1       5.602  28.068  49.975  1.00  0.00    -0.318 OA
BRANCH  31  32
HETATM   32  C   UNL     1       4.951  28.163  48.696  1.00  0.00     0.174 C 
HETATM   33  C   UNL     1       4.103  26.929  48.449  1.00  0.00     0.034 C 
ENDBRANCH  31  32
ENDBRANCH  29  31
ENDBRANCH   1  29
BRANCH   9  34
HETATM   34  C   UNL     1       2.864  30.040  51.442  1.00  0.00    -0.006 A 
HETATM   35  C   UNL     1       2.693  31.407  51.178  1.00  0.00     0.014 A 
HETATM   36  C   UNL     1       1.759  31.832  50.231  1.00  0.00     0.001 A 
HETATM   37  C   UNL     1       1.003  30.895  49.528  1.00  0.00     0.000 A 
HETATM   38  C   UNL     1       1.178  29.535  49.770  1.00  0.00     0.001 A 
HETATM   39  C   UNL     1       2.106  29.106  50.719  1.00  0.00     0.014 A 
ENDBRANCH   9  34
TORSDOF 10
ENDMDL
MODEL 2
REMARK VINA RESULT:      -8.0      4.720      8.683
REMARK  10 active torsions:
REMARK  status: ('A' for Active; 'I' for Inactive)
REMARK    1  A    between atoms: C_2  and  O_3 
REMARK    2  A    between atoms: O_3  and  C_4 
REMARK    3  A    between atoms: C_4  and  C_5 
REMARK    4  A    between atoms: C_6  and  C_7 
REMARK    5  A    between atoms: C_14  and  C_15 
REMARK    6  A    between atoms: C_15  and  C_16 
REMARK       I    between atoms: C_16  and  N_17 
REMARK    7  A    between atoms: N_17  and  C_18 
REMARK    8  A    between atoms: C_18  and  C_19 
REMARK    9  A    between atoms: C_19  and  N_20 
REMARK   10  A    between atoms: C_31  and  C_32 
ROOT
HETATM    1  C   UNL     1       6.306  28.023  56.155  1.00  0.00     0.074 C 
HETATM    2  C   UNL     1       6.620  28.901  57.346  1.00  0.00     0.166 C 
HETATM    3  N   UNL     1       8.050  29.286  57.418  1.00  0.00    -0.318 N 
HETATM    4  C   UNL     1       8.785  29.837  58.331  1.00  0.00     0.011 C 
HETATM    5  C   UNL     1       8.787  29.190  56.068  1.00  0.00     0.170 C 
HETATM    6  S   UNL     1      10.344  29.940  56.119  1.00  0.00    -0.086 SA
HETATM    7  C   UNL     1      10.196  30.184  57.905  1.00  0.00     0.135 C 
HETATM    8  N   UNL     1       8.324  28.642  55.008  1.00  0.00    -0.223 NA
HETATM    9  C   UNL     1       7.107  27.997  55.066  1.00  0.00     0.084 C 
ENDROOT
BRANCH   4  10
HETATM   10  C   UNL     1       8.209  30.201  59.678  1.00  0.00     0.156 C 
BRANCH  10  11
HETATM   11  C   UNL     1       7.799  31.653  59.872  1.00  0.00     0.223 C 
HETATM   12  N   UNL     1       6.666  31.826  60.624  1.00  0.00    -0.359 N 
HETATM   13  H   UNL     1       6.158  30.993  60.914  1.00  0.00     0.162 HD
HETATM   14  O   UNL     1       8.423  32.590  59.387  1.00  0.00    -0.273 OA
BRANCH  12  15
HETATM   15  C   UNL     1       6.009  33.087  60.996  1.00  0.00     0.150 C 
BRANCH  15  16
HETATM   16  C   UNL     1       5.024  33.130  62.186  1.00  0.00     0.254 C 
BRANCH  16  17
HETATM   17  N   UNL     1       5.687  32.852  63.510  1.00  0.00    -0.070 N 
HETATM   18  H   UNL     1       5.666  31.818  63.601  1.00  0.00     0.279 HD
HETATM   19  C   UNL     1       4.925  33.384  64.715  1.00  0.00     0.235 C 
HETATM   20  C   UNL     1       5.939  34.212  65.483  1.00  0.00     0.029 C 
HETATM   21  C   UNL     1       7.268  33.577  65.131  1.00  0.00     0.029 C 
HETATM   22  C   UNL     1       7.120  33.307  63.649  1.00  0.00     0.235 C 
ENDBRANCH  16  17
ENDBRANCH  15  16
ENDBRANCH  12  15
ENDBRANCH  10  11
ENDBRANCH   4  10
BRANCH   2  23
HETATM   23  C   UNL     1       5.771  30.173  57.383  1.00  0.00    -0.030 A 
HETATM   24  C   UNL     1       4.675  30.255  58.261  1.00  0.00     0.009 A 
HETATM   25  C   UNL     1       3.897  31.412  58.324  1.00  0.00     0.001 A 
HETATM   26  C   UNL     1       4.198  32.501  57.509  1.00  0.00     0.000 A 
HETATM   27  C   UNL     1       5.265  32.430  56.619  1.00  0.00     0.001 A 
HETATM   28  C   UNL     1       6.045  31.274  56.548  1.00  0.00     0.009 A 
ENDBRANCH   2  23
BRANCH   1  29
HETATM   29  C   UNL     1       5.066  27.222  56.379  1.00  0.00     0.294 C 
HETATM   30  O   UNL     1       3.982  27.612  55.971  1.00  0.00    -0.259 OA
BRANCH  29  31
HETATM   31  O   UNL     1       5.265  26.155  57.174  1.00  0.00    -0.318 OA
BRANCH  31  32
HETATM   32  C   UNL     1       5.739  24.952  56.543  1.00  0.00     0.174 C 
HETATM   33  C   UNL     1       7.175  24.678  56.952  1.00  0.00     0.034 C 
ENDBRANCH  31  32
ENDBRANCH  29  31
ENDBRANCH   1  29
BRANCH   9  34
HETATM   34  C   UNL     1       6.766  27.298  53.805  1.00  0.00    -0.006 A 
HETATM   35  C   UNL     1       5.859  27.863  52.895  1.00  0.00     0.014 A 
HETATM   36  C   UNL     1       5.586  27.225  51.683  1.00  0.00     0.001 A 
HETATM   37  C   UNL     1       6.229  26.031  51.362  1.00  0.00     0.000 A 
HETATM   38  C   UNL     1       7.145  25.471  52.251  1.00  0.00     0.001 A 
HETATM   39  C   UNL     1       7.416  26.102  53.466  1.00  0.00     0.014 A 
ENDBRANCH   9  34
TORSDOF 10
ENDMDL
MODEL 3
REMARK VINA RESULT:      -7.7      2.724      5.176
REMARK  10 active torsions:
REMARK  status: ('A' for Active; 'I' for Inactive)
REMARK    1  A    between atoms: C_2  and  O_3 
REMARK    2  A    between atoms: O_3  and  C_4 
REMARK    3  A    between atoms: C_4  and  C_5 
REMARK    4  A    between atoms: C_6  and  C_7 
REMARK    5  A    between atoms: C_14  and  C_15 
REMARK    6  A    between atoms: C_15  and  C_16 
REMARK       I    between atoms: C_16  and  N_17 
REMARK    7  A    between atoms: N_17  and  C_18 
REMARK    8  A    between atoms: C_18  and  C_19 
REMARK    9  A    between atoms: C_19  and  N_20 
REMARK   10  A    between atoms: C_31  and  C_32 
ROOT
HETATM    1  C   UNL     1       5.028  29.130  51.898  1.00  0.00     0.074 C 
HETATM    2  C   UNL     1       5.969  28.536  52.921  1.00  0.00     0.166 C 
HETATM    3  N   UNL     1       5.660  28.966  54.306  1.00  0.00    -0.318 N 
HETATM    4  C   UNL     1       6.290  28.875  55.434  1.00  0.00     0.011 C 
HETATM    5  C   UNL     1       4.212  29.457  54.496  1.00  0.00     0.170 C 
HETATM    6  S   UNL     1       3.799  29.645  56.165  1.00  0.00    -0.086 SA
HETATM    7  C   UNL     1       5.513  29.334  56.650  1.00  0.00     0.135 C 
HETATM    8  N   UNL     1       3.379  29.691  53.552  1.00  0.00    -0.223 NA
HETATM    9  C   UNL     1       3.805  29.592  52.246  1.00  0.00     0.084 C 
ENDROOT
BRANCH   4  10
HETATM   10  C   UNL     1       7.659  28.242  55.512  1.00  0.00     0.156 C 
BRANCH  10  11
HETATM   11  C   UNL     1       8.408  28.402  56.826  1.00  0.00     0.223 C 
HETATM   12  N   UNL     1       8.952  29.645  57.020  1.00  0.00    -0.359 N 
HETATM   13  H   UNL     1       8.886  30.315  56.258  1.00  0.00     0.162 HD
HETATM   14  O   UNL     1       8.526  27.491  57.639  1.00  0.00    -0.273 OA
BRANCH  12  15
HETATM   15  C   UNL     1       9.729  30.123  58.173  1.00  0.00     0.150 C 
BRANCH  15  16
HETATM   16  C   UNL     1       9.311  31.416  58.909  1.00  0.00     0.254 C 
BRANCH  16  17
HETATM   17  N   UNL     1       8.465  31.154  60.128  1.00  0.00    -0.070 N 
HETATM   18  H   UNL     1       7.717  30.517  59.794  1.00  0.00     0.279 HD
HETATM   19  C   UNL     1       7.746  32.382  60.666  1.00  0.00     0.235 C 
HETATM   20  C   UNL     1       8.121  32.440  62.136  1.00  0.00     0.029 C 
HETATM   21  C   UNL     1       8.392  30.995  62.499  1.00  0.00     0.029 C 
HETATM   22  C   UNL     1       9.159  30.493  61.294  1.00  0.00     0.235 C 
ENDBRANCH  16  17
ENDBRANCH  15  16
ENDBRANCH  12  15
ENDBRANCH  10  11
ENDBRANCH   4  10
BRANCH   2  23
HETATM   23  C   UNL     1       5.996  27.006  52.881  1.00  0.00    -0.030 A 
HETATM   24  C   UNL     1       7.207  26.336  52.631  1.00  0.00     0.009 A 
HETATM   25  C   UNL     1       7.258  24.942  52.606  1.00  0.00     0.001 A 
HETATM   26  C   UNL     1       6.103  24.197  52.826  1.00  0.00     0.000 A 
HETATM   27  C   UNL     1       4.891  24.842  53.054  1.00  0.00     0.001 A 
HETATM   28  C   UNL     1       4.831  26.237  53.076  1.00  0.00     0.009 A 
ENDBRANCH   2  23
BRANCH   1  29
HETATM   29  C   UNL     1       5.643  29.150  50.537  1.00  0.00     0.294 C 
HETATM   30  O   UNL     1       5.569  28.178  49.799  1.00  0.00    -0.259 OA
BRANCH  29  31
HETATM   31  O   UNL     1       6.374  30.254  50.306  1.00  0.00    -0.318 OA
BRANCH  31  32
HETATM   32  C   UNL     1       5.789  31.259  49.459  1.00  0.00     0.174 C 
HETATM   33  C   UNL     1       5.676  32.574  50.208  1.00  0.00     0.034 C 
ENDBRANCH  31  32
ENDBRANCH  29  31
ENDBRANCH   1  29
BRANCH   9  34
HETATM   34  C   UNL     1       2.775  30.022  51.271  1.00  0.00    -0.006 A 
HETATM   35  C   UNL     1       2.138  29.086  50.442  1.00  0.00     0.014 A 
HETATM   36  C   UNL     1       1.128  29.492  49.566  1.00  0.00     0.001 A 
HETATM   37  C   UNL     1       0.735  30.828  49.525  1.00  0.00     0.000 A 
HETATM   38  C   UNL     1       1.348  31.762  50.357  1.00  0.00     0.001 A 
HETATM   39  C   UNL     1       2.362  31.362  51.230  1.00  0.00     0.014 A 
ENDBRANCH   9  34
TORSDOF 10
ENDMDL
MODEL 4
REMARK VINA RESULT:      -7.6      4.118      8.722
REMARK  10 active torsions:
REMARK  status: ('A' for Active; 'I' for Inactive)
REMARK    1  A    between atoms: C_2  and  O_3 
REMARK    2  A    between atoms: O_3  and  C_4 
REMARK    3  A    between atoms: C_4  and  C_5 
REMARK    4  A    between atoms: C_6  and  C_7 
REMARK    5  A    between atoms: C_14  and  C_15 
REMARK    6  A    between atoms: C_15  and  C_16 
REMARK       I    between atoms: C_16  and  N_17 
REMARK    7  A    between atoms: N_17  and  C_18 
REMARK    8  A    between atoms: C_18  and  C_19 
REMARK    9  A    between atoms: C_19  and  N_20 
REMARK   10  A    between atoms: C_31  and  C_32 
ROOT
HETATM    1  C   UNL     1       6.300  26.196  56.368  1.00  0.00     0.074 C 
HETATM    2  C   UNL     1       5.900  27.649  56.489  1.00  0.00     0.166 C 
HETATM    3  N   UNL     1       6.972  28.496  57.065  1.00  0.00    -0.318 N 
HETATM    4  C   UNL     1       7.009  29.708  57.520  1.00  0.00     0.011 C 
HETATM    5  C   UNL     1       8.382  27.891  56.928  1.00  0.00     0.170 C 
HETATM    6  S   UNL     1       9.623  29.031  57.317  1.00  0.00    -0.086 SA
HETATM    7  C   UNL     1       8.386  30.222  57.885  1.00  0.00     0.135 C 
HETATM    8  N   UNL     1       8.642  26.693  56.557  1.00  0.00    -0.223 NA
HETATM    9  C   UNL     1       7.599  25.821  56.339  1.00  0.00     0.084 C 
ENDROOT
BRANCH   4  10
HETATM   10  C   UNL     1       5.764  30.561  57.563  1.00  0.00     0.156 C 
BRANCH  10  11
HETATM   11  C   UNL     1       5.772  31.726  58.542  1.00  0.00     0.223 C 
HETATM   12  N   UNL     1       4.807  31.657  59.513  1.00  0.00    -0.359 N 
HETATM   13  H   UNL     1       4.130  30.900  59.455  1.00  0.00     0.162 HD
HETATM   14  O   UNL     1       6.568  32.655  58.463  1.00  0.00    -0.273 OA
BRANCH  12  15
HETATM   15  C   UNL     1       4.545  32.611  60.600  1.00  0.00     0.150 C 
BRANCH  15  16
HETATM   16  C   UNL     1       4.809  32.206  62.069  1.00  0.00     0.254 C 
BRANCH  16  17
HETATM   17  N   UNL     1       5.814  33.094  62.755  1.00  0.00    -0.070 N 
HETATM   18  H   UNL     1       5.544  34.058  62.475  1.00  0.00     0.279 HD
HETATM   19  C   UNL     1       7.244  32.912  62.269  1.00  0.00     0.235 C 
HETATM   20  C   UNL     1       8.055  32.666  63.527  1.00  0.00     0.029 C 
HETATM   21  C   UNL     1       7.273  33.381  64.609  1.00  0.00     0.029 C 
HETATM   22  C   UNL     1       5.841  33.034  64.263  1.00  0.00     0.235 C 
ENDBRANCH  16  17
ENDBRANCH  15  16
ENDBRANCH  12  15
ENDBRANCH  10  11
ENDBRANCH   4  10
BRANCH   2  23
HETATM   23  C   UNL     1       5.465  28.256  55.153  1.00  0.00    -0.030 A 
HETATM   24  C   UNL     1       4.185  28.825  55.029  1.00  0.00     0.009 A 
HETATM   25  C   UNL     1       3.774  29.399  53.825  1.00  0.00     0.001 A 
HETATM   26  C   UNL     1       4.631  29.410  52.728  1.00  0.00     0.000 A 
HETATM   27  C   UNL     1       5.893  28.832  52.825  1.00  0.00     0.001 A 
HETATM   28  C   UNL     1       6.310  28.252  54.025  1.00  0.00     0.009 A 
ENDBRANCH   2  23
BRANCH   1  29
HETATM   29  C   UNL     1       5.104  25.303  56.320  1.00  0.00     0.294 C 
HETATM   30  O   UNL     1       4.362  25.193  57.285  1.00  0.00    -0.259 OA
BRANCH  29  31
HETATM   31  O   UNL     1       5.043  24.565  55.197  1.00  0.00    -0.318 OA
BRANCH  31  32
HETATM   32  C   UNL     1       4.658  25.245  53.990  1.00  0.00     0.174 C 
HETATM   33  C   UNL     1       5.483  24.742  52.820  1.00  0.00     0.034 C 
ENDBRANCH  31  32
ENDBRANCH  29  31
ENDBRANCH   1  29
BRANCH   9  34
HETATM   34  C   UNL     1       8.055  24.441  56.048  1.00  0.00    -0.006 A 
HETATM   35  C   UNL     1       8.430  24.070  54.748  1.00  0.00     0.014 A 
HETATM   36  C   UNL     1       8.914  22.784  54.493  1.00  0.00     0.001 A 
HETATM   37  C   UNL     1       9.042  21.867  55.535  1.00  0.00     0.000 A 
HETATM   38  C   UNL     1       8.688  22.232  56.832  1.00  0.00     0.001 A 
HETATM   39  C   UNL     1       8.200  23.514  57.090  1.00  0.00     0.014 A 
ENDBRANCH   9  34
TORSDOF 10
ENDMDL
MODEL 5
REMARK VINA RESULT:      -7.1      5.947      9.780
REMARK  10 active torsions:
REMARK  status: ('A' for Active; 'I' for Inactive)
REMARK    1  A    between atoms: C_2  and  O_3 
REMARK    2  A    between atoms: O_3  and  C_4 
REMARK    3  A    between atoms: C_4  and  C_5 
REMARK    4  A    between atoms: C_6  and  C_7 
REMARK    5  A    between atoms: C_14  and  C_15 
REMARK    6  A    between atoms: C_15  and  C_16 
REMARK       I    between atoms: C_16  and  N_17 
REMARK    7  A    between atoms: N_17  and  C_18 
REMARK    8  A    between atoms: C_18  and  C_19 
REMARK    9  A    between atoms: C_19  and  N_20 
REMARK   10  A    between atoms: C_31  and  C_32 
ROOT
HETATM    1  C   UNL     1       5.342  32.708  61.225  1.00  0.00     0.074 C 
HETATM    2  C   UNL     1       5.687  31.765  60.093  1.00  0.00     0.166 C 
HETATM    3  N   UNL     1       5.078  32.166  58.803  1.00  0.00    -0.318 N 
HETATM    4  C   UNL     1       4.939  31.579  57.657  1.00  0.00     0.011 C 
HETATM    5  C   UNL     1       4.692  33.657  58.735  1.00  0.00     0.170 C 
HETATM    6  S   UNL     1       4.286  34.154  57.129  1.00  0.00    -0.086 SA
HETATM    7  C   UNL     1       4.367  32.441  56.551  1.00  0.00     0.135 C 
HETATM    8  N   UNL     1       4.679  34.465  59.727  1.00  0.00    -0.223 NA
HETATM    9  C   UNL     1       4.941  33.978  60.989  1.00  0.00     0.084 C 
ENDROOT
BRANCH   4  10
HETATM   10  C   UNL     1       5.430  30.168  57.441  1.00  0.00     0.156 C 
BRANCH  10  11
HETATM   11  C   UNL     1       4.949  29.466  56.181  1.00  0.00     0.223 C 
HETATM   12  N   UNL     1       5.932  29.216  55.260  1.00  0.00    -0.359 N 
HETATM   13  H   UNL     1       6.862  29.583  55.449  1.00  0.00     0.162 HD
HETATM   14  O   UNL     1       3.775  29.158  55.998  1.00  0.00    -0.273 OA
BRANCH  12  15
HETATM   15  C   UNL     1       5.803  28.560  53.951  1.00  0.00     0.150 C 
BRANCH  15  16
HETATM   16  C   UNL     1       6.980  27.741  53.372  1.00  0.00     0.254 C 
BRANCH  16  17
HETATM   17  N   UNL     1       6.610  26.314  53.062  1.00  0.00    -0.070 N 
HETATM   18  H   UNL     1       5.868  26.389  52.339  1.00  0.00     0.279 HD
HETATM   19  C   UNL     1       5.975  25.566  54.225  1.00  0.00     0.235 C 
HETATM   20  C   UNL     1       6.797  24.299  54.368  1.00  0.00     0.029 C 
HETATM   21  C   UNL     1       7.328  24.050  52.972  1.00  0.00     0.029 C 
HETATM   22  C   UNL     1       7.713  25.441  52.515  1.00  0.00     0.235 C 
ENDBRANCH  16  17
ENDBRANCH  15  16
ENDBRANCH  12  15
ENDBRANCH  10  11
ENDBRANCH   4  10
BRANCH   2  23
HETATM   23  C   UNL     1       7.196  31.612  59.893  1.00  0.00    -0.030 A 
HETATM   24  C   UNL     1       7.706  30.439  59.307  1.00  0.00     0.009 A 
HETATM   25  C   UNL     1       9.078  30.285  59.098  1.00  0.00     0.001 A 
HETATM   26  C   UNL     1       9.959  31.295  59.475  1.00  0.00     0.000 A 
HETATM   27  C   UNL     1       9.475  32.453  60.075  1.00  0.00     0.001 A 
HETATM   28  C   UNL     1       8.105  32.613  60.291  1.00  0.00     0.009 A 
ENDBRANCH   2  23
BRANCH   1  29
HETATM   29  C   UNL     1       5.479  32.039  62.553  1.00  0.00     0.294 C 
HETATM   30  O   UNL     1       4.623  31.267  62.960  1.00  0.00    -0.259 OA
BRANCH  29  31
HETATM   31  O   UNL     1       6.527  32.490  63.264  1.00  0.00    -0.318 OA
BRANCH  31  32
HETATM   32  C   UNL     1       6.242  33.082  64.544  1.00  0.00     0.174 C 
HETATM   33  C   UNL     1       7.426  33.906  65.014  1.00  0.00     0.034 C 
ENDBRANCH  31  32
ENDBRANCH  29  31
ENDBRANCH   1  29
BRANCH   9  34
HETATM   34  C   UNL     1       4.757  34.997  62.049  1.00  0.00    -0.006 A 
HETATM   35  C   UNL     1       3.611  34.990  62.859  1.00  0.00     0.014 A 
HETATM   36  C   UNL     1       3.473  35.919  63.893  1.00  0.00     0.001 A 
HETATM   37  C   UNL     1       4.483  36.848  64.137  1.00  0.00     0.000 A 
HETATM   38  C   UNL     1       5.632  36.851  63.350  1.00  0.00     0.001 A 
HETATM   39  C   UNL     1       5.772  35.929  62.312  1.00  0.00     0.014 A 
ENDBRANCH   9  34
TORSDOF 10
ENDMDL
MODEL 6
REMARK VINA RESULT:      -7.0      3.454      6.623
REMARK  10 active torsions:
REMARK  status: ('A' for Active; 'I' for Inactive)
REMARK    1  A    between atoms: C_2  and  O_3 
REMARK    2  A    between atoms: O_3  and  C_4 
REMARK    3  A    between atoms: C_4  and  C_5 
REMARK    4  A    between atoms: C_6  and  C_7 
REMARK    5  A    between atoms: C_14  and  C_15 
REMARK    6  A    between atoms: C_15  and  C_16 
REMARK       I    between atoms: C_16  and  N_17 
REMARK    7  A    between atoms: N_17  and  C_18 
REMARK    8  A    between atoms: C_18  and  C_19 
REMARK    9  A    between atoms: C_19  and  N_20 
REMARK   10  A    between atoms: C_31  and  C_32 
ROOT
HETATM    1  C   UNL     1       6.235  30.365  57.694  1.00  0.00     0.074 C 
HETATM    2  C   UNL     1       6.475  29.435  56.526  1.00  0.00     0.166 C 
HETATM    3  N   UNL     1       7.873  29.476  56.034  1.00  0.00    -0.318 N 
HETATM    4  C   UNL     1       8.463  29.021  54.975  1.00  0.00     0.011 C 
HETATM    5  C   UNL     1       8.882  30.001  57.074  1.00  0.00     0.170 C 
HETATM    6  S   UNL     1      10.520  29.738  56.585  1.00  0.00    -0.086 SA
HETATM    7  C   UNL     1       9.970  29.173  54.957  1.00  0.00     0.135 C 
HETATM    8  N   UNL     1       8.579  30.556  58.187  1.00  0.00    -0.223 NA
HETATM    9  C   UNL     1       7.253  30.801  58.471  1.00  0.00     0.084 C 
ENDROOT
BRANCH   4  10
HETATM   10  C   UNL     1       7.688  28.290  53.905  1.00  0.00     0.156 C 
BRANCH  10  11
HETATM   11  C   UNL     1       7.529  26.789  54.087  1.00  0.00     0.223 C 
HETATM   12  N   UNL     1       6.419  26.259  53.481  1.00  0.00    -0.359 N 
HETATM   13  H   UNL     1       5.766  26.904  53.043  1.00  0.00     0.162 HD
HETATM   14  O   UNL     1       8.321  26.109  54.731  1.00  0.00    -0.273 OA
BRANCH  12  15
HETATM   15  C   UNL     1       5.978  24.857  53.465  1.00  0.00     0.150 C 
BRANCH  15  16
HETATM   16  C   UNL     1       6.858  23.773  52.801  1.00  0.00     0.254 C 
BRANCH  16  17
HETATM   17  N   UNL     1       7.777  23.081  53.773  1.00  0.00    -0.070 N 
HETATM   18  H   UNL     1       8.624  23.681  53.804  1.00  0.00     0.279 HD
HETATM   19  C   UNL     1       8.260  21.714  53.313  1.00  0.00     0.235 C 
HETATM   20  C   UNL     1       7.928  20.776  54.459  1.00  0.00     0.029 C 
HETATM   21  C   UNL     1       7.954  21.672  55.680  1.00  0.00     0.029 C 
HETATM   22  C   UNL     1       7.261  22.923  55.184  1.00  0.00     0.235 C 
ENDBRANCH  16  17
ENDBRANCH  15  16
ENDBRANCH  12  15
ENDBRANCH  10  11
ENDBRANCH   4  10
BRANCH   2  23
HETATM   23  C   UNL     1       6.113  27.983  56.844  1.00  0.00    -0.030 A 
HETATM   24  C   UNL     1       4.874  27.465  56.425  1.00  0.00     0.009 A 
HETATM   25  C   UNL     1       4.530  26.139  56.690  1.00  0.00     0.001 A 
HETATM   26  C   UNL     1       5.414  25.311  57.378  1.00  0.00     0.000 A 
HETATM   27  C   UNL     1       6.635  25.812  57.818  1.00  0.00     0.001 A 
HETATM   28  C   UNL     1       6.984  27.139  57.562  1.00  0.00     0.009 A 
ENDBRANCH   2  23
BRANCH   1  29
HETATM   29  C   UNL     1       4.791  30.724  57.819  1.00  0.00     0.294 C 
HETATM   30  O   UNL     1       4.075  30.174  58.643  1.00  0.00    -0.259 OA
BRANCH  29  31
HETATM   31  O   UNL     1       4.374  31.570  56.861  1.00  0.00    -0.318 OA
BRANCH  31  32
HETATM   32  C   UNL     1       3.156  31.230  56.175  1.00  0.00     0.174 C 
HETATM   33  C   UNL     1       3.467  30.718  54.781  1.00  0.00     0.034 C 
ENDBRANCH  31  32
ENDBRANCH  29  31
ENDBRANCH   1  29
BRANCH   9  34
HETATM   34  C   UNL     1       7.066  31.567  59.726  1.00  0.00    -0.006 A 
HETATM   35  C   UNL     1       6.110  32.591  59.804  1.00  0.00     0.014 A 
HETATM   36  C   UNL     1       5.900  33.270  61.007  1.00  0.00     0.001 A 
HETATM   37  C   UNL     1       6.628  32.920  62.142  1.00  0.00     0.000 A 
HETATM   38  C   UNL     1       7.566  31.892  62.080  1.00  0.00     0.001 A 
HETATM   39  C   UNL     1       7.784  31.215  60.879  1.00  0.00     0.014 A 
ENDBRANCH   9  34
TORSDOF 10
ENDMDL
MODEL 7
REMARK VINA RESULT:      -7.0      5.329      9.347
REMARK  10 active torsions:
REMARK  status: ('A' for Active; 'I' for Inactive)
REMARK    1  A    between atoms: C_2  and  O_3 
REMARK    2  A    between atoms: O_3  and  C_4 
REMARK    3  A    between atoms: C_4  and  C_5 
REMARK    4  A    between atoms: C_6  and  C_7 
REMARK    5  A    between atoms: C_14  and  C_15 
REMARK    6  A    between atoms: C_15  and  C_16 
REMARK       I    between atoms: C_16  and  N_17 
REMARK    7  A    between atoms: N_17  and  C_18 
REMARK    8  A    between atoms: C_18  and  C_19 
REMARK    9  A    between atoms: C_19  and  N_20 
REMARK   10  A    between atoms: C_31  and  C_32 
ROOT
HETATM    1  C   UNL     1       6.193  28.234  56.671  1.00  0.00     0.074 C 
HETATM    2  C   UNL     1       6.052  29.495  57.493  1.00  0.00     0.166 C 
HETATM    3  N   UNL     1       7.357  30.057  57.916  1.00  0.00    -0.318 N 
HETATM    4  C   UNL     1       7.706  30.972  58.762  1.00  0.00     0.011 C 
HETATM    5  C   UNL     1       8.541  29.602  57.040  1.00  0.00     0.170 C 
HETATM    6  S   UNL     1       9.976  30.513  57.358  1.00  0.00    -0.086 SA
HETATM    7  C   UNL     1       9.178  31.328  58.762  1.00  0.00     0.135 C 
HETATM    8  N   UNL     1       8.499  28.673  56.160  1.00  0.00    -0.223 NA
HETATM    9  C   UNL     1       7.341  27.940  56.018  1.00  0.00     0.084 C 
ENDROOT
BRANCH   4  10
HETATM   10  C   UNL     1       6.676  31.696  59.595  1.00  0.00     0.156 C 
BRANCH  10  11
HETATM   11  C   UNL     1       6.778  31.525  61.103  1.00  0.00     0.223 C 
HETATM   12  N   UNL     1       5.641  31.864  61.789  1.00  0.00    -0.359 N 
HETATM   13  H   UNL     1       4.872  32.269  61.262  1.00  0.00     0.162 HD
HETATM   14  O   UNL     1       7.796  31.128  61.659  1.00  0.00    -0.273 OA
BRANCH  12  15
HETATM   15  C   UNL     1       5.411  31.814  63.241  1.00  0.00     0.150 C 
BRANCH  15  16
HETATM   16  C   UNL     1       5.733  33.044  64.121  1.00  0.00     0.254 C 
BRANCH  16  17
HETATM   17  N   UNL     1       4.550  33.522  64.922  1.00  0.00    -0.070 N 
HETATM   18  H   UNL     1       3.889  32.721  64.914  1.00  0.00     0.279 HD
HETATM   19  C   UNL     1       3.796  34.683  64.292  1.00  0.00     0.235 C 
HETATM   20  C   UNL     1       3.726  35.739  65.380  1.00  0.00     0.029 C 
HETATM   21  C   UNL     1       3.774  34.940  66.665  1.00  0.00     0.029 C 
HETATM   22  C   UNL     1       4.822  33.891  66.361  1.00  0.00     0.235 C 
ENDBRANCH  16  17
ENDBRANCH  15  16
ENDBRANCH  12  15
ENDBRANCH  10  11
ENDBRANCH   4  10
BRANCH   2  23
HETATM   23  C   UNL     1       5.262  30.587  56.768  1.00  0.00    -0.030 A 
HETATM   24  C   UNL     1       5.712  31.063  55.524  1.00  0.00     0.009 A 
HETATM   25  C   UNL     1       4.999  32.047  54.837  1.00  0.00     0.001 A 
HETATM   26  C   UNL     1       3.830  32.572  55.383  1.00  0.00     0.000 A 
HETATM   27  C   UNL     1       3.382  32.128  56.623  1.00  0.00     0.001 A 
HETATM   28  C   UNL     1       4.092  31.148  57.318  1.00  0.00     0.009 A 
ENDBRANCH   2  23
BRANCH   1  29
HETATM   29  C   UNL     1       4.950  27.407  56.720  1.00  0.00     0.294 C 
HETATM   30  O   UNL     1       4.918  26.355  57.342  1.00  0.00    -0.259 OA
BRANCH  29  31
HETATM   31  O   UNL     1       3.978  27.869  55.914  1.00  0.00    -0.318 OA
BRANCH  31  32
HETATM   32  C   UNL     1       4.203  27.768  54.497  1.00  0.00     0.174 C 
HETATM   33  C   UNL     1       3.474  28.883  53.771  1.00  0.00     0.034 C 
ENDBRANCH  31  32
ENDBRANCH  29  31
ENDBRANCH   1  29
BRANCH   9  34
HETATM   34  C   UNL     1       7.485  26.818  55.061  1.00  0.00    -0.006 A 
HETATM   35  C   UNL     1       7.551  27.058  53.680  1.00  0.00     0.014 A 
HETATM   36  C   UNL     1       7.744  26.000  52.789  1.00  0.00     0.001 A 
HETATM   37  C   UNL     1       7.890  24.700  53.270  1.00  0.00     0.000 A 
HETATM   38  C   UNL     1       7.844  24.454  54.640  1.00  0.00     0.001 A 
HETATM   39  C   UNL     1       7.646  25.507  55.534  1.00  0.00     0.014 A 
ENDBRANCH   9  34
TORSDOF 10
ENDMDL
MODEL 8
REMARK VINA RESULT:      -6.9      2.253      3.921
REMARK  10 active torsions:
REMARK  status: ('A' for Active; 'I' for Inactive)
REMARK    1  A    between atoms: C_2  and  O_3 
REMARK    2  A    between atoms: O_3  and  C_4 
REMARK    3  A    between atoms: C_4  and  C_5 
REMARK    4  A    between atoms: C_6  and  C_7 
REMARK    5  A    between atoms: C_14  and  C_15 
REMARK    6  A    between atoms: C_15  and  C_16 
REMARK       I    between atoms: C_16  and  N_17 
REMARK    7  A    between atoms: N_17  and  C_18 
REMARK    8  A    between atoms: C_18  and  C_19 
REMARK    9  A    between atoms: C_19  and  N_20 
REMARK   10  A    between atoms: C_31  and  C_32 
ROOT
HETATM    1  C   UNL     1       4.955  30.809  50.619  1.00  0.00     0.074 C 
HETATM    2  C   UNL     1       5.057  29.302  50.692  1.00  0.00     0.166 C 
HETATM    3  N   UNL     1       4.999  28.787  52.081  1.00  0.00    -0.318 N 
HETATM    4  C   UNL     1       5.238  27.633  52.619  1.00  0.00     0.011 C 
HETATM    5  C   UNL     1       4.338  29.759  53.077  1.00  0.00     0.170 C 
HETATM    6  S   UNL     1       4.002  29.008  54.598  1.00  0.00    -0.086 SA
HETATM    7  C   UNL     1       4.899  27.522  54.091  1.00  0.00     0.135 C 
HETATM    8  N   UNL     1       4.042  30.981  52.834  1.00  0.00    -0.223 NA
HETATM    9  C   UNL     1       4.410  31.530  51.626  1.00  0.00     0.084 C 
ENDROOT
BRANCH   4  10
HETATM   10  C   UNL     1       5.712  26.469  51.784  1.00  0.00     0.156 C 
BRANCH  10  11
HETATM   11  C   UNL     1       5.614  25.091  52.421  1.00  0.00     0.223 C 
HETATM   12  N   UNL     1       6.820  24.532  52.753  1.00  0.00    -0.359 N 
HETATM   13  H   UNL     1       7.664  25.030  52.480  1.00  0.00     0.162 HD
HETATM   14  O   UNL     1       4.544  24.522  52.611  1.00  0.00    -0.273 OA
BRANCH  12  15
HETATM   15  C   UNL     1       7.072  23.225  53.378  1.00  0.00     0.150 C 
BRANCH  15  16
HETATM   16  C   UNL     1       8.476  22.584  53.298  1.00  0.00     0.254 C 
BRANCH  16  17
HETATM   17  N   UNL     1       8.892  21.910  54.579  1.00  0.00    -0.070 N 
HETATM   18  H   UNL     1       9.928  21.862  54.525  1.00  0.00     0.279 HD
HETATM   19  C   UNL     1       8.421  20.470  54.710  1.00  0.00     0.235 C 
HETATM   20  C   UNL     1       7.709  20.412  56.049  1.00  0.00     0.029 C 
HETATM   21  C   UNL     1       8.379  21.498  56.864  1.00  0.00     0.029 C 
HETATM   22  C   UNL     1       8.522  22.621  55.859  1.00  0.00     0.235 C 
ENDBRANCH  16  17
ENDBRANCH  15  16
ENDBRANCH  12  15
ENDBRANCH  10  11
ENDBRANCH   4  10
BRANCH   2  23
HETATM   23  C   UNL     1       3.980  28.597  49.865  1.00  0.00    -0.030 A 
HETATM   24  C   UNL     1       4.353  27.633  48.911  1.00  0.00     0.009 A 
HETATM   25  C   UNL     1       3.386  26.965  48.158  1.00  0.00     0.001 A 
HETATM   26  C   UNL     1       2.036  27.252  48.342  1.00  0.00     0.000 A 
HETATM   27  C   UNL     1       1.650  28.218  49.266  1.00  0.00     0.001 A 
HETATM   28  C   UNL     1       2.611  28.893  50.019  1.00  0.00     0.009 A 
ENDBRANCH   2  23
BRANCH   1  29
HETATM   29  C   UNL     1       5.544  31.336  49.352  1.00  0.00     0.294 C 
HETATM   30  O   UNL     1       6.737  31.592  49.272  1.00  0.00    -0.259 OA
BRANCH  29  31
HETATM   31  O   UNL     1       4.618  31.618  48.419  1.00  0.00    -0.318 OA
BRANCH  31  32
HETATM   32  C   UNL     1       4.699  30.891  47.180  1.00  0.00     0.174 C 
HETATM   33  C   UNL     1       3.306  30.598  46.654  1.00  0.00     0.034 C 
ENDBRANCH  31  32
ENDBRANCH  29  31
ENDBRANCH   1  29
BRANCH   9  34
HETATM   34  C   UNL     1       4.124  32.982  51.542  1.00  0.00    -0.006 A 
HETATM   35  C   UNL     1       5.096  33.926  51.907  1.00  0.00     0.014 A 
HETATM   36  C   UNL     1       4.839  35.292  51.770  1.00  0.00     0.001 A 
HETATM   37  C   UNL     1       3.619  35.724  51.254  1.00  0.00     0.000 A 
HETATM   38  C   UNL     1       2.654  34.795  50.873  1.00  0.00     0.001 A 
HETATM   39  C   UNL     1       2.904  33.429  51.012  1.00  0.00     0.014 A 
ENDBRANCH   9  34
TORSDOF 10
ENDMDL
MODEL 9
REMARK VINA RESULT:      -6.9      5.131     10.034
REMARK  10 active torsions:
REMARK  status: ('A' for Active; 'I' for Inactive)
REMARK    1  A    between atoms: C_2  and  O_3 
REMARK    2  A    between atoms: O_3  and  C_4 
REMARK    3  A    between atoms: C_4  and  C_5 
REMARK    4  A    between atoms: C_6  and  C_7 
REMARK    5  A    between atoms: C_14  and  C_15 
REMARK    6  A    between atoms: C_15  and  C_16 
REMARK       I    between atoms: C_16  and  N_17 
REMARK    7  A    between atoms: N_17  and  C_18 
REMARK    8  A    between atoms: C_18  and  C_19 
REMARK    9  A    between atoms: C_19  and  N_20 
REMARK   10  A    between atoms: C_31  and  C_32 
ROOT
HETATM    1  C   UNL     1       6.426  29.777  56.945  1.00  0.00     0.074 C 
HETATM    2  C   UNL     1       5.923  31.199  57.051  1.00  0.00     0.166 C 
HETATM    3  N   UNL     1       5.105  31.609  55.885  1.00  0.00    -0.318 N 
HETATM    4  C   UNL     1       4.652  32.747  55.464  1.00  0.00     0.011 C 
HETATM    5  C   UNL     1       4.501  30.426  55.103  1.00  0.00     0.170 C 
HETATM    6  S   UNL     1       3.311  30.940  53.958  1.00  0.00    -0.086 SA
HETATM    7  C   UNL     1       3.717  32.673  54.275  1.00  0.00     0.135 C 
HETATM    8  N   UNL     1       4.809  29.195  55.268  1.00  0.00    -0.223 NA
HETATM    9  C   UNL     1       5.821  28.871  56.144  1.00  0.00     0.084 C 
ENDROOT
BRANCH   4  10
HETATM   10  C   UNL     1       4.963  34.028  56.200  1.00  0.00     0.156 C 
BRANCH  10  11
HETATM   11  C   UNL     1       3.910  34.521  57.181  1.00  0.00     0.223 C 
HETATM   12  N   UNL     1       4.293  35.606  57.925  1.00  0.00    -0.359 N 
HETATM   13  H   UNL     1       5.251  35.935  57.826  1.00  0.00     0.162 HD
HETATM   14  O   UNL     1       2.814  33.985  57.304  1.00  0.00    -0.273 OA
BRANCH  12  15
HETATM   15  C   UNL     1       3.519  36.319  58.952  1.00  0.00     0.150 C 
BRANCH  15  16
HETATM   16  C   UNL     1       4.238  36.963  60.159  1.00  0.00     0.254 C 
BRANCH  16  17
HETATM   17  N   UNL     1       4.520  35.985  61.269  1.00  0.00    -0.070 N 
HETATM   18  H   UNL     1       4.856  35.130  60.784  1.00  0.00     0.279 HD
HETATM   19  C   UNL     1       3.288  35.554  62.051  1.00  0.00     0.235 C 
HETATM   20  C   UNL     1       3.639  35.812  63.505  1.00  0.00     0.029 C 
HETATM   21  C   UNL     1       5.147  35.685  63.542  1.00  0.00     0.029 C 
HETATM   22  C   UNL     1       5.568  36.396  62.274  1.00  0.00     0.235 C 
ENDBRANCH  16  17
ENDBRANCH  15  16
ENDBRANCH  12  15
ENDBRANCH  10  11
ENDBRANCH   4  10
BRANCH   2  23
HETATM   23  C   UNL     1       5.112  31.445  58.325  1.00  0.00    -0.030 A 
HETATM   24  C   UNL     1       5.649  32.247  59.349  1.00  0.00     0.009 A 
HETATM   25  C   UNL     1       4.920  32.498  60.512  1.00  0.00     0.001 A 
HETATM   26  C   UNL     1       3.649  31.952  60.673  1.00  0.00     0.000 A 
HETATM   27  C   UNL     1       3.111  31.139  59.680  1.00  0.00     0.001 A 
HETATM   28  C   UNL     1       3.836  30.879  58.515  1.00  0.00     0.009 A 
ENDBRANCH   2  23
BRANCH   1  29
HETATM   29  C   UNL     1       7.639  29.562  57.791  1.00  0.00     0.294 C 
HETATM   30  O   UNL     1       7.730  28.588  58.524  1.00  0.00    -0.259 OA
BRANCH  29  31
HETATM   31  O   UNL     1       8.495  30.598  57.755  1.00  0.00    -0.318 OA
BRANCH  31  32
HETATM   32  C   UNL     1       9.899  30.284  57.761  1.00  0.00     0.174 C 
HETATM   33  C   UNL     1      10.309  29.698  56.423  1.00  0.00     0.034 C 
ENDBRANCH  31  32
ENDBRANCH  29  31
ENDBRANCH   1  29
BRANCH   9  34
HETATM   34  C   UNL     1       6.156  27.427  56.128  1.00  0.00    -0.006 A 
HETATM   35  C   UNL     1       7.231  26.949  55.364  1.00  0.00     0.014 A 
HETATM   36  C   UNL     1       7.575  25.596  55.399  1.00  0.00     0.001 A 
HETATM   37  C   UNL     1       6.862  24.715  56.210  1.00  0.00     0.000 A 
HETATM   38  C   UNL     1       5.804  25.183  56.987  1.00  0.00     0.001 A 
HETATM   39  C   UNL     1       5.453  26.534  56.950  1.00  0.00     0.014 A 
ENDBRANCH   9  34
TORSDOF 10
ENDMDL
MODEL 10
REMARK VINA RESULT:      -6.5      5.710      9.674
REMARK  10 active torsions:
REMARK  status: ('A' for Active; 'I' for Inactive)
REMARK    1  A    between atoms: C_2  and  O_3 
REMARK    2  A    between atoms: O_3  and  C_4 
REMARK    3  A    between atoms: C_4  and  C_5 
REMARK    4  A    between atoms: C_6  and  C_7 
REMARK    5  A    between atoms: C_14  and  C_15 
REMARK    6  A    between atoms: C_15  and  C_16 
REMARK       I    between atoms: C_16  and  N_17 
REMARK    7  A    between atoms: N_17  and  C_18 
REMARK    8  A    between atoms: C_18  and  C_19 
REMARK    9  A    between atoms: C_19  and  N_20 
REMARK   10  A    between atoms: C_31  and  C_32 
ROOT
HETATM    1  C   UNL     1       6.085  29.128  57.109  1.00  0.00     0.074 C 
HETATM    2  C   UNL     1       5.933  30.331  58.013  1.00  0.00     0.166 C 
HETATM    3  N   UNL     1       7.224  30.799  58.572  1.00  0.00    -0.318 N 
HETATM    4  C   UNL     1       7.544  31.632  59.510  1.00  0.00     0.011 C 
HETATM    5  C   UNL     1       8.452  30.355  57.753  1.00  0.00     0.170 C 
HETATM    6  S   UNL     1       9.894  31.173  58.244  1.00  0.00    -0.086 SA
HETATM    7  C   UNL     1       9.025  31.918  59.645  1.00  0.00     0.135 C 
HETATM    8  N   UNL     1       8.439  29.497  56.804  1.00  0.00    -0.223 NA
HETATM    9  C   UNL     1       7.266  28.831  56.521  1.00  0.00     0.084 C 
ENDROOT
BRANCH   4  10
HETATM   10  C   UNL     1       6.484  32.340  60.318  1.00  0.00     0.156 C 
BRANCH  10  11
HETATM   11  C   UNL     1       6.500  32.100  61.820  1.00  0.00     0.223 C 
HETATM   12  N   UNL     1       7.417  32.854  62.504  1.00  0.00    -0.359 N 
HETATM   13  H   UNL     1       8.052  33.436  61.962  1.00  0.00     0.162 HD
HETATM   14  O   UNL     1       5.762  31.290  62.372  1.00  0.00    -0.273 OA
BRANCH  12  15
HETATM   15  C   UNL     1       7.685  32.863  63.950  1.00  0.00     0.150 C 
BRANCH  15  16
HETATM   16  C   UNL     1       7.143  34.010  64.834  1.00  0.00     0.254 C 
BRANCH  16  17
HETATM   17  N   UNL     1       5.660  33.913  65.082  1.00  0.00    -0.070 N 
HETATM   18  H   UNL     1       5.412  32.943  64.804  1.00  0.00     0.279 HD
HETATM   19  C   UNL     1       4.817  34.820  64.198  1.00  0.00     0.235 C 
HETATM   20  C   UNL     1       3.943  35.600  65.163  1.00  0.00     0.029 C 
HETATM   21  C   UNL     1       3.805  34.678  66.355  1.00  0.00     0.029 C 
HETATM   22  C   UNL     1       5.205  34.123  66.506  1.00  0.00     0.235 C 
ENDBRANCH  16  17
ENDBRANCH  15  16
ENDBRANCH  12  15
ENDBRANCH  10  11
ENDBRANCH   4  10
BRANCH   2  23
HETATM   23  C   UNL     1       5.246  31.509  57.319  1.00  0.00    -0.030 A 
HETATM   24  C   UNL     1       4.119  32.107  57.911  1.00  0.00     0.009 A 
HETATM   25  C   UNL     1       3.488  33.193  57.304  1.00  0.00     0.001 A 
HETATM   26  C   UNL     1       3.968  33.696  56.098  1.00  0.00     0.000 A 
HETATM   27  C   UNL     1       5.069  33.104  55.487  1.00  0.00     0.001 A 
HETATM   28  C   UNL     1       5.703  32.014  56.085  1.00  0.00     0.009 A 
ENDBRANCH   2  23
BRANCH   1  29
HETATM   29  C   UNL     1       4.809  28.359  57.004  1.00  0.00     0.294 C 
HETATM   30  O   UNL     1       4.706  27.242  57.491  1.00  0.00    -0.259 OA
BRANCH  29  31
HETATM   31  O   UNL     1       3.896  28.958  56.219  1.00  0.00    -0.318 OA
BRANCH  31  32
HETATM   32  C   UNL     1       3.948  28.658  54.813  1.00  0.00     0.174 C 
HETATM   33  C   UNL     1       3.681  29.911  54.001  1.00  0.00     0.034 C 
ENDBRANCH  31  32
ENDBRANCH  29  31
ENDBRANCH   1  29
BRANCH   9  34
HETATM   34  C   UNL     1       7.437  27.776  55.494  1.00  0.00    -0.006 A 
HETATM   35  C   UNL     1       7.533  26.426  55.863  1.00  0.00     0.014 A 
HETATM   36  C   UNL     1       7.635  25.433  54.886  1.00  0.00     0.001 A 
HETATM   37  C   UNL     1       7.625  25.779  53.536  1.00  0.00     0.000 A 
HETATM   38  C   UNL     1       7.512  27.115  53.159  1.00  0.00     0.001 A 
HETATM   39  C   UNL     1       7.415  28.111  54.132  1.00  0.00     0.014 A 
ENDBRANCH   9  34
TORSDOF 10
ENDMDL
