MODEL 1
REMARK VINA RESULT:      -8.6      0.000      0.000
REMARK  4 active torsions:
REMARK  status: ('A' for Active; 'I' for Inactive)
REMARK    1  A    between atoms: C_2  and  N_3 
REMARK    2  A    between atoms: C_2  and  C_4 
REMARK    3  A    between atoms: C_7  and  C_10 
REMARK       I    between atoms: C_10  and  N_12 
REMARK    4  A    between atoms: N_12  and  C_13 
ROOT
HETATM    1  C   UNL     1       7.998  25.655  57.170  1.00  0.00     0.226 C 
HETATM    2  O   UNL     1       8.062  25.677  58.399  1.00  0.00    -0.273 OA
HETATM    3  N   UNL     1       7.512  26.713  56.421  1.00  0.00    -0.326 N 
HETATM    4  H   UNL     1       7.711  26.709  55.429  1.00  0.00     0.169 HD
ENDROOT
BRANCH   1   5
HETATM    5  C   UNL     1       8.369  24.388  56.375  1.00  0.00     0.078 C 
HETATM    6  C   UNL     1       7.408  24.242  55.180  1.00  0.00     0.014 C 
HETATM    7  C   UNL     1       7.705  23.011  54.329  1.00  0.00     0.007 C 
HETATM    8  C   UNL     1       7.698  21.723  55.168  1.00  0.00     0.018 C 
HETATM    9  C   UNL     1       8.696  21.864  56.329  1.00  0.00     0.007 C 
HETATM   10  C   UNL     1       8.395  23.090  57.193  1.00  0.00     0.014 C 
BRANCH   8  11
HETATM   11  C   UNL     1       7.925  20.462  54.291  1.00  0.00     0.218 C 
HETATM   12  C   UNL     1       8.229  20.749  52.820  1.00  0.00     0.043 C 
BRANCH  11  13
HETATM   13  N   UNL     1       9.017  19.657  54.845  1.00  0.00     0.082 N 
HETATM   14  H   UNL     1       9.646  19.367  54.096  1.00  0.00     0.313 HD
HETATM   15  H   UNL     1       8.643  18.797  55.243  1.00  0.00     0.313 HD
ENDBRANCH  11  13
ENDBRANCH   8  11
ENDBRANCH   1   5
BRANCH   3  16
HETATM   16  C   UNL     1       6.953  27.903  56.936  1.00  0.00     0.050 A 
HETATM   17  C   UNL     1       5.571  28.146  56.985  1.00  0.00     0.047 A 
HETATM   18  C   UNL     1       5.070  29.336  57.498  1.00  0.00     0.092 A 
HETATM   19  N   UNL     1       5.888  30.288  57.957  1.00  0.00    -0.351 N 
HETATM   20  H   UNL     1       5.506  31.154  58.334  1.00  0.00     0.166 HD
HETATM   21  C   UNL     1       7.230  30.080  57.908  1.00  0.00     0.117 A 
HETATM   22  N   UNL     1       8.217  30.929  58.332  1.00  0.00    -0.352 N 
HETATM   23  C   UNL     1       7.811  28.923  57.405  1.00  0.00     0.036 A 
HETATM   24  H   UNL     1       8.098  31.845  58.749  1.00  0.00     0.166 HD
HETATM   25  C   UNL     1       9.435  30.335  58.116  1.00  0.00     0.090 A 
HETATM   26  C   UNL     1       9.216  29.098  57.545  1.00  0.00     0.034 A 
ENDBRANCH   3  16
TORSDOF 4
ENDMDL
MODEL 2
REMARK VINA RESULT:      -8.4      1.393      2.640
REMARK  4 active torsions:
REMARK  status: ('A' for Active; 'I' for Inactive)
REMARK    1  A    between atoms: C_2  and  N_3 
REMARK    2  A    between atoms: C_2  and  C_4 
REMARK    3  A    between atoms: C_7  and  C_10 
REMARK       I    between atoms: C_10  and  N_12 
REMARK    4  A    between atoms: N_12  and  C_13 
ROOT
HETATM    1  C   UNL     1       7.235  26.448  55.021  1.00  0.00     0.226 C 
HETATM    2  O   UNL     1       7.292  27.322  54.157  1.00  0.00    -0.273 OA
HETATM    3  N   UNL     1       7.375  26.715  56.373  1.00  0.00    -0.326 N 
HETATM    4  H   UNL     1       7.085  25.994  57.020  1.00  0.00     0.169 HD
ENDROOT
BRANCH   1   5
HETATM    5  C   UNL     1       7.103  24.960  54.644  1.00  0.00     0.078 C 
HETATM    6  C   UNL     1       7.473  24.095  55.864  1.00  0.00     0.014 C 
HETATM    7  C   UNL     1       7.365  22.599  55.582  1.00  0.00     0.007 C 
HETATM    8  C   UNL     1       8.212  22.185  54.369  1.00  0.00     0.018 C 
HETATM    9  C   UNL     1       7.801  23.023  53.147  1.00  0.00     0.007 C 
HETATM   10  C   UNL     1       7.919  24.524  53.420  1.00  0.00     0.014 C 
BRANCH   8  11
HETATM   11  C   UNL     1       8.164  20.652  54.127  1.00  0.00     0.218 C 
HETATM   12  C   UNL     1       8.457  20.219  52.690  1.00  0.00     0.043 C 
BRANCH  11  13
HETATM   13  N   UNL     1       9.107  19.974  55.021  1.00  0.00     0.082 N 
HETATM   14  H   UNL     1       9.954  19.729  54.506  1.00  0.00     0.313 HD
HETATM   15  H   UNL     1       8.708  19.091  55.337  1.00  0.00     0.313 HD
ENDBRANCH  11  13
ENDBRANCH   8  11
ENDBRANCH   1   5
BRANCH   3  16
HETATM   16  C   UNL     1       7.680  27.971  56.941  1.00  0.00     0.050 A 
HETATM   17  C   UNL     1       8.992  28.404  57.195  1.00  0.00     0.047 A 
HETATM   18  C   UNL     1       9.240  29.648  57.760  1.00  0.00     0.092 A 
HETATM   19  N   UNL     1       8.237  30.472  58.082  1.00  0.00    -0.351 N 
HETATM   20  H   UNL     1       8.434  31.383  58.492  1.00  0.00     0.166 HD
HETATM   21  C   UNL     1       6.959  30.069  57.856  1.00  0.00     0.117 A 
HETATM   22  N   UNL     1       5.811  30.770  58.114  1.00  0.00    -0.352 N 
HETATM   23  C   UNL     1       6.626  28.840  57.303  1.00  0.00     0.036 A 
HETATM   24  H   UNL     1       5.738  31.699  58.513  1.00  0.00     0.166 HD
HETATM   25  C   UNL     1       4.734  30.013  57.728  1.00  0.00     0.090 A 
HETATM   26  C   UNL     1       5.205  28.818  57.226  1.00  0.00     0.034 A 
ENDBRANCH   3  16
TORSDOF 4
ENDMDL
MODEL 3
REMARK VINA RESULT:      -8.4      1.528      1.769
REMARK  4 active torsions:
REMARK  status: ('A' for Active; 'I' for Inactive)
REMARK    1  A    between atoms: C_2  and  N_3 
REMARK    2  A    between atoms: C_2  and  C_4 
REMARK    3  A    between atoms: C_7  and  C_10 
REMARK       I    between atoms: C_10  and  N_12 
REMARK    4  A    between atoms: N_12  and  C_13 
ROOT
HETATM    1  C   UNL     1       7.198  26.325  54.726  1.00  0.00     0.226 C 
HETATM    2  O   UNL     1       7.536  27.261  54.003  1.00  0.00    -0.273 OA
HETATM    3  N   UNL     1       6.322  26.471  55.789  1.00  0.00    -0.326 N 
HETATM    4  H   UNL     1       5.919  25.628  56.177  1.00  0.00     0.169 HD
ENDROOT
BRANCH   1   5
HETATM    5  C   UNL     1       7.813  24.922  54.556  1.00  0.00     0.078 C 
HETATM    6  C   UNL     1       7.027  24.152  53.479  1.00  0.00     0.014 C 
HETATM    7  C   UNL     1       7.573  22.747  53.239  1.00  0.00     0.007 C 
HETATM    8  C   UNL     1       7.625  21.927  54.537  1.00  0.00     0.018 C 
HETATM    9  C   UNL     1       8.452  22.685  55.589  1.00  0.00     0.007 C 
HETATM   10  C   UNL     1       7.902  24.090  55.843  1.00  0.00     0.014 C 
BRANCH   8  11
HETATM   11  C   UNL     1       8.109  20.474  54.283  1.00  0.00     0.218 C 
HETATM   12  C   UNL     1       8.707  20.230  52.897  1.00  0.00     0.043 C 
BRANCH  11  13
HETATM   13  N   UNL     1       9.099  20.091  55.293  1.00  0.00     0.082 N 
HETATM   14  H   UNL     1       9.105  20.779  56.047  1.00  0.00     0.313 HD
HETATM   15  H   UNL     1      10.033  20.115  54.887  1.00  0.00     0.313 HD
ENDBRANCH  11  13
ENDBRANCH   8  11
ENDBRANCH   1   5
BRANCH   3  16
HETATM   16  C   UNL     1       5.771  27.689  56.245  1.00  0.00     0.050 A 
HETATM   17  C   UNL     1       4.510  28.161  55.845  1.00  0.00     0.047 A 
HETATM   18  C   UNL     1       4.013  29.368  56.319  1.00  0.00     0.092 A 
HETATM   19  N   UNL     1       4.721  30.120  57.168  1.00  0.00    -0.351 N 
HETATM   20  H   UNL     1       4.342  31.002  57.510  1.00  0.00     0.166 HD
HETATM   21  C   UNL     1       5.948  29.689  57.559  1.00  0.00     0.117 A 
HETATM   22  N   UNL     1       6.812  30.314  58.419  1.00  0.00    -0.352 N 
HETATM   23  C   UNL     1       6.520  28.499  57.127  1.00  0.00     0.036 A 
HETATM   24  H   UNL     1       6.667  31.196  58.897  1.00  0.00     0.166 HD
HETATM   25  C   UNL     1       7.937  29.541  58.557  1.00  0.00     0.090 A 
HETATM   26  C   UNL     1       7.786  28.417  57.771  1.00  0.00     0.034 A 
ENDBRANCH   3  16
TORSDOF 4
ENDMDL
MODEL 4
REMARK VINA RESULT:      -8.3      0.743      2.225
REMARK  4 active torsions:
REMARK  status: ('A' for Active; 'I' for Inactive)
REMARK    1  A    between atoms: C_2  and  N_3 
REMARK    2  A    between atoms: C_2  and  C_4 
REMARK    3  A    between atoms: C_7  and  C_10 
REMARK       I    between atoms: C_10  and  N_12 
REMARK    4  A    between atoms: N_12  and  C_13 
ROOT
HETATM    1  C   UNL     1       8.030  25.638  57.320  1.00  0.00     0.226 C 
HETATM    2  O   UNL     1       7.907  25.577  58.543  1.00  0.00    -0.273 OA
HETATM    3  N   UNL     1       7.773  26.789  56.593  1.00  0.00    -0.326 N 
HETATM    4  H   UNL     1       8.120  26.825  55.644  1.00  0.00     0.169 HD
ENDROOT
BRANCH   1   5
HETATM    5  C   UNL     1       8.388  24.390  56.490  1.00  0.00     0.078 C 
HETATM    6  C   UNL     1       7.431  24.292  55.287  1.00  0.00     0.014 C 
HETATM    7  C   UNL     1       7.717  23.082  54.402  1.00  0.00     0.007 C 
HETATM    8  C   UNL     1       7.690  21.771  55.203  1.00  0.00     0.018 C 
HETATM    9  C   UNL     1       8.684  21.865  56.372  1.00  0.00     0.007 C 
HETATM   10  C   UNL     1       8.395  23.069  57.271  1.00  0.00     0.014 C 
BRANCH   8  11
HETATM   11  C   UNL     1       7.905  20.533  54.291  1.00  0.00     0.218 C 
HETATM   12  C   UNL     1       8.267  20.858  52.841  1.00  0.00     0.043 C 
BRANCH  11  13
HETATM   13  N   UNL     1       8.951  19.673  54.852  1.00  0.00     0.082 N 
HETATM   14  H   UNL     1       9.793  20.224  55.026  1.00  0.00     0.313 HD
HETATM   15  H   UNL     1       9.218  18.965  54.170  1.00  0.00     0.313 HD
ENDBRANCH  11  13
ENDBRANCH   8  11
ENDBRANCH   1   5
BRANCH   3  16
HETATM   16  C   UNL     1       7.265  28.000  57.114  1.00  0.00     0.050 A 
HETATM   17  C   UNL     1       8.018  28.866  57.923  1.00  0.00     0.047 A 
HETATM   18  C   UNL     1       7.471  30.044  58.414  1.00  0.00     0.092 A 
HETATM   19  N   UNL     1       6.209  30.389  58.135  1.00  0.00    -0.351 N 
HETATM   20  H   UNL     1       5.822  31.257  58.499  1.00  0.00     0.166 HD
HETATM   21  C   UNL     1       5.458  29.559  57.364  1.00  0.00     0.117 A 
HETATM   22  N   UNL     1       4.159  29.742  56.970  1.00  0.00    -0.352 N 
HETATM   23  C   UNL     1       5.927  28.361  56.840  1.00  0.00     0.036 A 
HETATM   24  H   UNL     1       3.558  30.526  57.194  1.00  0.00     0.166 HD
HETATM   25  C   UNL     1       3.779  28.680  56.190  1.00  0.00     0.090 A 
HETATM   26  C   UNL     1       4.847  27.812  56.093  1.00  0.00     0.034 A 
ENDBRANCH   3  16
TORSDOF 4
ENDMDL
MODEL 5
REMARK VINA RESULT:      -8.2      5.451     10.138
REMARK  4 active torsions:
REMARK  status: ('A' for Active; 'I' for Inactive)
REMARK    1  A    between atoms: C_2  and  N_3 
REMARK    2  A    between atoms: C_2  and  C_4 
REMARK    3  A    between atoms: C_7  and  C_10 
REMARK       I    between atoms: C_10  and  N_12 
REMARK    4  A    between atoms: N_12  and  C_13 
ROOT
HETATM    1  C   UNL     1       8.016  31.771  60.274  1.00  0.00     0.226 C 
HETATM    2  O   UNL     1       8.589  32.655  59.637  1.00  0.00    -0.273 OA
HETATM    3  N   UNL     1       7.808  30.496  59.774  1.00  0.00    -0.326 N 
HETATM    4  H   UNL     1       7.548  29.776  60.434  1.00  0.00     0.169 HD
ENDROOT
BRANCH   1   5
HETATM    5  C   UNL     1       7.393  32.057  61.654  1.00  0.00     0.078 C 
HETATM    6  C   UNL     1       6.373  33.203  61.520  1.00  0.00     0.014 C 
HETATM    7  C   UNL     1       5.699  33.552  62.844  1.00  0.00     0.007 C 
HETATM    8  C   UNL     1       6.727  33.889  63.935  1.00  0.00     0.018 C 
HETATM    9  C   UNL     1       7.711  32.718  64.091  1.00  0.00     0.007 C 
HETATM   10  C   UNL     1       8.399  32.372  62.770  1.00  0.00     0.014 C 
BRANCH   8  11
HETATM   11  C   UNL     1       6.042  34.319  65.261  1.00  0.00     0.218 C 
HETATM   12  C   UNL     1       4.653  33.721  65.488  1.00  0.00     0.043 C 
BRANCH  11  13
HETATM   13  N   UNL     1       6.893  33.968  66.400  1.00  0.00     0.082 N 
HETATM   14  H   UNL     1       7.866  33.907  66.098  1.00  0.00     0.313 HD
HETATM   15  H   UNL     1       6.649  33.040  66.740  1.00  0.00     0.313 HD
ENDBRANCH  11  13
ENDBRANCH   8  11
ENDBRANCH   1   5
BRANCH   3  16
HETATM   16  C   UNL     1       8.131  30.056  58.471  1.00  0.00     0.050 A 
HETATM   17  C   UNL     1       9.431  29.700  58.079  1.00  0.00     0.047 A 
HETATM   18  C   UNL     1       9.699  29.276  56.784  1.00  0.00     0.092 A 
HETATM   19  N   UNL     1       8.728  29.197  55.869  1.00  0.00    -0.351 N 
HETATM   20  H   UNL     1       8.938  28.881  54.924  1.00  0.00     0.166 HD
HETATM   21  C   UNL     1       7.463  29.548  56.223  1.00  0.00     0.117 A 
HETATM   22  N   UNL     1       6.345  29.529  55.432  1.00  0.00    -0.352 N 
HETATM   23  C   UNL     1       7.114  29.988  57.493  1.00  0.00     0.036 A 
HETATM   24  H   UNL     1       6.289  29.250  54.460  1.00  0.00     0.166 HD
HETATM   25  C   UNL     1       5.270  29.946  56.175  1.00  0.00     0.090 A 
HETATM   26  C   UNL     1       5.713  30.237  57.449  1.00  0.00     0.034 A 
ENDBRANCH   3  16
TORSDOF 4
ENDMDL
MODEL 6
REMARK VINA RESULT:      -8.1      6.077      7.574
REMARK  4 active torsions:
REMARK  status: ('A' for Active; 'I' for Inactive)
REMARK    1  A    between atoms: C_2  and  N_3 
REMARK    2  A    between atoms: C_2  and  C_4 
REMARK    3  A    between atoms: C_7  and  C_10 
REMARK       I    between atoms: C_10  and  N_12 
REMARK    4  A    between atoms: N_12  and  C_13 
ROOT
HETATM    1  C   UNL     1       5.409  26.120  51.913  1.00  0.00     0.226 C 
HETATM    2  O   UNL     1       4.582  26.805  52.514  1.00  0.00    -0.273 OA
HETATM    3  N   UNL     1       5.716  26.309  50.576  1.00  0.00    -0.326 N 
HETATM    4  H   UNL     1       6.559  25.873  50.227  1.00  0.00     0.169 HD
ENDROOT
BRANCH   1   5
HETATM    5  C   UNL     1       6.098  24.921  52.593  1.00  0.00     0.078 C 
HETATM    6  C   UNL     1       6.119  25.147  54.116  1.00  0.00     0.014 C 
HETATM    7  C   UNL     1       6.781  24.001  54.875  1.00  0.00     0.007 C 
HETATM    8  C   UNL     1       8.205  23.727  54.366  1.00  0.00     0.018 C 
HETATM    9  C   UNL     1       8.164  23.457  52.853  1.00  0.00     0.007 C 
HETATM   10  C   UNL     1       7.512  24.608  52.085  1.00  0.00     0.014 C 
BRANCH   8  11
HETATM   11  C   UNL     1       8.908  22.613  55.187  1.00  0.00     0.218 C 
HETATM   12  C   UNL     1       8.319  22.372  56.577  1.00  0.00     0.043 C 
BRANCH  11  13
HETATM   13  N   UNL     1       8.881  21.350  54.443  1.00  0.00     0.082 N 
HETATM   14  H   UNL     1       8.903  20.565  55.095  1.00  0.00     0.313 HD
HETATM   15  H   UNL     1       9.724  21.266  53.877  1.00  0.00     0.313 HD
ENDBRANCH  11  13
ENDBRANCH   8  11
ENDBRANCH   1   5
BRANCH   3  16
HETATM   16  C   UNL     1       5.087  27.226  49.704  1.00  0.00     0.050 A 
HETATM   17  C   UNL     1       5.345  28.606  49.722  1.00  0.00     0.047 A 
HETATM   18  C   UNL     1       4.698  29.468  48.847  1.00  0.00     0.092 A 
HETATM   19  N   UNL     1       3.805  29.012  47.963  1.00  0.00    -0.351 N 
HETATM   20  H   UNL     1       3.340  29.655  47.325  1.00  0.00     0.166 HD
HETATM   21  C   UNL     1       3.530  27.681  47.936  1.00  0.00     0.117 A 
HETATM   22  N   UNL     1       2.657  27.031  47.105  1.00  0.00    -0.352 N 
HETATM   23  C   UNL     1       4.129  26.754  48.781  1.00  0.00     0.036 A 
HETATM   24  H   UNL     1       2.081  27.443  46.381  1.00  0.00     0.166 HD
HETATM   25  C   UNL     1       2.685  25.690  47.395  1.00  0.00     0.090 A 
HETATM   26  C   UNL     1       3.582  25.490  48.424  1.00  0.00     0.034 A 
ENDBRANCH   3  16
TORSDOF 4
ENDMDL
MODEL 7
REMARK VINA RESULT:      -7.8      1.549      7.861
REMARK  4 active torsions:
REMARK  status: ('A' for Active; 'I' for Inactive)
REMARK    1  A    between atoms: C_2  and  N_3 
REMARK    2  A    between atoms: C_2  and  C_4 
REMARK    3  A    between atoms: C_7  and  C_10 
REMARK       I    between atoms: C_10  and  N_12 
REMARK    4  A    between atoms: N_12  and  C_13 
ROOT
HETATM    1  C   UNL     1       6.898  25.390  55.051  1.00  0.00     0.226 C 
HETATM    2  O   UNL     1       5.744  24.975  54.947  1.00  0.00    -0.273 OA
HETATM    3  N   UNL     1       8.008  24.615  54.759  1.00  0.00    -0.326 N 
HETATM    4  H   UNL     1       8.891  25.094  54.644  1.00  0.00     0.169 HD
ENDROOT
BRANCH   1   5
HETATM    5  C   UNL     1       7.194  26.792  55.619  1.00  0.00     0.078 C 
HETATM    6  C   UNL     1       8.246  26.672  56.738  1.00  0.00     0.014 C 
HETATM    7  C   UNL     1       8.606  28.019  57.358  1.00  0.00     0.007 C 
HETATM    8  C   UNL     1       7.363  28.755  57.883  1.00  0.00     0.018 C 
HETATM    9  C   UNL     1       6.341  28.910  56.745  1.00  0.00     0.007 C 
HETATM   10  C   UNL     1       5.967  27.561  56.127  1.00  0.00     0.014 C 
BRANCH   8  11
HETATM   11  C   UNL     1       7.735  30.091  58.582  1.00  0.00     0.218 C 
HETATM   12  C   UNL     1       9.161  30.577  58.319  1.00  0.00     0.043 C 
BRANCH  11  13
HETATM   13  N   UNL     1       6.801  31.145  58.178  1.00  0.00     0.082 N 
HETATM   14  H   UNL     1       5.846  30.866  58.410  1.00  0.00     0.313 HD
HETATM   15  H   UNL     1       6.821  31.253  57.165  1.00  0.00     0.313 HD
ENDBRANCH  11  13
ENDBRANCH   8  11
ENDBRANCH   1   5
BRANCH   3  16
HETATM   16  C   UNL     1       7.990  23.251  54.393  1.00  0.00     0.050 A 
HETATM   17  C   UNL     1       7.834  22.810  53.069  1.00  0.00     0.047 A 
HETATM   18  C   UNL     1       7.819  21.457  52.760  1.00  0.00     0.092 A 
HETATM   19  N   UNL     1       7.949  20.530  53.715  1.00  0.00    -0.351 N 
HETATM   20  H   UNL     1       7.940  19.540  53.474  1.00  0.00     0.166 HD
HETATM   21  C   UNL     1       8.089  20.932  55.005  1.00  0.00     0.117 A 
HETATM   22  N   UNL     1       8.239  20.138  56.111  1.00  0.00    -0.352 N 
HETATM   23  C   UNL     1       8.107  22.265  55.398  1.00  0.00     0.036 A 
HETATM   24  H   UNL     1       8.268  19.125  56.136  1.00  0.00     0.166 HD
HETATM   25  C   UNL     1       8.361  20.938  57.218  1.00  0.00     0.090 A 
HETATM   26  C   UNL     1       8.282  22.254  56.810  1.00  0.00     0.034 A 
ENDBRANCH   3  16
TORSDOF 4
ENDMDL
MODEL 8
REMARK VINA RESULT:      -7.8      4.452      5.557
REMARK  4 active torsions:
REMARK  status: ('A' for Active; 'I' for Inactive)
REMARK    1  A    between atoms: C_2  and  N_3 
REMARK    2  A    between atoms: C_2  and  C_4 
REMARK    3  A    between atoms: C_7  and  C_10 
REMARK       I    between atoms: C_10  and  N_12 
REMARK    4  A    between atoms: N_12  and  C_13 
ROOT
HETATM    1  C   UNL     1       6.509  25.683  53.162  1.00  0.00     0.226 C 
HETATM    2  O   UNL     1       7.370  26.558  53.071  1.00  0.00    -0.273 OA
HETATM    3  N   UNL     1       5.176  25.902  52.853  1.00  0.00    -0.326 N 
HETATM    4  H   UNL     1       4.590  25.088  52.728  1.00  0.00     0.169 HD
ENDROOT
BRANCH   1   5
HETATM    5  C   UNL     1       6.842  24.291  53.732  1.00  0.00     0.078 C 
HETATM    6  C   UNL     1       7.528  24.456  55.101  1.00  0.00     0.014 C 
HETATM    7  C   UNL     1       7.891  23.121  55.746  1.00  0.00     0.007 C 
HETATM    8  C   UNL     1       8.766  22.261  54.820  1.00  0.00     0.018 C 
HETATM    9  C   UNL     1       8.049  22.065  53.474  1.00  0.00     0.007 C 
HETATM   10  C   UNL     1       7.694  23.400  52.818  1.00  0.00     0.014 C 
BRANCH   8  11
HETATM   11  C   UNL     1       9.200  20.936  55.503  1.00  0.00     0.218 C 
HETATM   12  C   UNL     1       8.517  20.650  56.841  1.00  0.00     0.043 C 
BRANCH  11  13
HETATM   13  N   UNL     1       8.955  19.806  54.603  1.00  0.00     0.082 N 
HETATM   14  H   UNL     1       9.016  18.930  55.124  1.00  0.00     0.313 HD
HETATM   15  H   UNL     1       9.690  19.761  53.898  1.00  0.00     0.313 HD
ENDBRANCH  11  13
ENDBRANCH   8  11
ENDBRANCH   1   5
BRANCH   3  16
HETATM   16  C   UNL     1       4.606  27.139  52.482  1.00  0.00     0.050 A 
HETATM   17  C   UNL     1       4.048  28.038  53.407  1.00  0.00     0.047 A 
HETATM   18  C   UNL     1       3.495  29.242  52.992  1.00  0.00     0.092 A 
HETATM   19  N   UNL     1       3.472  29.582  51.699  1.00  0.00    -0.351 N 
HETATM   20  H   UNL     1       3.066  30.470  51.410  1.00  0.00     0.166 HD
HETATM   21  C   UNL     1       3.995  28.723  50.786  1.00  0.00     0.117 A 
HETATM   22  N   UNL     1       4.066  28.897  49.429  1.00  0.00    -0.352 N 
HETATM   23  C   UNL     1       4.560  27.498  51.117  1.00  0.00     0.036 A 
HETATM   24  H   UNL     1       3.740  29.695  48.897  1.00  0.00     0.166 HD
HETATM   25  C   UNL     1       4.678  27.801  48.874  1.00  0.00     0.090 A 
HETATM   26  C   UNL     1       4.992  26.922  49.889  1.00  0.00     0.034 A 
ENDBRANCH   3  16
TORSDOF 4
ENDMDL
MODEL 9
REMARK VINA RESULT:      -7.7      6.287      7.374
REMARK  4 active torsions:
REMARK  status: ('A' for Active; 'I' for Inactive)
REMARK    1  A    between atoms: C_2  and  N_3 
REMARK    2  A    between atoms: C_2  and  C_4 
REMARK    3  A    between atoms: C_7  and  C_10 
REMARK       I    between atoms: C_10  and  N_12 
REMARK    4  A    between atoms: N_12  and  C_13 
ROOT
HETATM    1  C   UNL     1       5.329  26.608  51.710  1.00  0.00     0.226 C 
HETATM    2  O   UNL     1       4.438  27.348  52.126  1.00  0.00    -0.273 OA
HETATM    3  N   UNL     1       5.505  26.320  50.367  1.00  0.00    -0.326 N 
HETATM    4  H   UNL     1       6.385  25.904  50.094  1.00  0.00     0.169 HD
ENDROOT
BRANCH   1   5
HETATM    5  C   UNL     1       6.263  25.860  52.682  1.00  0.00     0.078 C 
HETATM    6  C   UNL     1       7.110  24.847  51.889  1.00  0.00     0.014 C 
HETATM    7  C   UNL     1       8.073  24.060  52.774  1.00  0.00     0.007 C 
HETATM    8  C   UNL     1       7.339  23.347  53.920  1.00  0.00     0.018 C 
HETATM    9  C   UNL     1       6.535  24.376  54.732  1.00  0.00     0.007 C 
HETATM   10  C   UNL     1       5.559  25.159  53.852  1.00  0.00     0.014 C 
BRANCH   8  11
HETATM   11  C   UNL     1       8.306  22.485  54.777  1.00  0.00     0.218 C 
HETATM   12  C   UNL     1       7.634  21.363  55.569  1.00  0.00     0.043 C 
BRANCH  11  13
HETATM   13  N   UNL     1       9.343  21.898  53.923  1.00  0.00     0.082 N 
HETATM   14  H   UNL     1       8.985  21.785  52.974  1.00  0.00     0.313 HD
HETATM   15  H   UNL     1       9.567  20.960  54.250  1.00  0.00     0.313 HD
ENDBRANCH  11  13
ENDBRANCH   8  11
ENDBRANCH   1   5
BRANCH   3  16
HETATM   16  C   UNL     1       4.666  26.745  49.313  1.00  0.00     0.050 A 
HETATM   17  C   UNL     1       3.760  25.895  48.659  1.00  0.00     0.047 A 
HETATM   18  C   UNL     1       2.959  26.360  47.625  1.00  0.00     0.092 A 
HETATM   19  N   UNL     1       3.028  27.632  47.217  1.00  0.00    -0.351 N 
HETATM   20  H   UNL     1       2.432  27.960  46.459  1.00  0.00     0.166 HD
HETATM   21  C   UNL     1       3.906  28.470  47.827  1.00  0.00     0.117 A 
HETATM   22  N   UNL     1       4.115  29.795  47.554  1.00  0.00    -0.352 N 
HETATM   23  C   UNL     1       4.747  28.082  48.863  1.00  0.00     0.036 A 
HETATM   24  H   UNL     1       3.645  30.356  46.853  1.00  0.00     0.166 HD
HETATM   25  C   UNL     1       5.077  30.277  48.405  1.00  0.00     0.090 A 
HETATM   26  C   UNL     1       5.486  29.244  49.223  1.00  0.00     0.034 A 
ENDBRANCH   3  16
TORSDOF 4
ENDMDL
MODEL 10
REMARK VINA RESULT:      -7.7      2.923      3.931
REMARK  4 active torsions:
REMARK  status: ('A' for Active; 'I' for Inactive)
REMARK    1  A    between atoms: C_2  and  N_3 
REMARK    2  A    between atoms: C_2  and  C_4 
REMARK    3  A    between atoms: C_7  and  C_10 
REMARK       I    between atoms: C_10  and  N_12 
REMARK    4  A    between atoms: N_12  and  C_13 
ROOT
HETATM    1  C   UNL     1       7.065  26.597  54.161  1.00  0.00     0.226 C 
HETATM    2  O   UNL     1       7.695  27.573  53.753  1.00  0.00    -0.273 OA
HETATM    3  N   UNL     1       5.792  26.693  54.699  1.00  0.00    -0.326 N 
HETATM    4  H   UNL     1       5.261  25.838  54.788  1.00  0.00     0.169 HD
ENDROOT
BRANCH   1   5
HETATM    5  C   UNL     1       7.700  25.194  54.196  1.00  0.00     0.078 C 
HETATM    6  C   UNL     1       7.148  24.360  53.025  1.00  0.00     0.014 C 
HETATM    7  C   UNL     1       7.729  22.950  52.977  1.00  0.00     0.007 C 
HETATM    8  C   UNL     1       7.516  22.200  54.302  1.00  0.00     0.018 C 
HETATM    9  C   UNL     1       8.113  23.021  55.456  1.00  0.00     0.007 C 
HETATM   10  C   UNL     1       7.525  24.432  55.517  1.00  0.00     0.014 C 
BRANCH   8  11
HETATM   11  C   UNL     1       8.038  20.740  54.230  1.00  0.00     0.218 C 
HETATM   12  C   UNL     1       8.579  20.319  52.863  1.00  0.00     0.043 C 
BRANCH  11  13
HETATM   13  N   UNL     1       9.088  20.534  55.231  1.00  0.00     0.082 N 
HETATM   14  H   UNL     1       8.667  20.418  56.153  1.00  0.00     0.313 HD
HETATM   15  H   UNL     1       9.672  21.367  55.295  1.00  0.00     0.313 HD
ENDBRANCH  11  13
ENDBRANCH   8  11
ENDBRANCH   1   5
BRANCH   3  16
HETATM   16  C   UNL     1       5.081  27.891  54.932  1.00  0.00     0.050 A 
HETATM   17  C   UNL     1       5.055  28.541  56.177  1.00  0.00     0.047 A 
HETATM   18  C   UNL     1       4.338  29.716  56.358  1.00  0.00     0.092 A 
HETATM   19  N   UNL     1       3.645  30.263  55.353  1.00  0.00    -0.351 N 
HETATM   20  H   UNL     1       3.126  31.127  55.499  1.00  0.00     0.166 HD
HETATM   21  C   UNL     1       3.646  29.645  54.143  1.00  0.00     0.117 A 
HETATM   22  N   UNL     1       3.006  30.053  53.003  1.00  0.00    -0.352 N 
HETATM   23  C   UNL     1       4.332  28.466  53.882  1.00  0.00     0.036 A 
HETATM   24  H   UNL     1       2.433  30.880  52.886  1.00  0.00     0.166 HD
HETATM   25  C   UNL     1       3.273  29.155  52.000  1.00  0.00     0.090 A 
HETATM   26  C   UNL     1       4.086  28.166  52.512  1.00  0.00     0.034 A 
ENDBRANCH   3  16
TORSDOF 4
ENDMDL
