MODEL 1
REMARK VINA RESULT:      -9.2      0.000      0.000
REMARK  2 active torsions:
REMARK  status: ('A' for Active; 'I' for Inactive)
REMARK    1  A    between atoms: C_8  and  C_9 
REMARK       I    between atoms: N_10  and  C_11 
REMARK    2  A    between atoms: C_11  and  C_12 
ROOT
HETATM    1  C   UNL     1       5.579  27.846  55.225  1.00  0.00     0.124 C 
HETATM    2  N   UNL     1       6.507  26.719  55.156  1.00  0.00    -0.339 N 
HETATM    3  C   UNL     1       6.318  25.622  55.968  1.00  0.00     0.260 C 
HETATM    4  O   UNL     1       5.404  25.564  56.793  1.00  0.00    -0.267 OA
HETATM    5  C   UNL     1       7.314  26.785  53.943  1.00  0.00     0.127 C 
HETATM    6  C   UNL     1       7.168  28.219  53.458  1.00  0.00     0.022 C 
HETATM    7  C   UNL     1       5.752  28.574  53.885  1.00  0.00     0.032 C 
ENDROOT
BRANCH   1   8
HETATM    8  C   UNL     1       5.830  28.739  56.408  1.00  0.00     0.014 A 
HETATM    9  C   UNL     1       6.938  28.898  57.228  1.00  0.00     0.034 A 
HETATM   10  C   UNL     1       8.268  28.248  57.278  1.00  0.00     0.070 C 
HETATM   11  N   UNL     1       6.590  29.839  58.157  1.00  0.00    -0.282 N 
HETATM   12  H   UNL     1       7.146  30.185  58.931  1.00  0.00     0.189 HD
HETATM   13  N   UNL     1       5.362  30.340  57.991  1.00  0.00    -0.179 NA
HETATM   14  C   UNL     1       4.876  29.661  56.948  1.00  0.00     0.061 A 
HETATM   15  C   UNL     1       3.490  29.917  56.482  1.00  0.00     0.073 C 
ENDBRANCH   1   8
BRANCH   3  16
HETATM   16  C   UNL     1       7.178  24.424  55.776  1.00  0.00     0.108 A 
HETATM   17  C   UNL     1       8.140  23.946  56.789  1.00  0.00     0.304 A 
HETATM   18  O   UNL     1       8.309  24.502  57.868  1.00  0.00    -0.259 OA
HETATM   19  O   UNL     1       8.884  22.813  56.459  1.00  0.00    -0.274 OA
HETATM   20  C   UNL     1       8.623  22.071  55.294  1.00  0.00     0.089 A 
HETATM   21  C   UNL     1       7.656  22.491  54.388  1.00  0.00    -0.001 A 
HETATM   22  C   UNL     1       9.348  20.898  55.101  1.00  0.00     0.038 A 
HETATM   23  C   UNL     1       7.399  21.706  53.262  1.00  0.00     0.014 A 
HETATM   24  C   UNL     1       6.940  23.726  54.653  1.00  0.00     0.037 A 
HETATM   25  C   UNL     1       8.113  20.521  53.059  1.00  0.00     0.001 A 
HETATM   26  C   UNL     1       9.088  20.119  53.976  1.00  0.00     0.003 A 
ENDBRANCH   3  16
TORSDOF 2
ENDMDL
MODEL 2
REMARK VINA RESULT:      -9.1      2.082      3.108
REMARK  2 active torsions:
REMARK  status: ('A' for Active; 'I' for Inactive)
REMARK    1  A    between atoms: C_8  and  C_9 
REMARK       I    between atoms: N_10  and  C_11 
REMARK    2  A    between atoms: C_11  and  C_12 
ROOT
HETATM    1  C   UNL     1       7.217  28.496  57.542  1.00  0.00     0.124 C 
HETATM    2  N   UNL     1       7.207  27.464  56.507  1.00  0.00    -0.339 N 
HETATM    3  C   UNL     1       7.994  26.341  56.649  1.00  0.00     0.260 C 
HETATM    4  O   UNL     1       8.748  26.184  57.611  1.00  0.00    -0.267 OA
HETATM    5  C   UNL     1       6.059  27.625  55.624  1.00  0.00     0.127 C 
HETATM    6  C   UNL     1       5.577  29.046  55.870  1.00  0.00     0.022 C 
HETATM    7  C   UNL     1       5.901  29.259  57.342  1.00  0.00     0.032 C 
ENDROOT
BRANCH   1   8
HETATM    8  C   UNL     1       8.424  29.391  57.464  1.00  0.00     0.014 A 
HETATM    9  C   UNL     1       9.320  29.648  56.436  1.00  0.00     0.034 A 
HETATM   10  C   UNL     1       9.455  29.136  55.053  1.00  0.00     0.070 C 
HETATM   11  N   UNL     1      10.232  30.532  56.942  1.00  0.00    -0.282 N 
HETATM   12  H   UNL     1      11.046  30.920  56.478  1.00  0.00     0.189 HD
HETATM   13  N   UNL     1       9.986  30.908  58.201  1.00  0.00    -0.179 NA
HETATM   14  C   UNL     1       8.906  30.201  58.542  1.00  0.00     0.061 A 
HETATM   15  C   UNL     1       8.348  30.322  59.913  1.00  0.00     0.073 C 
ENDBRANCH   1   8
BRANCH   3  16
HETATM   16  C   UNL     1       7.855  25.233  55.667  1.00  0.00     0.108 A 
HETATM   17  C   UNL     1       7.815  25.446  54.206  1.00  0.00     0.304 A 
HETATM   18  O   UNL     1       7.890  26.554  53.688  1.00  0.00    -0.259 OA
HETATM   19  O   UNL     1       7.670  24.308  53.412  1.00  0.00    -0.274 OA
HETATM   20  C   UNL     1       7.717  23.013  53.960  1.00  0.00     0.089 A 
HETATM   21  C   UNL     1       7.837  22.829  55.333  1.00  0.00    -0.001 A 
HETATM   22  C   UNL     1       7.667  21.939  53.077  1.00  0.00     0.038 A 
HETATM   23  C   UNL     1       7.920  21.529  55.835  1.00  0.00     0.014 A 
HETATM   24  C   UNL     1       7.882  23.998  56.193  1.00  0.00     0.037 A 
HETATM   25  C   UNL     1       7.880  20.439  54.960  1.00  0.00     0.001 A 
HETATM   26  C   UNL     1       7.750  20.643  53.584  1.00  0.00     0.003 A 
ENDBRANCH   3  16
TORSDOF 2
ENDMDL
MODEL 3
REMARK VINA RESULT:      -8.8      2.848      4.428
REMARK  2 active torsions:
REMARK  status: ('A' for Active; 'I' for Inactive)
REMARK    1  A    between atoms: C_8  and  C_9 
REMARK       I    between atoms: N_10  and  C_11 
REMARK    2  A    between atoms: C_11  and  C_12 
ROOT
HETATM    1  C   UNL     1       5.935  28.104  52.735  1.00  0.00     0.124 C 
HETATM    2  N   UNL     1       6.196  26.919  53.550  1.00  0.00    -0.339 N 
HETATM    3  C   UNL     1       7.386  26.239  53.412  1.00  0.00     0.260 C 
HETATM    4  O   UNL     1       8.242  26.571  52.589  1.00  0.00    -0.267 OA
HETATM    5  C   UNL     1       5.268  26.846  54.672  1.00  0.00     0.127 C 
HETATM    6  C   UNL     1       4.135  27.791  54.301  1.00  0.00     0.022 C 
HETATM    7  C   UNL     1       4.849  28.872  53.502  1.00  0.00     0.032 C 
ENDROOT
BRANCH   1   8
HETATM    8  C   UNL     1       5.524  27.768  51.328  1.00  0.00     0.014 A 
HETATM    9  C   UNL     1       5.102  26.581  50.746  1.00  0.00     0.034 A 
HETATM   10  C   UNL     1       4.922  25.204  51.261  1.00  0.00     0.070 C 
HETATM   11  N   UNL     1       4.883  26.863  49.427  1.00  0.00    -0.282 N 
HETATM   12  H   UNL     1       4.591  26.226  48.694  1.00  0.00     0.189 HD
HETATM   13  N   UNL     1       5.084  28.144  49.103  1.00  0.00    -0.179 NA
HETATM   14  C   UNL     1       5.502  28.702  50.242  1.00  0.00     0.061 A 
HETATM   15  C   UNL     1       5.871  30.140  50.268  1.00  0.00     0.073 C 
ENDBRANCH   1   8
BRANCH   3  16
HETATM   16  C   UNL     1       7.699  25.132  54.354  1.00  0.00     0.108 A 
HETATM   17  C   UNL     1       7.935  25.339  55.797  1.00  0.00     0.304 A 
HETATM   18  O   UNL     1       7.896  26.442  56.331  1.00  0.00    -0.259 OA
HETATM   19  O   UNL     1       8.230  24.204  56.552  1.00  0.00    -0.274 OA
HETATM   20  C   UNL     1       8.151  22.911  56.004  1.00  0.00     0.089 A 
HETATM   21  C   UNL     1       7.847  22.729  54.659  1.00  0.00    -0.001 A 
HETATM   22  C   UNL     1       8.361  21.835  56.861  1.00  0.00     0.038 A 
HETATM   23  C   UNL     1       7.739  21.429  54.162  1.00  0.00     0.014 A 
HETATM   24  C   UNL     1       7.641  23.899  53.825  1.00  0.00     0.037 A 
HETATM   25  C   UNL     1       7.939  20.337  55.012  1.00  0.00     0.001 A 
HETATM   26  C   UNL     1       8.253  20.539  56.359  1.00  0.00     0.003 A 
ENDBRANCH   3  16
TORSDOF 2
ENDMDL
MODEL 4
REMARK VINA RESULT:      -8.7      7.697     10.820
REMARK  2 active torsions:
REMARK  status: ('A' for Active; 'I' for Inactive)
REMARK    1  A    between atoms: C_8  and  C_9 
REMARK       I    between atoms: N_10  and  C_11 
REMARK    2  A    between atoms: C_11  and  C_12 
ROOT
HETATM    1  C   UNL     1       4.464  34.987  64.045  1.00  0.00     0.124 C 
HETATM    2  N   UNL     1       5.164  34.361  62.925  1.00  0.00    -0.339 N 
HETATM    3  C   UNL     1       4.915  33.042  62.609  1.00  0.00     0.260 C 
HETATM    4  O   UNL     1       4.141  32.343  63.266  1.00  0.00    -0.267 OA
HETATM    5  C   UNL     1       5.776  35.368  62.067  1.00  0.00     0.127 C 
HETATM    6  C   UNL     1       5.807  36.631  62.914  1.00  0.00     0.022 C 
HETATM    7  C   UNL     1       4.554  36.493  63.766  1.00  0.00     0.032 C 
ENDROOT
BRANCH   1   8
HETATM    8  C   UNL     1       5.042  34.608  65.381  1.00  0.00     0.014 A 
HETATM    9  C   UNL     1       6.267  34.063  65.738  1.00  0.00     0.034 A 
HETATM   10  C   UNL     1       7.449  33.623  64.961  1.00  0.00     0.070 C 
HETATM   11  N   UNL     1       6.233  33.912  67.096  1.00  0.00    -0.282 N 
HETATM   12  H   UNL     1       6.949  33.518  67.697  1.00  0.00     0.189 HD
HETATM   13  N   UNL     1       5.106  34.351  67.665  1.00  0.00    -0.179 NA
HETATM   14  C   UNL     1       4.360  34.751  66.632  1.00  0.00     0.061 A 
HETATM   15  C   UNL     1       2.991  35.275  66.870  1.00  0.00     0.073 C 
ENDBRANCH   1   8
BRANCH   3  16
HETATM   16  C   UNL     1       5.516  32.469  61.376  1.00  0.00     0.108 A 
HETATM   17  C   UNL     1       4.848  32.499  60.060  1.00  0.00     0.304 A 
HETATM   18  O   UNL     1       3.742  32.996  59.881  1.00  0.00    -0.259 OA
HETATM   19  O   UNL     1       5.533  31.910  58.997  1.00  0.00    -0.274 OA
HETATM   20  C   UNL     1       6.856  31.452  59.133  1.00  0.00     0.089 A 
HETATM   21  C   UNL     1       7.501  31.506  60.364  1.00  0.00    -0.001 A 
HETATM   22  C   UNL     1       7.493  30.974  57.992  1.00  0.00     0.038 A 
HETATM   23  C   UNL     1       8.827  31.078  60.450  1.00  0.00     0.014 A 
HETATM   24  C   UNL     1       6.773  32.016  61.512  1.00  0.00     0.037 A 
HETATM   25  C   UNL     1       9.484  30.604  59.310  1.00  0.00     0.001 A 
HETATM   26  C   UNL     1       8.817  30.549  58.084  1.00  0.00     0.003 A 
ENDBRANCH   3  16
TORSDOF 2
ENDMDL
MODEL 5
REMARK VINA RESULT:      -8.7      4.947      6.827
REMARK  2 active torsions:
REMARK  status: ('A' for Active; 'I' for Inactive)
REMARK    1  A    between atoms: C_8  and  C_9 
REMARK       I    between atoms: N_10  and  C_11 
REMARK    2  A    between atoms: C_11  and  C_12 
ROOT
HETATM    1  C   UNL     1       4.544  27.453  48.755  1.00  0.00     0.124 C 
HETATM    2  N   UNL     1       4.950  27.352  50.156  1.00  0.00    -0.339 N 
HETATM    3  C   UNL     1       4.857  26.144  50.814  1.00  0.00     0.260 C 
HETATM    4  O   UNL     1       4.402  25.134  50.272  1.00  0.00    -0.267 OA
HETATM    5  C   UNL     1       5.750  28.506  50.549  1.00  0.00     0.127 C 
HETATM    6  C   UNL     1       5.478  29.549  49.477  1.00  0.00     0.022 C 
HETATM    7  C   UNL     1       5.266  28.701  48.231  1.00  0.00     0.032 C 
ENDROOT
BRANCH   1   8
HETATM    8  C   UNL     1       3.052  27.528  48.583  1.00  0.00     0.014 A 
HETATM    9  C   UNL     1       2.100  28.379  49.127  1.00  0.00     0.034 A 
HETATM   10  C   UNL     1       2.172  29.502  50.090  1.00  0.00     0.070 C 
HETATM   11  N   UNL     1       0.896  27.967  48.629  1.00  0.00    -0.282 N 
HETATM   12  H   UNL     1      -0.023  28.343  48.832  1.00  0.00     0.189 HD
HETATM   13  N   UNL     1       0.982  26.945  47.771  1.00  0.00    -0.179 NA
HETATM   14  C   UNL     1       2.284  26.648  47.754  1.00  0.00     0.061 A 
HETATM   15  C   UNL     1       2.772  25.515  46.929  1.00  0.00     0.073 C 
ENDBRANCH   1   8
BRANCH   3  16
HETATM   16  C   UNL     1       5.417  26.023  52.185  1.00  0.00     0.108 A 
HETATM   17  C   UNL     1       4.860  26.735  53.353  1.00  0.00     0.304 A 
HETATM   18  O   UNL     1       3.894  27.486  53.283  1.00  0.00    -0.259 OA
HETATM   19  O   UNL     1       5.502  26.530  54.575  1.00  0.00    -0.274 OA
HETATM   20  C   UNL     1       6.524  25.575  54.722  1.00  0.00     0.089 A 
HETATM   21  C   UNL     1       6.982  24.853  53.625  1.00  0.00    -0.001 A 
HETATM   22  C   UNL     1       7.033  25.368  56.001  1.00  0.00     0.038 A 
HETATM   23  C   UNL     1       7.971  23.887  53.819  1.00  0.00     0.014 A 
HETATM   24  C   UNL     1       6.405  25.124  52.320  1.00  0.00     0.037 A 
HETATM   25  C   UNL     1       8.486  23.661  55.099  1.00  0.00     0.001 A 
HETATM   26  C   UNL     1       8.020  24.403  56.188  1.00  0.00     0.003 A 
ENDBRANCH   3  16
TORSDOF 2
ENDMDL
MODEL 6
REMARK VINA RESULT:      -8.6      3.216      7.154
REMARK  2 active torsions:
REMARK  status: ('A' for Active; 'I' for Inactive)
REMARK    1  A    between atoms: C_8  and  C_9 
REMARK       I    between atoms: N_10  and  C_11 
REMARK    2  A    between atoms: C_11  and  C_12 
ROOT
HETATM    1  C   UNL     1       5.691  26.295  54.978  1.00  0.00     0.124 C 
HETATM    2  N   UNL     1       6.741  27.066  55.642  1.00  0.00    -0.339 N 
HETATM    3  C   UNL     1       6.654  28.440  55.699  1.00  0.00     0.260 C 
HETATM    4  O   UNL     1       5.729  29.063  55.172  1.00  0.00    -0.267 OA
HETATM    5  C   UNL     1       7.568  26.203  56.476  1.00  0.00     0.127 C 
HETATM    6  C   UNL     1       7.277  24.793  55.986  1.00  0.00     0.022 C 
HETATM    7  C   UNL     1       5.818  24.882  55.562  1.00  0.00     0.032 C 
ENDROOT
BRANCH   1   8
HETATM    8  C   UNL     1       5.808  26.317  53.479  1.00  0.00     0.014 A 
HETATM    9  C   UNL     1       6.742  25.762  52.616  1.00  0.00     0.034 A 
HETATM   10  C   UNL     1       7.977  24.973  52.826  1.00  0.00     0.070 C 
HETATM   11  N   UNL     1       6.355  26.124  51.356  1.00  0.00    -0.282 N 
HETATM   12  H   UNL     1       6.818  25.916  50.478  1.00  0.00     0.189 HD
HETATM   13  N   UNL     1       5.222  26.833  51.317  1.00  0.00    -0.179 NA
HETATM   14  C   UNL     1       4.893  26.984  52.602  1.00  0.00     0.061 A 
HETATM   15  C   UNL     1       3.687  27.770  52.967  1.00  0.00     0.073 C 
ENDBRANCH   1   8
BRANCH   3  16
HETATM   16  C   UNL     1       7.646  29.194  56.509  1.00  0.00     0.108 A 
HETATM   17  C   UNL     1       9.022  29.475  56.049  1.00  0.00     0.304 A 
HETATM   18  O   UNL     1       9.454  29.105  54.964  1.00  0.00    -0.259 OA
HETATM   19  O   UNL     1       9.842  30.185  56.927  1.00  0.00    -0.274 OA
HETATM   20  C   UNL     1       9.343  30.742  58.118  1.00  0.00     0.089 A 
HETATM   21  C   UNL     1       8.021  30.535  58.497  1.00  0.00    -0.001 A 
HETATM   22  C   UNL     1      10.211  31.520  58.877  1.00  0.00     0.038 A 
HETATM   23  C   UNL     1       7.553  31.137  59.666  1.00  0.00     0.014 A 
HETATM   24  C   UNL     1       7.173  29.710  57.655  1.00  0.00     0.037 A 
HETATM   25  C   UNL     1       8.410  31.930  60.436  1.00  0.00     0.001 A 
HETATM   26  C   UNL     1       9.738  32.119  60.044  1.00  0.00     0.003 A 
ENDBRANCH   3  16
TORSDOF 2
ENDMDL
MODEL 7
REMARK VINA RESULT:      -8.6      1.939      3.045
REMARK  2 active torsions:
REMARK  status: ('A' for Active; 'I' for Inactive)
REMARK    1  A    between atoms: C_8  and  C_9 
REMARK       I    between atoms: N_10  and  C_11 
REMARK    2  A    between atoms: C_11  and  C_12 
ROOT
HETATM    1  C   UNL     1       5.671  27.870  55.399  1.00  0.00     0.124 C 
HETATM    2  N   UNL     1       6.184  26.502  55.442  1.00  0.00    -0.339 N 
HETATM    3  C   UNL     1       7.264  26.148  54.661  1.00  0.00     0.260 C 
HETATM    4  O   UNL     1       7.804  26.941  53.887  1.00  0.00    -0.267 OA
HETATM    5  C   UNL     1       5.674  25.792  56.608  1.00  0.00     0.127 C 
HETATM    6  C   UNL     1       4.483  26.615  57.072  1.00  0.00     0.022 C 
HETATM    7  C   UNL     1       4.896  28.035  56.713  1.00  0.00     0.032 C 
ENDROOT
BRANCH   1   8
HETATM    8  C   UNL     1       4.823  28.139  54.187  1.00  0.00     0.014 A 
HETATM    9  C   UNL     1       4.372  27.309  53.171  1.00  0.00     0.034 A 
HETATM   10  C   UNL     1       4.566  25.872  52.870  1.00  0.00     0.070 C 
HETATM   11  N   UNL     1       3.654  28.105  52.322  1.00  0.00    -0.282 N 
HETATM   12  H   UNL     1       3.199  27.840  51.455  1.00  0.00     0.189 HD
HETATM   13  N   UNL     1       3.562  29.379  52.717  1.00  0.00    -0.179 NA
HETATM   14  C   UNL     1       4.291  29.422  53.836  1.00  0.00     0.061 A 
HETATM   15  C   UNL     1       4.461  30.709  54.557  1.00  0.00     0.073 C 
ENDBRANCH   1   8
BRANCH   3  16
HETATM   16  C   UNL     1       7.868  24.800  54.832  1.00  0.00     0.108 A 
HETATM   17  C   UNL     1       8.593  24.386  56.050  1.00  0.00     0.304 A 
HETATM   18  O   UNL     1       8.757  25.122  57.016  1.00  0.00    -0.259 OA
HETATM   19  O   UNL     1       9.114  23.091  56.058  1.00  0.00    -0.274 OA
HETATM   20  C   UNL     1       8.831  22.175  55.030  1.00  0.00     0.089 A 
HETATM   21  C   UNL     1       8.077  22.558  53.926  1.00  0.00    -0.001 A 
HETATM   22  C   UNL     1       9.309  20.876  55.176  1.00  0.00     0.038 A 
HETATM   23  C   UNL     1       7.785  21.609  52.946  1.00  0.00     0.014 A 
HETATM   24  C   UNL     1       7.612  23.932  53.841  1.00  0.00     0.037 A 
HETATM   25  C   UNL     1       8.251  20.297  53.083  1.00  0.00     0.001 A 
HETATM   26  C   UNL     1       9.015  19.932  54.194  1.00  0.00     0.003 A 
ENDBRANCH   3  16
TORSDOF 2
ENDMDL
MODEL 8
REMARK VINA RESULT:      -8.3      4.801      7.305
REMARK  2 active torsions:
REMARK  status: ('A' for Active; 'I' for Inactive)
REMARK    1  A    between atoms: C_8  and  C_9 
REMARK       I    between atoms: N_10  and  C_11 
REMARK    2  A    between atoms: C_11  and  C_12 
ROOT
HETATM    1  C   UNL     1       4.689  27.423  48.963  1.00  0.00     0.124 C 
HETATM    2  N   UNL     1       5.108  27.557  50.357  1.00  0.00    -0.339 N 
HETATM    3  C   UNL     1       5.093  26.457  51.188  1.00  0.00     0.260 C 
HETATM    4  O   UNL     1       4.699  25.352  50.809  1.00  0.00    -0.267 OA
HETATM    5  C   UNL     1       5.835  28.803  50.563  1.00  0.00     0.127 C 
HETATM    6  C   UNL     1       5.494  29.656  49.352  1.00  0.00     0.022 C 
HETATM    7  C   UNL     1       5.329  28.621  48.248  1.00  0.00     0.032 C 
ENDROOT
BRANCH   1   8
HETATM    8  C   UNL     1       3.194  27.381  48.802  1.00  0.00     0.014 A 
HETATM    9  C   UNL     1       2.183  28.159  49.348  1.00  0.00     0.034 A 
HETATM   10  C   UNL     1       2.174  29.291  50.303  1.00  0.00     0.070 C 
HETATM   11  N   UNL     1       1.011  27.651  48.863  1.00  0.00    -0.282 N 
HETATM   12  H   UNL     1       0.066  27.956  49.071  1.00  0.00     0.189 HD
HETATM   13  N   UNL     1       1.169  26.632  48.012  1.00  0.00    -0.179 NA
HETATM   14  C   UNL     1       2.490  26.438  47.986  1.00  0.00     0.061 A 
HETATM   15  C   UNL     1       3.058  25.339  47.165  1.00  0.00     0.073 C 
ENDBRANCH   1   8
BRANCH   3  16
HETATM   16  C   UNL     1       5.666  26.576  52.554  1.00  0.00     0.108 A 
HETATM   17  C   UNL     1       7.015  26.093  52.911  1.00  0.00     0.304 A 
HETATM   18  O   UNL     1       7.767  25.551  52.109  1.00  0.00    -0.259 OA
HETATM   19  O   UNL     1       7.411  26.265  54.238  1.00  0.00    -0.274 OA
HETATM   20  C   UNL     1       6.634  27.001  55.151  1.00  0.00     0.089 A 
HETATM   21  C   UNL     1       5.400  27.520  54.774  1.00  0.00    -0.001 A 
HETATM   22  C   UNL     1       7.159  27.207  56.423  1.00  0.00     0.038 A 
HETATM   23  C   UNL     1       4.677  28.277  55.697  1.00  0.00     0.014 A 
HETATM   24  C   UNL     1       4.915  27.263  53.430  1.00  0.00     0.037 A 
HETATM   25  C   UNL     1       5.195  28.501  56.977  1.00  0.00     0.001 A 
HETATM   26  C   UNL     1       6.433  27.964  57.340  1.00  0.00     0.003 A 
ENDBRANCH   3  16
TORSDOF 2
ENDMDL
MODEL 9
REMARK VINA RESULT:      -8.2      3.897      7.168
REMARK  2 active torsions:
REMARK  status: ('A' for Active; 'I' for Inactive)
REMARK    1  A    between atoms: C_8  and  C_9 
REMARK       I    between atoms: N_10  and  C_11 
REMARK    2  A    between atoms: C_11  and  C_12 
ROOT
HETATM    1  C   UNL     1       6.814  26.027  54.931  1.00  0.00     0.124 C 
HETATM    2  N   UNL     1       6.297  26.731  53.759  1.00  0.00    -0.339 N 
HETATM    3  C   UNL     1       5.167  26.265  53.121  1.00  0.00     0.260 C 
HETATM    4  O   UNL     1       4.584  25.240  53.480  1.00  0.00    -0.267 OA
HETATM    5  C   UNL     1       6.876  28.065  53.658  1.00  0.00     0.127 C 
HETATM    6  C   UNL     1       8.099  28.026  54.560  1.00  0.00     0.022 C 
HETATM    7  C   UNL     1       7.672  27.068  55.663  1.00  0.00     0.032 C 
ENDROOT
BRANCH   1   8
HETATM    8  C   UNL     1       7.585  24.785  54.575  1.00  0.00     0.014 A 
HETATM    9  C   UNL     1       8.025  24.288  53.357  1.00  0.00     0.034 A 
HETATM   10  C   UNL     1       7.889  24.755  51.959  1.00  0.00     0.070 C 
HETATM   11  N   UNL     1       8.657  23.108  53.637  1.00  0.00    -0.282 N 
HETATM   12  H   UNL     1       9.081  22.459  52.983  1.00  0.00     0.189 HD
HETATM   13  N   UNL     1       8.706  22.812  54.939  1.00  0.00    -0.179 NA
HETATM   14  C   UNL     1       8.033  23.808  55.521  1.00  0.00     0.061 A 
HETATM   15  C   UNL     1       7.836  23.804  56.993  1.00  0.00     0.073 C 
ENDBRANCH   1   8
BRANCH   3  16
HETATM   16  C   UNL     1       4.568  27.078  52.029  1.00  0.00     0.108 A 
HETATM   17  C   UNL     1       3.712  28.256  52.274  1.00  0.00     0.304 A 
HETATM   18  O   UNL     1       3.425  28.655  53.396  1.00  0.00    -0.259 OA
HETATM   19  O   UNL     1       3.213  28.911  51.147  1.00  0.00    -0.274 OA
HETATM   20  C   UNL     1       3.629  28.568  49.848  1.00  0.00     0.089 A 
HETATM   21  C   UNL     1       4.500  27.505  49.641  1.00  0.00    -0.001 A 
HETATM   22  C   UNL     1       3.156  29.345  48.795  1.00  0.00     0.038 A 
HETATM   23  C   UNL     1       4.920  27.220  48.340  1.00  0.00     0.014 A 
HETATM   24  C   UNL     1       4.951  26.737  50.789  1.00  0.00     0.037 A 
HETATM   25  C   UNL     1       4.461  27.997  47.272  1.00  0.00     0.001 A 
HETATM   26  C   UNL     1       3.578  29.055  47.499  1.00  0.00     0.003 A 
ENDBRANCH   3  16
TORSDOF 2
ENDMDL
MODEL 10
REMARK VINA RESULT:      -8.1      7.640     10.842
REMARK  2 active torsions:
REMARK  status: ('A' for Active; 'I' for Inactive)
REMARK    1  A    between atoms: C_8  and  C_9 
REMARK       I    between atoms: N_10  and  C_11 
REMARK    2  A    between atoms: C_11  and  C_12 
ROOT
HETATM    1  C   UNL     1       4.372  35.162  64.042  1.00  0.00     0.124 C 
HETATM    2  N   UNL     1       4.995  34.552  62.868  1.00  0.00    -0.339 N 
HETATM    3  C   UNL     1       4.635  33.279  62.483  1.00  0.00     0.260 C 
HETATM    4  O   UNL     1       3.822  32.604  63.118  1.00  0.00    -0.267 OA
HETATM    5  C   UNL     1       5.666  35.559  62.056  1.00  0.00     0.127 C 
HETATM    6  C   UNL     1       5.816  36.762  62.974  1.00  0.00     0.022 C 
HETATM    7  C   UNL     1       4.575  36.671  63.850  1.00  0.00     0.032 C 
ENDROOT
BRANCH   1   8
HETATM    8  C   UNL     1       4.946  34.658  65.338  1.00  0.00     0.014 A 
HETATM    9  C   UNL     1       6.182  34.108  65.649  1.00  0.00     0.034 A 
HETATM   10  C   UNL     1       7.381  33.781  64.845  1.00  0.00     0.070 C 
HETATM   11  N   UNL     1       6.139  33.815  66.984  1.00  0.00    -0.282 N 
HETATM   12  H   UNL     1       6.859  33.377  67.548  1.00  0.00     0.189 HD
HETATM   13  N   UNL     1       4.996  34.165  67.582  1.00  0.00    -0.179 NA
HETATM   14  C   UNL     1       4.250  34.653  66.589  1.00  0.00     0.061 A 
HETATM   15  C   UNL     1       2.866  35.116  66.864  1.00  0.00     0.073 C 
ENDBRANCH   1   8
BRANCH   3  16
HETATM   16  C   UNL     1       5.162  32.736  61.203  1.00  0.00     0.108 A 
HETATM   17  C   UNL     1       6.527  32.192  61.054  1.00  0.00     0.304 A 
HETATM   18  O   UNL     1       7.335  32.149  61.975  1.00  0.00    -0.259 OA
HETATM   19  O   UNL     1       6.881  31.729  59.787  1.00  0.00    -0.274 OA
HETATM   20  C   UNL     1       5.941  31.636  58.745  1.00  0.00     0.089 A 
HETATM   21  C   UNL     1       4.636  32.079  58.927  1.00  0.00    -0.001 A 
HETATM   22  C   UNL     1       6.362  31.066  57.547  1.00  0.00     0.038 A 
HETATM   23  C   UNL     1       3.722  31.934  57.880  1.00  0.00     0.014 A 
HETATM   24  C   UNL     1       4.268  32.665  60.203  1.00  0.00     0.037 A 
HETATM   25  C   UNL     1       4.128  31.354  56.674  1.00  0.00     0.001 A 
HETATM   26  C   UNL     1       5.446  30.924  56.507  1.00  0.00     0.003 A 
ENDBRANCH   3  16
TORSDOF 2
ENDMDL
