MODEL 1
REMARK VINA RESULT:      -9.1      0.000      0.000
REMARK  5 active torsions:
REMARK  status: ('A' for Active; 'I' for Inactive)
REMARK    1  A    between atoms: O_2  and  C_3 
REMARK    2  A    between atoms: C_4  and  N_5 
REMARK       I    between atoms: N_5  and  C_6 
REMARK       I    between atoms: C_6  and  N_7 
REMARK    3  A    between atoms: N_7  and  N_8 
REMARK       I    between atoms: N_8  and  C_9 
REMARK    4  A    between atoms: C_9  and  C_10 
REMARK    5  A    between atoms: C_11  and  N_12 
ROOT
HETATM    1  N   UNL     1       6.345  31.693  61.870  1.00  0.00    -0.262 N 
HETATM    2  C   UNL     1       5.181  31.682  62.620  1.00  0.00     0.272 C 
HETATM    3  O   UNL     1       4.874  30.777  63.390  1.00  0.00    -0.266 OA
HETATM    4  H   UNL     1       6.644  32.527  61.369  1.00  0.00     0.190 HD
ENDROOT
BRANCH   1   5
HETATM    5  N   UNL     1       7.369  30.803  62.243  1.00  0.00    -0.249 N 
HETATM    6  C   UNL     1       8.402  30.515  61.376  1.00  0.00     0.339 C 
HETATM    7  N   UNL     1       8.027  30.520  60.057  1.00  0.00    -0.305 N 
HETATM    8  O   UNL     1       9.518  30.267  61.820  1.00  0.00    -0.245 OA
HETATM    9  H   UNL     1       7.038  30.364  59.897  1.00  0.00     0.171 HD
HETATM   10  H   UNL     1       7.613  30.791  63.229  1.00  0.00     0.192 HD
BRANCH   7  11
HETATM   11  C   UNL     1       8.870  30.329  58.945  1.00  0.00     0.069 A 
HETATM   12  C   UNL     1       8.621  29.232  58.104  1.00  0.00     0.095 A 
HETATM   13  C   UNL     1       9.388  29.032  56.951  1.00  0.00     0.039 A 
HETATM   14  C   UNL     1      10.431  29.909  56.653  1.00  0.00     0.003 A 
HETATM   15  C   UNL     1      10.702  30.983  57.499  1.00  0.00     0.002 A 
HETATM   16  C   UNL     1       9.923  31.194  58.640  1.00  0.00     0.032 A 
BRANCH  12  17
HETATM   17  O   UNL     1       7.599  28.380  58.448  1.00  0.00    -0.354 OA
HETATM   18  C   UNL     1       6.770  28.049  57.332  1.00  0.00     0.210 C 
ENDBRANCH  12  17
ENDBRANCH   7  11
ENDBRANCH   1   5
BRANCH   2  19
HETATM   19  C   UNL     1       4.351  32.920  62.564  1.00  0.00     0.060 A 
HETATM   20  C   UNL     1       4.199  33.871  63.589  1.00  0.00     0.054 A 
HETATM   21  C   UNL     1       3.202  34.860  63.463  1.00  0.00     0.031 A 
HETATM   22  C   UNL     1       2.404  34.931  62.319  1.00  0.00     0.002 A 
HETATM   23  C   UNL     1       2.586  34.020  61.286  1.00  0.00     0.001 A 
HETATM   24  C   UNL     1       3.550  33.020  61.409  1.00  0.00     0.019 A 
BRANCH  20  25
HETATM   25  N   UNL     1       5.047  33.928  64.730  1.00  0.00    -0.332 N 
HETATM   26  C   UNL     1       6.427  33.937  64.741  1.00  0.00     0.096 A 
HETATM   27  C   UNL     1       6.867  33.994  66.045  1.00  0.00     0.019 A 
HETATM   28  C   UNL     1       5.727  34.043  66.871  1.00  0.00     0.019 A 
HETATM   29  C   UNL     1       4.627  34.026  66.043  1.00  0.00     0.096 A 
ENDBRANCH  20  25
ENDBRANCH   2  19
TORSDOF 5
ENDMDL
MODEL 2
REMARK VINA RESULT:      -8.8      5.079     10.456
REMARK  5 active torsions:
REMARK  status: ('A' for Active; 'I' for Inactive)
REMARK    1  A    between atoms: O_2  and  C_3 
REMARK    2  A    between atoms: C_4  and  N_5 
REMARK       I    between atoms: N_5  and  C_6 
REMARK       I    between atoms: C_6  and  N_7 
REMARK    3  A    between atoms: N_7  and  N_8 
REMARK       I    between atoms: N_8  and  C_9 
REMARK    4  A    between atoms: C_9  and  C_10 
REMARK    5  A    between atoms: C_11  and  N_12 
ROOT
HETATM    1  N   UNL     1       6.883  26.479  56.395  1.00  0.00    -0.262 N 
HETATM    2  C   UNL     1       6.373  25.196  56.503  1.00  0.00     0.272 C 
HETATM    3  O   UNL     1       5.272  24.937  56.977  1.00  0.00    -0.266 OA
HETATM    4  H   UNL     1       7.723  26.672  55.854  1.00  0.00     0.190 HD
ENDROOT
BRANCH   1   5
HETATM    5  N   UNL     1       5.981  27.551  56.526  1.00  0.00    -0.249 N 
HETATM    6  C   UNL     1       6.416  28.791  56.945  1.00  0.00     0.339 C 
HETATM    7  N   UNL     1       7.453  28.732  57.841  1.00  0.00    -0.305 N 
HETATM    8  O   UNL     1       5.864  29.804  56.528  1.00  0.00    -0.245 OA
HETATM    9  H   UNL     1       7.524  27.859  58.351  1.00  0.00     0.171 HD
HETATM   10  H   UNL     1       5.202  27.562  55.874  1.00  0.00     0.192 HD
BRANCH   7  11
HETATM   11  C   UNL     1       8.148  29.827  58.391  1.00  0.00     0.069 A 
HETATM   12  C   UNL     1       9.475  30.044  57.985  1.00  0.00     0.095 A 
HETATM   13  C   UNL     1      10.189  31.152  58.453  1.00  0.00     0.039 A 
HETATM   14  C   UNL     1       9.592  32.030  59.357  1.00  0.00     0.003 A 
HETATM   15  C   UNL     1       8.284  31.804  59.786  1.00  0.00     0.002 A 
HETATM   16  C   UNL     1       7.564  30.708  59.304  1.00  0.00     0.032 A 
BRANCH  12  17
HETATM   17  O   UNL     1      10.033  29.141  57.111  1.00  0.00    -0.354 OA
HETATM   18  C   UNL     1      10.205  29.689  55.803  1.00  0.00     0.210 C 
ENDBRANCH  12  17
ENDBRANCH   7  11
ENDBRANCH   1   5
BRANCH   2  19
HETATM   19  C   UNL     1       7.181  24.113  55.872  1.00  0.00     0.060 A 
HETATM   20  C   UNL     1       7.166  23.741  54.516  1.00  0.00     0.054 A 
HETATM   21  C   UNL     1       7.813  22.552  54.124  1.00  0.00     0.031 A 
HETATM   22  C   UNL     1       8.502  21.771  55.055  1.00  0.00     0.002 A 
HETATM   23  C   UNL     1       8.557  22.163  56.387  1.00  0.00     0.001 A 
HETATM   24  C   UNL     1       7.899  23.324  56.793  1.00  0.00     0.019 A 
BRANCH  20  25
HETATM   25  N   UNL     1       6.579  24.542  53.496  1.00  0.00    -0.332 N 
HETATM   26  C   UNL     1       5.234  24.670  53.211  1.00  0.00     0.096 A 
HETATM   27  C   UNL     1       5.080  25.536  52.150  1.00  0.00     0.019 A 
HETATM   28  C   UNL     1       6.365  25.975  51.775  1.00  0.00     0.019 A 
HETATM   29  C   UNL     1       7.263  25.373  52.629  1.00  0.00     0.096 A 
ENDBRANCH  20  25
ENDBRANCH   2  19
TORSDOF 5
ENDMDL
MODEL 3
REMARK VINA RESULT:      -8.7      9.275     12.688
REMARK  5 active torsions:
REMARK  status: ('A' for Active; 'I' for Inactive)
REMARK    1  A    between atoms: O_2  and  C_3 
REMARK    2  A    between atoms: C_4  and  N_5 
REMARK       I    between atoms: N_5  and  C_6 
REMARK       I    between atoms: C_6  and  N_7 
REMARK    3  A    between atoms: N_7  and  N_8 
REMARK       I    between atoms: N_8  and  C_9 
REMARK    4  A    between atoms: C_9  and  C_10 
REMARK    5  A    between atoms: C_11  and  N_12 
ROOT
HETATM    1  N   UNL     1       6.039  24.950  52.998  1.00  0.00    -0.262 N 
HETATM    2  C   UNL     1       7.363  24.547  53.049  1.00  0.00     0.272 C 
HETATM    3  O   UNL     1       8.306  25.256  52.715  1.00  0.00    -0.266 OA
HETATM    4  H   UNL     1       5.300  24.401  53.431  1.00  0.00     0.190 HD
ENDROOT
BRANCH   1   5
HETATM    5  N   UNL     1       5.783  26.329  52.874  1.00  0.00    -0.249 N 
HETATM    6  C   UNL     1       5.029  26.813  51.826  1.00  0.00     0.339 C 
HETATM    7  N   UNL     1       5.181  26.098  50.666  1.00  0.00    -0.305 N 
HETATM    8  O   UNL     1       4.329  27.808  51.988  1.00  0.00    -0.245 OA
HETATM    9  H   UNL     1       6.048  25.576  50.600  1.00  0.00     0.171 HD
HETATM   10  H   UNL     1       5.704  26.848  53.743  1.00  0.00     0.192 HD
BRANCH   7  11
HETATM   11  C   UNL     1       4.495  26.311  49.454  1.00  0.00     0.069 A 
HETATM   12  C   UNL     1       4.823  27.447  48.696  1.00  0.00     0.095 A 
HETATM   13  C   UNL     1       4.218  27.671  47.455  1.00  0.00     0.039 A 
HETATM   14  C   UNL     1       3.255  26.780  46.982  1.00  0.00     0.003 A 
HETATM   15  C   UNL     1       2.904  25.665  47.743  1.00  0.00     0.002 A 
HETATM   16  C   UNL     1       3.523  25.430  48.974  1.00  0.00     0.032 A 
BRANCH  12  17
HETATM   17  O   UNL     1       5.759  28.311  49.210  1.00  0.00    -0.354 OA
HETATM   18  C   UNL     1       5.333  29.674  49.144  1.00  0.00     0.210 C 
ENDBRANCH  12  17
ENDBRANCH   7  11
ENDBRANCH   1   5
BRANCH   2  19
HETATM   19  C   UNL     1       7.621  23.219  53.679  1.00  0.00     0.060 A 
HETATM   20  C   UNL     1       7.926  22.982  55.031  1.00  0.00     0.054 A 
HETATM   21  C   UNL     1       8.367  21.700  55.419  1.00  0.00     0.031 A 
HETATM   22  C   UNL     1       8.458  20.662  54.489  1.00  0.00     0.002 A 
HETATM   23  C   UNL     1       8.111  20.884  53.162  1.00  0.00     0.001 A 
HETATM   24  C   UNL     1       7.698  22.154  52.760  1.00  0.00     0.019 A 
BRANCH  20  25
HETATM   25  N   UNL     1       7.754  23.959  56.051  1.00  0.00    -0.332 N 
HETATM   26  C   UNL     1       8.737  24.522  56.839  1.00  0.00     0.096 A 
HETATM   27  C   UNL     1       8.160  25.422  57.707  1.00  0.00     0.019 A 
HETATM   28  C   UNL     1       6.776  25.436  57.439  1.00  0.00     0.019 A 
HETATM   29  C   UNL     1       6.556  24.552  56.406  1.00  0.00     0.096 A 
ENDBRANCH  20  25
ENDBRANCH   2  19
TORSDOF 5
ENDMDL
MODEL 4
REMARK VINA RESULT:      -8.7      3.810      7.411
REMARK  5 active torsions:
REMARK  status: ('A' for Active; 'I' for Inactive)
REMARK    1  A    between atoms: O_2  and  C_3 
REMARK    2  A    between atoms: C_4  and  N_5 
REMARK       I    between atoms: N_5  and  C_6 
REMARK       I    between atoms: C_6  and  N_7 
REMARK    3  A    between atoms: N_7  and  N_8 
REMARK       I    between atoms: N_8  and  C_9 
REMARK    4  A    between atoms: C_9  and  C_10 
REMARK    5  A    between atoms: C_11  and  N_12 
ROOT
HETATM    1  N   UNL     1       6.696  29.832  55.478  1.00  0.00    -0.262 N 
HETATM    2  C   UNL     1       6.981  29.482  56.787  1.00  0.00     0.272 C 
HETATM    3  O   UNL     1       6.208  28.865  57.512  1.00  0.00    -0.266 OA
HETATM    4  H   UNL     1       7.416  30.198  54.859  1.00  0.00     0.190 HD
ENDROOT
BRANCH   1   5
HETATM    5  N   UNL     1       5.624  29.175  54.847  1.00  0.00    -0.249 N 
HETATM    6  C   UNL     1       5.697  27.830  54.552  1.00  0.00     0.339 C 
HETATM    7  N   UNL     1       6.962  27.407  54.235  1.00  0.00    -0.305 N 
HETATM    8  O   UNL     1       4.679  27.146  54.571  1.00  0.00    -0.245 OA
HETATM    9  H   UNL     1       7.582  28.137  53.901  1.00  0.00     0.171 HD
HETATM   10  H   UNL     1       4.695  29.521  55.071  1.00  0.00     0.192 HD
BRANCH   7  11
HETATM   11  C   UNL     1       7.359  26.085  53.955  1.00  0.00     0.069 A 
HETATM   12  C   UNL     1       7.480  25.187  55.029  1.00  0.00     0.095 A 
HETATM   13  C   UNL     1       7.809  23.847  54.799  1.00  0.00     0.039 A 
HETATM   14  C   UNL     1       8.054  23.406  53.499  1.00  0.00     0.003 A 
HETATM   15  C   UNL     1       7.964  24.300  52.432  1.00  0.00     0.002 A 
HETATM   16  C   UNL     1       7.616  25.634  52.659  1.00  0.00     0.032 A 
BRANCH  12  17
HETATM   17  O   UNL     1       7.252  25.668  56.296  1.00  0.00    -0.354 OA
HETATM   18  C   UNL     1       8.412  25.579  57.125  1.00  0.00     0.210 C 
ENDBRANCH  12  17
ENDBRANCH   7  11
ENDBRANCH   1   5
BRANCH   2  19
HETATM   19  C   UNL     1       8.367  29.771  57.258  1.00  0.00     0.060 A 
HETATM   20  C   UNL     1       8.736  30.703  58.246  1.00  0.00     0.054 A 
HETATM   21  C   UNL     1      10.099  31.021  58.411  1.00  0.00     0.031 A 
HETATM   22  C   UNL     1      11.081  30.391  57.644  1.00  0.00     0.002 A 
HETATM   23  C   UNL     1      10.719  29.436  56.701  1.00  0.00     0.001 A 
HETATM   24  C   UNL     1       9.373  29.131  56.508  1.00  0.00     0.019 A 
BRANCH  20  25
HETATM   25  N   UNL     1       7.803  31.302  59.138  1.00  0.00    -0.332 N 
HETATM   26  C   UNL     1       7.832  31.269  60.517  1.00  0.00     0.096 A 
HETATM   27  C   UNL     1       6.750  31.965  61.008  1.00  0.00     0.019 A 
HETATM   28  C   UNL     1       6.035  32.465  59.901  1.00  0.00     0.019 A 
HETATM   29  C   UNL     1       6.712  32.068  58.769  1.00  0.00     0.096 A 
ENDBRANCH  20  25
ENDBRANCH   2  19
TORSDOF 5
ENDMDL
MODEL 5
REMARK VINA RESULT:      -8.7      2.297      7.701
REMARK  5 active torsions:
REMARK  status: ('A' for Active; 'I' for Inactive)
REMARK    1  A    between atoms: O_2  and  C_3 
REMARK    2  A    between atoms: C_4  and  N_5 
REMARK       I    between atoms: N_5  and  C_6 
REMARK       I    between atoms: C_6  and  N_7 
REMARK    3  A    between atoms: N_7  and  N_8 
REMARK       I    between atoms: N_8  and  C_9 
REMARK    4  A    between atoms: C_9  and  C_10 
REMARK    5  A    between atoms: C_11  and  N_12 
ROOT
HETATM    1  N   UNL     1       4.928  30.278  58.193  1.00  0.00    -0.262 N 
HETATM    2  C   UNL     1       5.581  29.772  57.082  1.00  0.00     0.272 C 
HETATM    3  O   UNL     1       5.784  30.415  56.057  1.00  0.00    -0.266 OA
HETATM    4  H   UNL     1       4.919  29.775  59.078  1.00  0.00     0.190 HD
ENDROOT
BRANCH   1   5
HETATM    5  N   UNL     1       4.783  31.675  58.282  1.00  0.00    -0.249 N 
HETATM    6  C   UNL     1       5.428  32.388  59.269  1.00  0.00     0.339 C 
HETATM    7  N   UNL     1       5.562  31.697  60.446  1.00  0.00    -0.305 N 
HETATM    8  O   UNL     1       5.800  33.536  59.047  1.00  0.00    -0.245 OA
HETATM    9  H   UNL     1       4.889  30.950  60.578  1.00  0.00     0.171 HD
HETATM   10  H   UNL     1       4.654  32.168  57.403  1.00  0.00     0.192 HD
BRANCH   7  11
HETATM   11  C   UNL     1       6.232  32.135  61.605  1.00  0.00     0.069 A 
HETATM   12  C   UNL     1       5.461  32.467  62.732  1.00  0.00     0.095 A 
HETATM   13  C   UNL     1       6.079  32.847  63.928  1.00  0.00     0.039 A 
HETATM   14  C   UNL     1       7.470  32.932  63.993  1.00  0.00     0.003 A 
HETATM   15  C   UNL     1       8.239  32.632  62.869  1.00  0.00     0.002 A 
HETATM   16  C   UNL     1       7.623  32.233  61.680  1.00  0.00     0.032 A 
BRANCH  12  17
HETATM   17  O   UNL     1       4.094  32.392  62.617  1.00  0.00    -0.354 OA
HETATM   18  C   UNL     1       3.474  33.679  62.667  1.00  0.00     0.210 C 
ENDBRANCH  12  17
ENDBRANCH   7  11
ENDBRANCH   1   5
BRANCH   2  19
HETATM   19  C   UNL     1       6.173  28.411  57.231  1.00  0.00     0.060 A 
HETATM   20  C   UNL     1       7.535  28.108  57.416  1.00  0.00     0.054 A 
HETATM   21  C   UNL     1       7.959  26.768  57.309  1.00  0.00     0.031 A 
HETATM   22  C   UNL     1       7.041  25.743  57.070  1.00  0.00     0.002 A 
HETATM   23  C   UNL     1       5.690  26.037  56.934  1.00  0.00     0.001 A 
HETATM   24  C   UNL     1       5.260  27.361  57.011  1.00  0.00     0.019 A 
BRANCH  20  25
HETATM   25  N   UNL     1       8.507  29.084  57.770  1.00  0.00    -0.332 N 
HETATM   26  C   UNL     1       9.658  29.401  57.077  1.00  0.00     0.096 A 
HETATM   27  C   UNL     1      10.332  30.396  57.752  1.00  0.00     0.019 A 
HETATM   28  C   UNL     1       9.568  30.722  58.890  1.00  0.00     0.019 A 
HETATM   29  C   UNL     1       8.445  29.925  58.866  1.00  0.00     0.096 A 
ENDBRANCH  20  25
ENDBRANCH   2  19
TORSDOF 5
ENDMDL
MODEL 6
REMARK VINA RESULT:      -8.6      3.626      9.053
REMARK  5 active torsions:
REMARK  status: ('A' for Active; 'I' for Inactive)
REMARK    1  A    between atoms: O_2  and  C_3 
REMARK    2  A    between atoms: C_4  and  N_5 
REMARK       I    between atoms: N_5  and  C_6 
REMARK       I    between atoms: C_6  and  N_7 
REMARK    3  A    between atoms: N_7  and  N_8 
REMARK       I    between atoms: N_8  and  C_9 
REMARK    4  A    between atoms: C_9  and  C_10 
REMARK    5  A    between atoms: C_11  and  N_12 
ROOT
HETATM    1  N   UNL     1       9.310  28.486  57.078  1.00  0.00    -0.262 N 
HETATM    2  C   UNL     1       8.009  28.187  56.713  1.00  0.00     0.272 C 
HETATM    3  O   UNL     1       7.132  29.030  56.556  1.00  0.00    -0.266 OA
HETATM    4  H   UNL     1      10.046  27.784  57.042  1.00  0.00     0.190 HD
ENDROOT
BRANCH   1   5
HETATM    5  N   UNL     1       9.733  29.822  56.946  1.00  0.00    -0.249 N 
HETATM    6  C   UNL     1       9.722  30.675  58.029  1.00  0.00     0.339 C 
HETATM    7  N   UNL     1       8.702  30.426  58.912  1.00  0.00    -0.305 N 
HETATM    8  O   UNL     1      10.565  31.561  58.115  1.00  0.00    -0.245 OA
HETATM    9  H   UNL     1       7.907  29.939  58.514  1.00  0.00     0.171 HD
HETATM   10  H   UNL     1      10.468  29.993  56.266  1.00  0.00     0.192 HD
BRANCH   7  11
HETATM   11  C   UNL     1       8.474  31.083  60.137  1.00  0.00     0.069 A 
HETATM   12  C   UNL     1       7.551  32.141  60.161  1.00  0.00     0.095 A 
HETATM   13  C   UNL     1       7.240  32.785  61.363  1.00  0.00     0.039 A 
HETATM   14  C   UNL     1       7.878  32.398  62.541  1.00  0.00     0.003 A 
HETATM   15  C   UNL     1       8.817  31.367  62.519  1.00  0.00     0.002 A 
HETATM   16  C   UNL     1       9.112  30.710  61.321  1.00  0.00     0.032 A 
BRANCH  12  17
HETATM   17  O   UNL     1       6.963  32.505  58.973  1.00  0.00    -0.354 OA
HETATM   18  C   UNL     1       5.546  32.322  58.990  1.00  0.00     0.210 C 
ENDBRANCH  12  17
ENDBRANCH   7  11
ENDBRANCH   1   5
BRANCH   2  19
HETATM   19  C   UNL     1       7.735  26.762  56.367  1.00  0.00     0.060 A 
HETATM   20  C   UNL     1       6.818  26.297  55.407  1.00  0.00     0.054 A 
HETATM   21  C   UNL     1       6.511  24.921  55.363  1.00  0.00     0.031 A 
HETATM   22  C   UNL     1       7.139  24.019  56.225  1.00  0.00     0.002 A 
HETATM   23  C   UNL     1       8.081  24.473  57.141  1.00  0.00     0.001 A 
HETATM   24  C   UNL     1       8.374  25.834  57.213  1.00  0.00     0.019 A 
BRANCH  20  25
HETATM   25  N   UNL     1       6.222  27.139  54.428  1.00  0.00    -0.332 N 
HETATM   26  C   UNL     1       6.821  27.646  53.292  1.00  0.00     0.096 A 
HETATM   27  C   UNL     1       5.908  28.420  52.609  1.00  0.00     0.019 A 
HETATM   28  C   UNL     1       4.698  28.377  53.329  1.00  0.00     0.019 A 
HETATM   29  C   UNL     1       4.907  27.568  54.424  1.00  0.00     0.096 A 
ENDBRANCH  20  25
ENDBRANCH   2  19
TORSDOF 5
ENDMDL
MODEL 7
REMARK VINA RESULT:      -8.5      3.466      5.971
REMARK  5 active torsions:
REMARK  status: ('A' for Active; 'I' for Inactive)
REMARK    1  A    between atoms: O_2  and  C_3 
REMARK    2  A    between atoms: C_4  and  N_5 
REMARK       I    between atoms: N_5  and  C_6 
REMARK       I    between atoms: C_6  and  N_7 
REMARK    3  A    between atoms: N_7  and  N_8 
REMARK       I    between atoms: N_8  and  C_9 
REMARK    4  A    between atoms: C_9  and  C_10 
REMARK    5  A    between atoms: C_11  and  N_12 
ROOT
HETATM    1  N   UNL     1       9.531  30.115  58.793  1.00  0.00    -0.262 N 
HETATM    2  C   UNL     1       9.447  31.445  59.172  1.00  0.00     0.272 C 
HETATM    3  O   UNL     1       9.993  32.362  58.568  1.00  0.00    -0.266 OA
HETATM    4  H   UNL     1       8.939  29.405  59.218  1.00  0.00     0.190 HD
ENDROOT
BRANCH   1   5
HETATM    5  N   UNL     1       9.981  29.837  57.490  1.00  0.00    -0.249 N 
HETATM    6  C   UNL     1       9.194  29.125  56.610  1.00  0.00     0.339 C 
HETATM    7  N   UNL     1       8.414  28.176  57.218  1.00  0.00    -0.305 N 
HETATM    8  O   UNL     1       9.257  29.362  55.408  1.00  0.00    -0.245 OA
HETATM    9  H   UNL     1       8.755  27.860  58.120  1.00  0.00     0.171 HD
HETATM   10  H   UNL     1      10.583  30.537  57.065  1.00  0.00     0.192 HD
BRANCH   7  11
HETATM   11  C   UNL     1       7.464  27.344  56.593  1.00  0.00     0.069 A 
HETATM   12  C   UNL     1       7.654  25.954  56.657  1.00  0.00     0.095 A 
HETATM   13  C   UNL     1       6.708  25.082  56.109  1.00  0.00     0.039 A 
HETATM   14  C   UNL     1       5.585  25.596  55.461  1.00  0.00     0.003 A 
HETATM   15  C   UNL     1       5.405  26.976  55.369  1.00  0.00     0.002 A 
HETATM   16  C   UNL     1       6.340  27.847  55.935  1.00  0.00     0.032 A 
BRANCH  12  17
HETATM   17  O   UNL     1       8.786  25.490  57.284  1.00  0.00    -0.354 OA
HETATM   18  C   UNL     1       8.819  24.064  57.360  1.00  0.00     0.210 C 
ENDBRANCH  12  17
ENDBRANCH   7  11
ENDBRANCH   1   5
BRANCH   2  19
HETATM   19  C   UNL     1       8.520  31.749  60.300  1.00  0.00     0.060 A 
HETATM   20  C   UNL     1       7.172  32.135  60.193  1.00  0.00     0.054 A 
HETATM   21  C   UNL     1       6.502  32.608  61.340  1.00  0.00     0.031 A 
HETATM   22  C   UNL     1       7.145  32.651  62.579  1.00  0.00     0.002 A 
HETATM   23  C   UNL     1       8.462  32.226  62.694  1.00  0.00     0.001 A 
HETATM   24  C   UNL     1       9.146  31.781  61.563  1.00  0.00     0.019 A 
BRANCH  20  25
HETATM   25  N   UNL     1       6.421  32.015  58.990  1.00  0.00    -0.332 N 
HETATM   26  C   UNL     1       6.322  30.903  58.179  1.00  0.00     0.096 A 
HETATM   27  C   UNL     1       5.503  31.195  57.111  1.00  0.00     0.019 A 
HETATM   28  C   UNL     1       5.062  32.524  57.271  1.00  0.00     0.019 A 
HETATM   29  C   UNL     1       5.617  32.996  58.440  1.00  0.00     0.096 A 
ENDBRANCH  20  25
ENDBRANCH   2  19
TORSDOF 5
ENDMDL
MODEL 8
REMARK VINA RESULT:      -8.4      6.626     10.447
REMARK  5 active torsions:
REMARK  status: ('A' for Active; 'I' for Inactive)
REMARK    1  A    between atoms: O_2  and  C_3 
REMARK    2  A    between atoms: C_4  and  N_5 
REMARK       I    between atoms: N_5  and  C_6 
REMARK       I    between atoms: C_6  and  N_7 
REMARK    3  A    between atoms: N_7  and  N_8 
REMARK       I    between atoms: N_8  and  C_9 
REMARK    4  A    between atoms: C_9  and  C_10 
REMARK    5  A    between atoms: C_11  and  N_12 
ROOT
HETATM    1  N   UNL     1       4.926  26.713  54.485  1.00  0.00    -0.262 N 
HETATM    2  C   UNL     1       6.297  26.847  54.627  1.00  0.00     0.272 C 
HETATM    3  O   UNL     1       6.947  27.765  54.136  1.00  0.00    -0.266 OA
HETATM    4  H   UNL     1       4.400  26.036  55.035  1.00  0.00     0.190 HD
ENDROOT
BRANCH   1   5
HETATM    5  N   UNL     1       4.203  27.837  54.046  1.00  0.00    -0.249 N 
HETATM    6  C   UNL     1       3.952  28.033  52.704  1.00  0.00     0.339 C 
HETATM    7  N   UNL     1       4.954  27.575  51.888  1.00  0.00    -0.305 N 
HETATM    8  O   UNL     1       2.918  28.590  52.353  1.00  0.00    -0.245 OA
HETATM    9  H   UNL     1       5.863  27.502  52.331  1.00  0.00     0.171 HD
HETATM   10  H   UNL     1       3.485  28.181  54.677  1.00  0.00     0.192 HD
BRANCH   7  11
HETATM   11  C   UNL     1       4.954  27.574  50.479  1.00  0.00     0.069 A 
HETATM   12  C   UNL     1       5.493  28.688  49.814  1.00  0.00     0.095 A 
HETATM   13  C   UNL     1       5.575  28.710  48.418  1.00  0.00     0.039 A 
HETATM   14  C   UNL     1       5.085  27.635  47.678  1.00  0.00     0.003 A 
HETATM   15  C   UNL     1       4.522  26.539  48.331  1.00  0.00     0.002 A 
HETATM   16  C   UNL     1       4.459  26.507  49.726  1.00  0.00     0.032 A 
BRANCH  12  17
HETATM   17  O   UNL     1       5.942  29.736  50.581  1.00  0.00    -0.354 OA
HETATM   18  C   UNL     1       5.439  30.994  50.129  1.00  0.00     0.210 C 
ENDBRANCH  12  17
ENDBRANCH   7  11
ENDBRANCH   1   5
BRANCH   2  19
HETATM   19  C   UNL     1       6.960  25.879  55.546  1.00  0.00     0.060 A 
HETATM   20  C   UNL     1       7.829  26.195  56.607  1.00  0.00     0.054 A 
HETATM   21  C   UNL     1       8.551  25.158  57.233  1.00  0.00     0.031 A 
HETATM   22  C   UNL     1       8.378  23.828  56.844  1.00  0.00     0.002 A 
HETATM   23  C   UNL     1       7.485  23.511  55.828  1.00  0.00     0.001 A 
HETATM   24  C   UNL     1       6.784  24.529  55.182  1.00  0.00     0.019 A 
BRANCH  20  25
HETATM   25  N   UNL     1       7.973  27.511  57.129  1.00  0.00    -0.332 N 
HETATM   26  C   UNL     1       7.036  28.229  57.843  1.00  0.00     0.096 A 
HETATM   27  C   UNL     1       7.561  29.462  58.163  1.00  0.00     0.019 A 
HETATM   28  C   UNL     1       8.872  29.506  57.649  1.00  0.00     0.019 A 
HETATM   29  C   UNL     1       9.110  28.292  57.043  1.00  0.00     0.096 A 
ENDBRANCH  20  25
ENDBRANCH   2  19
TORSDOF 5
ENDMDL
MODEL 9
REMARK VINA RESULT:      -8.4      6.327      9.278
REMARK  5 active torsions:
REMARK  status: ('A' for Active; 'I' for Inactive)
REMARK    1  A    between atoms: O_2  and  C_3 
REMARK    2  A    between atoms: C_4  and  N_5 
REMARK       I    between atoms: N_5  and  C_6 
REMARK       I    between atoms: C_6  and  N_7 
REMARK    3  A    between atoms: N_7  and  N_8 
REMARK       I    between atoms: N_8  and  C_9 
REMARK    4  A    between atoms: C_9  and  C_10 
REMARK    5  A    between atoms: C_11  and  N_12 
ROOT
HETATM    1  N   UNL     1       6.664  27.353  53.636  1.00  0.00    -0.262 N 
HETATM    2  C   UNL     1       5.896  27.899  54.651  1.00  0.00     0.272 C 
HETATM    3  O   UNL     1       4.670  27.923  54.641  1.00  0.00    -0.266 OA
HETATM    4  H   UNL     1       7.665  27.205  53.749  1.00  0.00     0.190 HD
ENDROOT
BRANCH   1   5
HETATM    5  N   UNL     1       6.021  26.502  52.718  1.00  0.00    -0.249 N 
HETATM    6  C   UNL     1       6.042  25.135  52.890  1.00  0.00     0.339 C 
HETATM    7  N   UNL     1       7.199  24.674  53.465  1.00  0.00    -0.305 N 
HETATM    8  O   UNL     1       5.088  24.459  52.519  1.00  0.00    -0.245 OA
HETATM    9  H   UNL     1       8.000  25.285  53.354  1.00  0.00     0.171 HD
HETATM   10  H   UNL     1       5.182  26.872  52.279  1.00  0.00     0.192 HD
BRANCH   7  11
HETATM   11  C   UNL     1       7.483  23.342  53.825  1.00  0.00     0.069 A 
HETATM   12  C   UNL     1       7.470  23.005  55.188  1.00  0.00     0.095 A 
HETATM   13  C   UNL     1       7.683  21.684  55.595  1.00  0.00     0.039 A 
HETATM   14  C   UNL     1       7.947  20.699  54.643  1.00  0.00     0.003 A 
HETATM   15  C   UNL     1       7.990  21.033  53.290  1.00  0.00     0.002 A 
HETATM   16  C   UNL     1       7.757  22.349  52.882  1.00  0.00     0.032 A 
BRANCH  12  17
HETATM   17  O   UNL     1       7.230  24.010  56.094  1.00  0.00    -0.354 OA
HETATM   18  C   UNL     1       8.268  24.119  57.071  1.00  0.00     0.210 C 
ENDBRANCH  12  17
ENDBRANCH   7  11
ENDBRANCH   1   5
BRANCH   2  19
HETATM   19  C   UNL     1       6.636  28.348  55.866  1.00  0.00     0.060 A 
HETATM   20  C   UNL     1       6.381  29.509  56.617  1.00  0.00     0.054 A 
HETATM   21  C   UNL     1       7.313  29.909  57.597  1.00  0.00     0.031 A 
HETATM   22  C   UNL     1       8.452  29.144  57.857  1.00  0.00     0.002 A 
HETATM   23  C   UNL     1       8.680  27.972  57.147  1.00  0.00     0.001 A 
HETATM   24  C   UNL     1       7.780  27.578  56.157  1.00  0.00     0.019 A 
BRANCH  20  25
HETATM   25  N   UNL     1       5.190  30.276  56.483  1.00  0.00    -0.332 N 
HETATM   26  C   UNL     1       4.022  30.130  57.203  1.00  0.00     0.096 A 
HETATM   27  C   UNL     1       3.106  31.064  56.769  1.00  0.00     0.019 A 
HETATM   28  C   UNL     1       3.729  31.829  55.763  1.00  0.00     0.019 A 
HETATM   29  C   UNL     1       5.012  31.345  55.624  1.00  0.00     0.096 A 
ENDBRANCH  20  25
ENDBRANCH   2  19
TORSDOF 5
ENDMDL
MODEL 10
REMARK VINA RESULT:      -8.2      2.410      7.671
REMARK  5 active torsions:
REMARK  status: ('A' for Active; 'I' for Inactive)
REMARK    1  A    between atoms: O_2  and  C_3 
REMARK    2  A    between atoms: C_4  and  N_5 
REMARK       I    between atoms: N_5  and  C_6 
REMARK       I    between atoms: C_6  and  N_7 
REMARK    3  A    between atoms: N_7  and  N_8 
REMARK       I    between atoms: N_8  and  C_9 
REMARK    4  A    between atoms: C_9  and  C_10 
REMARK    5  A    between atoms: C_11  and  N_12 
ROOT
HETATM    1  N   UNL     1       6.706  31.228  60.113  1.00  0.00    -0.262 N 
HETATM    2  C   UNL     1       7.122  31.625  58.853  1.00  0.00     0.272 C 
HETATM    3  O   UNL     1       8.264  31.991  58.594  1.00  0.00    -0.266 OA
HETATM    4  H   UNL     1       5.804  30.781  60.257  1.00  0.00     0.190 HD
ENDROOT
BRANCH   1   5
HETATM    5  N   UNL     1       7.701  30.917  61.058  1.00  0.00    -0.249 N 
HETATM    6  C   UNL     1       7.548  31.268  62.383  1.00  0.00     0.339 C 
HETATM    7  N   UNL     1       6.858  32.439  62.563  1.00  0.00    -0.305 N 
HETATM    8  O   UNL     1       8.029  30.558  63.260  1.00  0.00    -0.245 OA
HETATM    9  H   UNL     1       6.873  33.067  61.766  1.00  0.00     0.171 HD
HETATM   10  H   UNL     1       8.222  30.061  60.893  1.00  0.00     0.192 HD
BRANCH   7  11
HETATM   11  C   UNL     1       6.489  33.015  63.795  1.00  0.00     0.069 A 
HETATM   12  C   UNL     1       5.121  33.134  64.089  1.00  0.00     0.095 A 
HETATM   13  C   UNL     1       4.702  33.640  65.324  1.00  0.00     0.039 A 
HETATM   14  C   UNL     1       5.649  34.062  66.257  1.00  0.00     0.003 A 
HETATM   15  C   UNL     1       7.008  33.973  65.960  1.00  0.00     0.002 A 
HETATM   16  C   UNL     1       7.427  33.449  64.734  1.00  0.00     0.032 A 
BRANCH  12  17
HETATM   17  O   UNL     1       4.222  32.729  63.131  1.00  0.00    -0.354 OA
HETATM   18  C   UNL     1       3.263  33.742  62.824  1.00  0.00     0.210 C 
ENDBRANCH  12  17
ENDBRANCH   7  11
ENDBRANCH   1   5
BRANCH   2  19
HETATM   19  C   UNL     1       6.132  31.453  57.750  1.00  0.00     0.060 A 
HETATM   20  C   UNL     1       6.108  30.412  56.804  1.00  0.00     0.054 A 
HETATM   21  C   UNL     1       5.249  30.518  55.691  1.00  0.00     0.031 A 
HETATM   22  C   UNL     1       4.396  31.614  55.546  1.00  0.00     0.002 A 
HETATM   23  C   UNL     1       4.386  32.619  56.505  1.00  0.00     0.001 A 
HETATM   24  C   UNL     1       5.249  32.541  57.597  1.00  0.00     0.019 A 
BRANCH  20  25
HETATM   25  N   UNL     1       6.868  29.217  56.943  1.00  0.00    -0.332 N 
HETATM   26  C   UNL     1       8.204  29.041  56.648  1.00  0.00     0.096 A 
HETATM   27  C   UNL     1       8.558  27.738  56.918  1.00  0.00     0.019 A 
HETATM   28  C   UNL     1       7.413  27.085  57.415  1.00  0.00     0.019 A 
HETATM   29  C   UNL     1       6.398  28.017  57.446  1.00  0.00     0.096 A 
ENDBRANCH  20  25
ENDBRANCH   2  19
TORSDOF 5
ENDMDL
