MODEL 1
REMARK VINA RESULT:      -8.1      0.000      0.000
REMARK  6 active torsions:
REMARK  status: ('A' for Active; 'I' for Inactive)
REMARK    1  A    between atoms: C_2  and  C_3 
REMARK    2  A    between atoms: C_7  and  C_8 
REMARK       I    between atoms: C_8  and  N_9 
REMARK    3  A    between atoms: N_9  and  C_10 
REMARK    4  A    between atoms: C_11  and  O_12 
REMARK    5  A    between atoms: O_12  and  C_13 
REMARK    6  A    between atoms: C_13  and  C_14 
ROOT
HETATM    1  C   UNL     1       7.860  23.953  55.182  1.00  0.00     0.068 A 
HETATM    2  C   UNL     1       7.946  24.040  53.782  1.00  0.00     0.096 A 
HETATM    3  C   UNL     1       8.067  22.893  52.993  1.00  0.00     0.046 A 
HETATM    4  C   UNL     1       8.154  21.636  53.601  1.00  0.00    -0.059 A 
HETATM    5  C   UNL     1       8.247  20.391  52.769  1.00  0.00     0.048 C 
HETATM    6  C   UNL     1       8.084  21.549  54.997  1.00  0.00     0.009 A 
HETATM    7  C   UNL     1       7.938  22.698  55.783  1.00  0.00     0.033 A 
ENDROOT
BRANCH   1   8
HETATM    8  N   UNL     1       7.671  25.159  55.890  1.00  0.00    -0.319 N 
HETATM    9  C   UNL     1       6.482  25.744  56.273  1.00  0.00     0.274 C 
HETATM   10  O   UNL     1       5.377  25.224  56.175  1.00  0.00    -0.266 OA
HETATM   11  H   UNL     1       8.531  25.563  56.244  1.00  0.00     0.169 HD
BRANCH   9  12
HETATM   12  C   UNL     1       6.661  27.047  56.865  1.00  0.00     0.120 A 
HETATM   13  N   UNL     1       5.688  28.000  56.995  1.00  0.00    -0.273 N 
HETATM   14  N   UNL     1       6.110  29.141  57.559  1.00  0.00    -0.179 NA
HETATM   15  H   UNL     1       4.711  27.932  56.730  1.00  0.00     0.189 HD
HETATM   16  C   UNL     1       7.392  28.898  57.858  1.00  0.00     0.056 A 
HETATM   17  C   UNL     1       7.774  27.593  57.472  1.00  0.00     0.065 A 
BRANCH  16  18
HETATM   18  C   UNL     1       8.227  29.946  58.511  1.00  0.00     0.056 C 
HETATM   19  C   UNL     1       9.603  30.064  57.872  1.00  0.00     0.011 C 
ENDBRANCH  16  18
ENDBRANCH   9  12
ENDBRANCH   1   8
BRANCH   2  20
HETATM   20  O   UNL     1       7.860  25.291  53.216  1.00  0.00    -0.340 OA
BRANCH  20  21
HETATM   21  C   UNL     1       7.064  25.282  52.015  1.00  0.00     0.293 C 
BRANCH  21  22
HETATM   22  C   UNL     1       5.620  25.619  52.346  1.00  0.00     0.408 C 
HETATM   23  F   UNL     1       4.933  25.972  51.235  1.00  0.00    -0.169 F 
HETATM   24  F   UNL     1       4.993  24.554  52.893  1.00  0.00    -0.169 F 
HETATM   25  F   UNL     1       5.536  26.639  53.227  1.00  0.00    -0.169 F 
ENDBRANCH  21  22
ENDBRANCH  20  21
ENDBRANCH   2  20
TORSDOF 6
ENDMDL
MODEL 2
REMARK VINA RESULT:      -7.6      2.964      5.003
REMARK  6 active torsions:
REMARK  status: ('A' for Active; 'I' for Inactive)
REMARK    1  A    between atoms: C_2  and  C_3 
REMARK    2  A    between atoms: C_7  and  C_8 
REMARK       I    between atoms: C_8  and  N_9 
REMARK    3  A    between atoms: N_9  and  C_10 
REMARK    4  A    between atoms: C_11  and  O_12 
REMARK    5  A    between atoms: O_12  and  C_13 
REMARK    6  A    between atoms: C_13  and  C_14 
ROOT
HETATM    1  C   UNL     1       7.179  23.182  53.627  1.00  0.00     0.068 A 
HETATM    2  C   UNL     1       7.158  23.293  55.027  1.00  0.00     0.096 A 
HETATM    3  C   UNL     1       7.824  22.368  55.835  1.00  0.00     0.046 A 
HETATM    4  C   UNL     1       8.483  21.281  55.250  1.00  0.00    -0.059 A 
HETATM    5  C   UNL     1       9.235  20.298  56.098  1.00  0.00     0.048 C 
HETATM    6  C   UNL     1       8.491  21.160  53.855  1.00  0.00     0.009 A 
HETATM    7  C   UNL     1       7.844  22.103  53.048  1.00  0.00     0.033 A 
ENDROOT
BRANCH   1   8
HETATM    8  N   UNL     1       6.536  24.201  52.893  1.00  0.00    -0.319 N 
HETATM    9  C   UNL     1       7.111  25.275  52.243  1.00  0.00     0.274 C 
HETATM   10  O   UNL     1       8.314  25.439  52.083  1.00  0.00    -0.266 OA
HETATM   11  H   UNL     1       5.546  24.037  52.747  1.00  0.00     0.169 HD
BRANCH   9  12
HETATM   12  C   UNL     1       6.137  26.194  51.707  1.00  0.00     0.120 A 
HETATM   13  N   UNL     1       5.721  26.237  50.403  1.00  0.00    -0.273 N 
HETATM   14  N   UNL     1       4.824  27.200  50.147  1.00  0.00    -0.179 NA
HETATM   15  H   UNL     1       6.001  25.630  49.640  1.00  0.00     0.189 HD
HETATM   16  C   UNL     1       4.607  27.766  51.340  1.00  0.00     0.056 A 
HETATM   17  C   UNL     1       5.381  27.152  52.351  1.00  0.00     0.065 A 
BRANCH  16  18
HETATM   18  C   UNL     1       3.652  28.902  51.475  1.00  0.00     0.056 C 
HETATM   19  C   UNL     1       3.419  29.288  52.929  1.00  0.00     0.011 C 
ENDBRANCH  16  18
ENDBRANCH   9  12
ENDBRANCH   1   8
BRANCH   2  20
HETATM   20  O   UNL     1       6.499  24.371  55.570  1.00  0.00    -0.340 OA
BRANCH  20  21
HETATM   21  C   UNL     1       7.155  24.857  56.759  1.00  0.00     0.293 C 
BRANCH  21  22
HETATM   22  C   UNL     1       7.566  26.308  56.569  1.00  0.00     0.408 C 
HETATM   23  F   UNL     1       7.736  26.600  55.259  1.00  0.00    -0.169 F 
HETATM   24  F   UNL     1       6.619  27.142  57.054  1.00  0.00    -0.169 F 
HETATM   25  F   UNL     1       8.722  26.586  57.208  1.00  0.00    -0.169 F 
ENDBRANCH  21  22
ENDBRANCH  20  21
ENDBRANCH   2  20
TORSDOF 6
ENDMDL
MODEL 3
REMARK VINA RESULT:      -7.5      7.759     11.444
REMARK  6 active torsions:
REMARK  status: ('A' for Active; 'I' for Inactive)
REMARK    1  A    between atoms: C_2  and  C_3 
REMARK    2  A    between atoms: C_7  and  C_8 
REMARK       I    between atoms: C_8  and  N_9 
REMARK    3  A    between atoms: N_9  and  C_10 
REMARK    4  A    between atoms: C_11  and  O_12 
REMARK    5  A    between atoms: O_12  and  C_13 
REMARK    6  A    between atoms: C_13  and  C_14 
ROOT
HETATM    1  C   UNL     1       6.942  32.911  63.394  1.00  0.00     0.068 A 
HETATM    2  C   UNL     1       5.541  32.853  63.479  1.00  0.00     0.096 A 
HETATM    3  C   UNL     1       4.867  33.309  64.614  1.00  0.00     0.046 A 
HETATM    4  C   UNL     1       5.594  33.785  65.711  1.00  0.00    -0.059 A 
HETATM    5  C   UNL     1       4.888  34.313  66.924  1.00  0.00     0.048 C 
HETATM    6  C   UNL     1       6.992  33.828  65.634  1.00  0.00     0.009 A 
HETATM    7  C   UNL     1       7.663  33.394  64.484  1.00  0.00     0.033 A 
ENDROOT
BRANCH   1   8
HETATM    8  N   UNL     1       7.530  32.491  62.181  1.00  0.00    -0.319 N 
HETATM    9  C   UNL     1       8.316  31.381  61.955  1.00  0.00     0.274 C 
HETATM   10  O   UNL     1       8.520  30.485  62.766  1.00  0.00    -0.266 OA
HETATM   11  H   UNL     1       7.228  33.027  61.374  1.00  0.00     0.169 HD
BRANCH   9  12
HETATM   12  C   UNL     1       8.857  31.337  60.618  1.00  0.00     0.120 A 
HETATM   13  N   UNL     1       9.612  32.319  60.036  1.00  0.00    -0.273 N 
HETATM   14  N   UNL     1       9.977  32.052  58.774  1.00  0.00    -0.179 NA
HETATM   15  H   UNL     1       9.924  33.191  60.449  1.00  0.00     0.189 HD
HETATM   16  C   UNL     1       9.488  30.827  58.547  1.00  0.00     0.056 A 
HETATM   17  C   UNL     1       8.807  30.326  59.681  1.00  0.00     0.065 A 
BRANCH  16  18
HETATM   18  C   UNL     1       9.687  30.166  57.227  1.00  0.00     0.056 C 
HETATM   19  C   UNL     1      11.125  29.710  57.023  1.00  0.00     0.011 C 
ENDBRANCH  16  18
ENDBRANCH   9  12
ENDBRANCH   1   8
BRANCH   2  20
HETATM   20  O   UNL     1       4.856  32.376  62.385  1.00  0.00    -0.340 OA
BRANCH  20  21
HETATM   21  C   UNL     1       3.870  33.319  61.918  1.00  0.00     0.293 C 
BRANCH  21  22
HETATM   22  C   UNL     1       4.467  34.203  60.836  1.00  0.00     0.408 C 
HETATM   23  F   UNL     1       5.362  33.521  60.086  1.00  0.00    -0.169 F 
HETATM   24  F   UNL     1       3.502  34.660  60.005  1.00  0.00    -0.169 F 
HETATM   25  F   UNL     1       5.097  35.276  61.360  1.00  0.00    -0.169 F 
ENDBRANCH  21  22
ENDBRANCH  20  21
ENDBRANCH   2  20
TORSDOF 6
ENDMDL
MODEL 4
REMARK VINA RESULT:      -7.5      3.231      5.299
REMARK  6 active torsions:
REMARK  status: ('A' for Active; 'I' for Inactive)
REMARK    1  A    between atoms: C_2  and  C_3 
REMARK    2  A    between atoms: C_7  and  C_8 
REMARK       I    between atoms: C_8  and  N_9 
REMARK    3  A    between atoms: N_9  and  C_10 
REMARK    4  A    between atoms: C_11  and  O_12 
REMARK    5  A    between atoms: O_12  and  C_13 
REMARK    6  A    between atoms: C_13  and  C_14 
ROOT
HETATM    1  C   UNL     1       7.181  23.655  53.514  1.00  0.00     0.068 A 
HETATM    2  C   UNL     1       7.441  24.002  54.850  1.00  0.00     0.096 A 
HETATM    3  C   UNL     1       7.990  23.079  55.743  1.00  0.00     0.046 A 
HETATM    4  C   UNL     1       8.242  21.769  55.321  1.00  0.00    -0.059 A 
HETATM    5  C   UNL     1       8.867  20.773  56.254  1.00  0.00     0.048 C 
HETATM    6  C   UNL     1       7.970  21.416  53.993  1.00  0.00     0.009 A 
HETATM    7  C   UNL     1       7.442  22.353  53.095  1.00  0.00     0.033 A 
ENDROOT
BRANCH   1   8
HETATM    8  N   UNL     1       6.690  24.674  52.670  1.00  0.00    -0.319 N 
HETATM    9  C   UNL     1       5.378  25.040  52.451  1.00  0.00     0.274 C 
HETATM   10  O   UNL     1       4.414  24.615  53.078  1.00  0.00    -0.266 OA
HETATM   11  H   UNL     1       7.415  25.264  52.278  1.00  0.00     0.169 HD
BRANCH   9  12
HETATM   12  C   UNL     1       5.236  26.037  51.418  1.00  0.00     0.120 A 
HETATM   13  N   UNL     1       4.517  25.885  50.263  1.00  0.00    -0.273 N 
HETATM   14  N   UNL     1       4.559  26.950  49.449  1.00  0.00    -0.179 NA
HETATM   15  H   UNL     1       3.965  25.085  49.974  1.00  0.00     0.189 HD
HETATM   16  C   UNL     1       5.286  27.847  50.126  1.00  0.00     0.056 A 
HETATM   17  C   UNL     1       5.706  27.334  51.375  1.00  0.00     0.065 A 
BRANCH  16  18
HETATM   18  C   UNL     1       5.566  29.189  49.542  1.00  0.00     0.056 C 
HETATM   19  C   UNL     1       4.880  29.385  48.198  1.00  0.00     0.011 C 
ENDBRANCH  16  18
ENDBRANCH   9  12
ENDBRANCH   1   8
BRANCH   2  20
HETATM   20  O   UNL     1       7.178  25.298  55.234  1.00  0.00    -0.340 OA
BRANCH  20  21
HETATM   21  C   UNL     1       6.727  25.370  56.601  1.00  0.00     0.293 C 
BRANCH  21  22
HETATM   22  C   UNL     1       5.493  26.252  56.695  1.00  0.00     0.408 C 
HETATM   23  F   UNL     1       5.050  26.606  55.466  1.00  0.00    -0.169 F 
HETATM   24  F   UNL     1       4.485  25.602  57.321  1.00  0.00    -0.169 F 
HETATM   25  F   UNL     1       5.741  27.385  57.388  1.00  0.00    -0.169 F 
ENDBRANCH  21  22
ENDBRANCH  20  21
ENDBRANCH   2  20
TORSDOF 6
ENDMDL
MODEL 5
REMARK VINA RESULT:      -7.3      6.257     10.729
REMARK  6 active torsions:
REMARK  status: ('A' for Active; 'I' for Inactive)
REMARK    1  A    between atoms: C_2  and  C_3 
REMARK    2  A    between atoms: C_7  and  C_8 
REMARK       I    between atoms: C_8  and  N_9 
REMARK    3  A    between atoms: N_9  and  C_10 
REMARK    4  A    between atoms: C_11  and  O_12 
REMARK    5  A    between atoms: O_12  and  C_13 
REMARK    6  A    between atoms: C_13  and  C_14 
ROOT
HETATM    1  C   UNL     1       6.775  32.129  62.867  1.00  0.00     0.068 A 
HETATM    2  C   UNL     1       5.440  32.295  63.273  1.00  0.00     0.096 A 
HETATM    3  C   UNL     1       5.116  33.064  64.393  1.00  0.00     0.046 A 
HETATM    4  C   UNL     1       6.135  33.639  65.160  1.00  0.00    -0.059 A 
HETATM    5  C   UNL     1       5.806  34.498  66.346  1.00  0.00     0.048 C 
HETATM    6  C   UNL     1       7.467  33.460  64.767  1.00  0.00     0.009 A 
HETATM    7  C   UNL     1       7.786  32.710  63.628  1.00  0.00     0.033 A 
ENDROOT
BRANCH   1   8
HETATM    8  N   UNL     1       6.999  31.393  61.684  1.00  0.00    -0.319 N 
HETATM    9  C   UNL     1       7.661  31.797  60.542  1.00  0.00     0.274 C 
HETATM   10  O   UNL     1       8.294  32.839  60.426  1.00  0.00    -0.266 OA
HETATM   11  H   UNL     1       6.730  30.418  61.752  1.00  0.00     0.169 HD
BRANCH   9  12
HETATM   12  C   UNL     1       7.583  30.829  59.475  1.00  0.00     0.120 A 
HETATM   13  N   UNL     1       6.499  30.631  58.662  1.00  0.00    -0.273 N 
HETATM   14  N   UNL     1       6.665  29.655  57.759  1.00  0.00    -0.179 NA
HETATM   15  H   UNL     1       5.620  31.137  58.663  1.00  0.00     0.189 HD
HETATM   16  C   UNL     1       7.923  29.242  57.955  1.00  0.00     0.056 A 
HETATM   17  C   UNL     1       8.547  29.966  58.996  1.00  0.00     0.065 A 
BRANCH  16  18
HETATM   18  C   UNL     1       8.495  28.142  57.128  1.00  0.00     0.056 C 
HETATM   19  C   UNL     1       7.784  26.817  57.364  1.00  0.00     0.011 C 
ENDBRANCH  16  18
ENDBRANCH   9  12
ENDBRANCH   1   8
BRANCH   2  20
HETATM   20  O   UNL     1       4.463  31.714  62.498  1.00  0.00    -0.340 OA
BRANCH  20  21
HETATM   21  C   UNL     1       3.536  32.691  61.983  1.00  0.00     0.293 C 
BRANCH  21  22
HETATM   22  C   UNL     1       3.684  32.803  60.475  1.00  0.00     0.408 C 
HETATM   23  F   UNL     1       2.672  33.522  59.936  1.00  0.00    -0.169 F 
HETATM   24  F   UNL     1       4.842  33.424  60.153  1.00  0.00    -0.169 F 
HETATM   25  F   UNL     1       3.692  31.590  59.883  1.00  0.00    -0.169 F 
ENDBRANCH  21  22
ENDBRANCH  20  21
ENDBRANCH   2  20
TORSDOF 6
ENDMDL
MODEL 6
REMARK VINA RESULT:      -7.1      3.039      7.055
REMARK  6 active torsions:
REMARK  status: ('A' for Active; 'I' for Inactive)
REMARK    1  A    between atoms: C_2  and  C_3 
REMARK    2  A    between atoms: C_7  and  C_8 
REMARK       I    between atoms: C_8  and  N_9 
REMARK    3  A    between atoms: N_9  and  C_10 
REMARK    4  A    between atoms: C_11  and  O_12 
REMARK    5  A    between atoms: O_12  and  C_13 
REMARK    6  A    between atoms: C_13  and  C_14 
ROOT
HETATM    1  C   UNL     1       5.210  27.567  55.131  1.00  0.00     0.068 A 
HETATM    2  C   UNL     1       5.386  28.231  56.357  1.00  0.00     0.096 A 
HETATM    3  C   UNL     1       4.745  29.444  56.620  1.00  0.00     0.046 A 
HETATM    4  C   UNL     1       3.953  30.041  55.633  1.00  0.00    -0.059 A 
HETATM    5  C   UNL     1       3.227  31.324  55.910  1.00  0.00     0.048 C 
HETATM    6  C   UNL     1       3.790  29.389  54.404  1.00  0.00     0.009 A 
HETATM    7  C   UNL     1       4.414  28.160  54.154  1.00  0.00     0.033 A 
ENDROOT
BRANCH   1   8
HETATM    8  N   UNL     1       5.843  26.315  54.982  1.00  0.00    -0.319 N 
HETATM    9  C   UNL     1       6.882  25.980  54.138  1.00  0.00     0.274 C 
HETATM   10  O   UNL     1       7.527  26.775  53.465  1.00  0.00    -0.266 OA
HETATM   11  H   UNL     1       5.556  25.628  55.670  1.00  0.00     0.169 HD
BRANCH   9  12
HETATM   12  C   UNL     1       7.188  24.570  54.153  1.00  0.00     0.120 A 
HETATM   13  N   UNL     1       7.105  23.753  55.248  1.00  0.00    -0.273 N 
HETATM   14  N   UNL     1       7.466  22.484  55.012  1.00  0.00    -0.179 NA
HETATM   15  H   UNL     1       6.797  23.996  56.184  1.00  0.00     0.189 HD
HETATM   16  C   UNL     1       7.740  22.464  53.702  1.00  0.00     0.056 A 
HETATM   17  C   UNL     1       7.551  23.736  53.116  1.00  0.00     0.065 A 
BRANCH  16  18
HETATM   18  C   UNL     1       8.188  21.205  53.043  1.00  0.00     0.056 C 
HETATM   19  C   UNL     1       8.626  20.152  54.051  1.00  0.00     0.011 C 
ENDBRANCH  16  18
ENDBRANCH   9  12
ENDBRANCH   1   8
BRANCH   2  20
HETATM   20  O   UNL     1       6.174  27.618  57.304  1.00  0.00    -0.340 OA
BRANCH  20  21
HETATM   21  C   UNL     1       7.250  28.474  57.740  1.00  0.00     0.293 C 
BRANCH  21  22
HETATM   22  C   UNL     1       8.519  28.145  56.971  1.00  0.00     0.408 C 
HETATM   23  F   UNL     1       8.453  28.603  55.700  1.00  0.00    -0.169 F 
HETATM   24  F   UNL     1       9.595  28.718  57.556  1.00  0.00    -0.169 F 
HETATM   25  F   UNL     1       8.741  26.814  56.921  1.00  0.00    -0.169 F 
ENDBRANCH  21  22
ENDBRANCH  20  21
ENDBRANCH   2  20
TORSDOF 6
ENDMDL
MODEL 7
REMARK VINA RESULT:      -7.1      2.003      6.141
REMARK  6 active torsions:
REMARK  status: ('A' for Active; 'I' for Inactive)
REMARK    1  A    between atoms: C_2  and  C_3 
REMARK    2  A    between atoms: C_7  and  C_8 
REMARK       I    between atoms: C_8  and  N_9 
REMARK    3  A    between atoms: N_9  and  C_10 
REMARK    4  A    between atoms: C_11  and  O_12 
REMARK    5  A    between atoms: O_12  and  C_13 
REMARK    6  A    between atoms: C_13  and  C_14 
ROOT
HETATM    1  C   UNL     1       6.695  26.194  56.481  1.00  0.00     0.068 A 
HETATM    2  C   UNL     1       5.729  26.679  55.584  1.00  0.00     0.096 A 
HETATM    3  C   UNL     1       5.324  28.016  55.611  1.00  0.00     0.046 A 
HETATM    4  C   UNL     1       5.847  28.881  56.577  1.00  0.00    -0.059 A 
HETATM    5  C   UNL     1       5.453  30.329  56.599  1.00  0.00     0.048 C 
HETATM    6  C   UNL     1       6.799  28.396  57.483  1.00  0.00     0.009 A 
HETATM    7  C   UNL     1       7.221  27.061  57.436  1.00  0.00     0.033 A 
ENDROOT
BRANCH   1   8
HETATM    8  N   UNL     1       7.091  24.848  56.333  1.00  0.00    -0.319 N 
HETATM    9  C   UNL     1       8.229  24.236  56.818  1.00  0.00     0.274 C 
HETATM   10  O   UNL     1       9.029  24.749  57.591  1.00  0.00    -0.266 OA
HETATM   11  H   UNL     1       6.381  24.257  55.913  1.00  0.00     0.169 HD
BRANCH   9  12
HETATM   12  C   UNL     1       8.375  22.876  56.360  1.00  0.00     0.120 A 
HETATM   13  N   UNL     1       8.408  21.768  57.163  1.00  0.00    -0.273 N 
HETATM   14  N   UNL     1       8.577  20.616  56.499  1.00  0.00    -0.179 NA
HETATM   15  H   UNL     1       8.308  21.727  58.172  1.00  0.00     0.189 HD
HETATM   16  C   UNL     1       8.597  20.984  55.212  1.00  0.00     0.056 A 
HETATM   17  C   UNL     1       8.444  22.382  55.073  1.00  0.00     0.065 A 
BRANCH  16  18
HETATM   18  C   UNL     1       8.773  19.966  54.138  1.00  0.00     0.056 C 
HETATM   19  C   UNL     1       8.283  20.466  52.787  1.00  0.00     0.011 C 
ENDBRANCH  16  18
ENDBRANCH   9  12
ENDBRANCH   1   8
BRANCH   2  20
HETATM   20  O   UNL     1       5.232  25.800  54.648  1.00  0.00    -0.340 OA
BRANCH  20  21
HETATM   21  C   UNL     1       5.546  26.216  53.304  1.00  0.00     0.293 C 
BRANCH  21  22
HETATM   22  C   UNL     1       5.766  24.998  52.421  1.00  0.00     0.408 C 
HETATM   23  F   UNL     1       6.492  25.315  51.324  1.00  0.00    -0.169 F 
HETATM   24  F   UNL     1       6.439  24.037  53.093  1.00  0.00    -0.169 F 
HETATM   25  F   UNL     1       4.597  24.465  52.006  1.00  0.00    -0.169 F 
ENDBRANCH  21  22
ENDBRANCH  20  21
ENDBRANCH   2  20
TORSDOF 6
ENDMDL
MODEL 8
REMARK VINA RESULT:      -7.1      2.447      6.779
REMARK  6 active torsions:
REMARK  status: ('A' for Active; 'I' for Inactive)
REMARK    1  A    between atoms: C_2  and  C_3 
REMARK    2  A    between atoms: C_7  and  C_8 
REMARK       I    between atoms: C_8  and  N_9 
REMARK    3  A    between atoms: N_9  and  C_10 
REMARK    4  A    between atoms: C_11  and  O_12 
REMARK    5  A    between atoms: O_12  and  C_13 
REMARK    6  A    between atoms: C_13  and  C_14 
ROOT
HETATM    1  C   UNL     1       8.396  28.405  57.109  1.00  0.00     0.068 A 
HETATM    2  C   UNL     1       7.409  29.072  57.854  1.00  0.00     0.096 A 
HETATM    3  C   UNL     1       7.705  30.236  58.568  1.00  0.00     0.046 A 
HETATM    4  C   UNL     1       9.016  30.725  58.588  1.00  0.00    -0.059 A 
HETATM    5  C   UNL     1       9.346  31.994  59.317  1.00  0.00     0.048 C 
HETATM    6  C   UNL     1      10.005  30.053  57.859  1.00  0.00     0.009 A 
HETATM    7  C   UNL     1       9.698  28.900  57.125  1.00  0.00     0.033 A 
ENDROOT
BRANCH   1   8
HETATM    8  N   UNL     1       7.988  27.277  56.367  1.00  0.00    -0.319 N 
HETATM    9  C   UNL     1       7.999  25.953  56.754  1.00  0.00     0.274 C 
HETATM   10  O   UNL     1       8.244  25.552  57.885  1.00  0.00    -0.266 OA
HETATM   11  H   UNL     1       7.531  27.508  55.491  1.00  0.00     0.169 HD
BRANCH   9  12
HETATM   12  C   UNL     1       7.636  25.052  55.687  1.00  0.00     0.120 A 
HETATM   13  N   UNL     1       6.654  25.275  54.760  1.00  0.00    -0.273 N 
HETATM   14  N   UNL     1       6.492  24.274  53.884  1.00  0.00    -0.179 NA
HETATM   15  H   UNL     1       6.065  26.096  54.663  1.00  0.00     0.189 HD
HETATM   16  C   UNL     1       7.441  23.393  54.219  1.00  0.00     0.056 A 
HETATM   17  C   UNL     1       8.202  23.848  55.320  1.00  0.00     0.065 A 
BRANCH  16  18
HETATM   18  C   UNL     1       7.589  22.117  53.464  1.00  0.00     0.056 C 
HETATM   19  C   UNL     1       9.000  21.554  53.556  1.00  0.00     0.011 C 
ENDBRANCH  16  18
ENDBRANCH   9  12
ENDBRANCH   1   8
BRANCH   2  20
HETATM   20  O   UNL     1       6.131  28.563  57.816  1.00  0.00    -0.340 OA
BRANCH  20  21
HETATM   21  C   UNL     1       5.206  29.485  57.206  1.00  0.00     0.293 C 
BRANCH  21  22
HETATM   22  C   UNL     1       4.805  28.984  55.828  1.00  0.00     0.408 C 
HETATM   23  F   UNL     1       3.647  29.550  55.420  1.00  0.00    -0.169 F 
HETATM   24  F   UNL     1       5.754  29.290  54.914  1.00  0.00    -0.169 F 
HETATM   25  F   UNL     1       4.641  27.644  55.813  1.00  0.00    -0.169 F 
ENDBRANCH  21  22
ENDBRANCH  20  21
ENDBRANCH   2  20
TORSDOF 6
ENDMDL
MODEL 9
REMARK VINA RESULT:      -7.1      2.181      2.643
REMARK  6 active torsions:
REMARK  status: ('A' for Active; 'I' for Inactive)
REMARK    1  A    between atoms: C_2  and  C_3 
REMARK    2  A    between atoms: C_7  and  C_8 
REMARK       I    between atoms: C_8  and  N_9 
REMARK    3  A    between atoms: N_9  and  C_10 
REMARK    4  A    between atoms: C_11  and  O_12 
REMARK    5  A    between atoms: O_12  and  C_13 
REMARK    6  A    between atoms: C_13  and  C_14 
ROOT
HETATM    1  C   UNL     1       6.808  24.986  54.963  1.00  0.00     0.068 A 
HETATM    2  C   UNL     1       7.303  24.853  53.655  1.00  0.00     0.096 A 
HETATM    3  C   UNL     1       7.844  23.645  53.207  1.00  0.00     0.046 A 
HETATM    4  C   UNL     1       7.946  22.561  54.084  1.00  0.00    -0.059 A 
HETATM    5  C   UNL     1       8.490  21.245  53.611  1.00  0.00     0.048 C 
HETATM    6  C   UNL     1       7.468  22.696  55.394  1.00  0.00     0.009 A 
HETATM    7  C   UNL     1       6.903  23.901  55.832  1.00  0.00     0.033 A 
ENDROOT
BRANCH   1   8
HETATM    8  N   UNL     1       6.218  26.222  55.304  1.00  0.00    -0.319 N 
HETATM    9  C   UNL     1       6.344  26.930  56.481  1.00  0.00     0.274 C 
HETATM   10  O   UNL     1       7.121  26.656  57.388  1.00  0.00    -0.266 OA
HETATM   11  H   UNL     1       5.741  26.673  54.532  1.00  0.00     0.169 HD
BRANCH   9  12
HETATM   12  C   UNL     1       5.490  28.091  56.534  1.00  0.00     0.120 A 
HETATM   13  N   UNL     1       5.201  28.813  57.661  1.00  0.00    -0.273 N 
HETATM   14  N   UNL     1       4.361  29.837  57.454  1.00  0.00    -0.179 NA
HETATM   15  H   UNL     1       5.555  28.668  58.600  1.00  0.00     0.189 HD
HETATM   16  C   UNL     1       4.140  29.813  56.134  1.00  0.00     0.056 A 
HETATM   17  C   UNL     1       4.847  28.759  55.512  1.00  0.00     0.065 A 
BRANCH  16  18
HETATM   18  C   UNL     1       3.236  30.814  55.501  1.00  0.00     0.056 C 
HETATM   19  C   UNL     1       3.179  32.116  56.288  1.00  0.00     0.011 C 
ENDBRANCH  16  18
ENDBRANCH   9  12
ENDBRANCH   1   8
BRANCH   2  20
HETATM   20  O   UNL     1       7.190  25.940  52.819  1.00  0.00    -0.340 OA
BRANCH  20  21
HETATM   21  C   UNL     1       6.642  25.574  51.537  1.00  0.00     0.293 C 
BRANCH  21  22
HETATM   22  C   UNL     1       5.124  25.619  51.589  1.00  0.00     0.408 C 
HETATM   23  F   UNL     1       4.692  26.577  52.440  1.00  0.00    -0.169 F 
HETATM   24  F   UNL     1       4.611  25.895  50.368  1.00  0.00    -0.169 F 
HETATM   25  F   UNL     1       4.604  24.440  51.993  1.00  0.00    -0.169 F 
ENDBRANCH  21  22
ENDBRANCH  20  21
ENDBRANCH   2  20
TORSDOF 6
ENDMDL
MODEL 10
REMARK VINA RESULT:      -7.0      2.501      3.531
REMARK  6 active torsions:
REMARK  status: ('A' for Active; 'I' for Inactive)
REMARK    1  A    between atoms: C_2  and  C_3 
REMARK    2  A    between atoms: C_7  and  C_8 
REMARK       I    between atoms: C_8  and  N_9 
REMARK    3  A    between atoms: N_9  and  C_10 
REMARK    4  A    between atoms: C_11  and  O_12 
REMARK    5  A    between atoms: O_12  and  C_13 
REMARK    6  A    between atoms: C_13  and  C_14 
ROOT
HETATM    1  C   UNL     1       7.498  26.071  57.022  1.00  0.00     0.068 A 
HETATM    2  C   UNL     1       6.657  25.652  55.977  1.00  0.00     0.096 A 
HETATM    3  C   UNL     1       6.729  24.354  55.467  1.00  0.00     0.046 A 
HETATM    4  C   UNL     1       7.686  23.463  55.965  1.00  0.00    -0.059 A 
HETATM    5  C   UNL     1       7.754  22.053  55.457  1.00  0.00     0.048 C 
HETATM    6  C   UNL     1       8.537  23.883  56.995  1.00  0.00     0.009 A 
HETATM    7  C   UNL     1       8.444  25.178  57.521  1.00  0.00     0.033 A 
ENDROOT
BRANCH   1   8
HETATM    8  N   UNL     1       7.306  27.378  57.517  1.00  0.00    -0.319 N 
HETATM    9  C   UNL     1       8.213  28.417  57.553  1.00  0.00     0.274 C 
HETATM   10  O   UNL     1       9.317  28.407  57.021  1.00  0.00    -0.266 OA
HETATM   11  H   UNL     1       6.344  27.583  57.765  1.00  0.00     0.169 HD
BRANCH   9  12
HETATM   12  C   UNL     1       7.715  29.575  58.254  1.00  0.00     0.120 A 
HETATM   13  N   UNL     1       8.120  29.986  59.495  1.00  0.00    -0.273 N 
HETATM   14  N   UNL     1       7.488  31.081  59.942  1.00  0.00    -0.179 NA
HETATM   15  H   UNL     1       8.832  29.571  60.086  1.00  0.00     0.189 HD
HETATM   16  C   UNL     1       6.683  31.426  58.930  1.00  0.00     0.056 A 
HETATM   17  C   UNL     1       6.812  30.533  57.841  1.00  0.00     0.065 A 
BRANCH  16  18
HETATM   18  C   UNL     1       5.796  32.618  59.043  1.00  0.00     0.056 C 
HETATM   19  C   UNL     1       4.332  32.232  59.191  1.00  0.00     0.011 C 
ENDBRANCH  16  18
ENDBRANCH   9  12
ENDBRANCH   1   8
BRANCH   2  20
HETATM   20  O   UNL     1       5.729  26.554  55.508  1.00  0.00    -0.340 OA
BRANCH  20  21
HETATM   21  C   UNL     1       5.877  26.787  54.093  1.00  0.00     0.293 C 
BRANCH  21  22
HETATM   22  C   UNL     1       6.740  28.016  53.857  1.00  0.00     0.408 C 
HETATM   23  F   UNL     1       6.481  28.571  52.650  1.00  0.00    -0.169 F 
HETATM   24  F   UNL     1       6.500  28.957  54.798  1.00  0.00    -0.169 F 
HETATM   25  F   UNL     1       8.056  27.718  53.903  1.00  0.00    -0.169 F 
ENDBRANCH  21  22
ENDBRANCH  20  21
ENDBRANCH   2  20
TORSDOF 6
ENDMDL
