MODEL 1
REMARK VINA RESULT:      -9.1      0.000      0.000
REMARK  8 active torsions:
REMARK  status: ('A' for Active; 'I' for Inactive)
REMARK    1  A    between atoms: C_4  and  N_5 
REMARK    2  A    between atoms: N_8  and  C_10 
REMARK    3  A    between atoms: C_10  and  C_11 
REMARK    4  A    between atoms: C_11  and  C_12 
REMARK       I    between atoms: C_12  and  N_13 
REMARK    5  A    between atoms: N_13  and  N_14 
REMARK    6  A    between atoms: N_14  and  C_15 
REMARK    7  A    between atoms: C_15  and  N_16 
REMARK    8  A    between atoms: N_16  and  C_17 
ROOT
HETATM    1  C   UNL     1       6.901  29.705  57.287  1.00  0.00     0.237 C 
HETATM    2  N   UNL     1       6.884  30.105  58.598  1.00  0.00    -0.268 N 
HETATM    3  O   UNL     1       5.895  29.768  56.585  1.00  0.00    -0.272 OA
HETATM    4  H   UNL     1       5.971  30.253  59.034  1.00  0.00     0.190 HD
ENDROOT
BRANCH   1   5
HETATM    5  C   UNL     1       8.222  29.273  56.696  1.00  0.00     0.132 C 
BRANCH   5   6
HETATM    6  C   UNL     1       7.952  28.499  55.420  1.00  0.00     0.244 C 
BRANCH   6   7
HETATM    7  N   UNL     1       7.079  27.283  55.669  1.00  0.00    -0.068 N 
HETATM    8  C   UNL     1       6.540  26.728  54.338  1.00  0.00     0.254 C 
HETATM    9  C   UNL     1       5.641  25.496  54.574  1.00  0.00     0.150 C 
HETATM   10  N   UNL     1       6.330  24.476  55.382  1.00  0.00    -0.378 N 
HETATM   11  C   UNL     1       6.824  24.976  56.680  1.00  0.00     0.150 C 
HETATM   12  C   UNL     1       7.778  26.173  56.469  1.00  0.00     0.254 C 
HETATM   13  H   UNL     1       6.259  27.584  56.213  1.00  0.00     0.280 HD
BRANCH  10  14
HETATM   14  C   UNL     1       7.060  23.450  54.777  1.00  0.00     0.030 A 
HETATM   15  C   UNL     1       7.358  23.416  53.406  1.00  0.00     0.029 A 
HETATM   16  C   UNL     1       8.092  22.366  52.836  1.00  0.00     0.002 A 
HETATM   17  C   UNL     1       8.532  21.309  53.623  1.00  0.00     0.000 A 
HETATM   18  C   UNL     1       8.228  21.298  54.977  1.00  0.00     0.002 A 
HETATM   19  C   UNL     1       7.498  22.352  55.539  1.00  0.00     0.029 A 
ENDBRANCH  10  14
ENDBRANCH   6   7
ENDBRANCH   5   6
ENDBRANCH   1   5
BRANCH   2  20
HETATM   20  N   UNL     1       7.994  29.953  59.443  1.00  0.00    -0.274 N 
HETATM   21  H   UNL     1       8.818  29.586  58.972  1.00  0.00     0.189 HD
BRANCH  20  22
HETATM   22  C   UNL     1       8.296  30.909  60.380  1.00  0.00     0.191 C 
HETATM   23  S   UNL     1       9.507  32.055  60.216  1.00  0.00    -0.039 SA
BRANCH  22  24
HETATM   24  N   UNL     1       7.467  31.028  61.462  1.00  0.00    -0.331 N 
HETATM   25  H   UNL     1       7.304  30.117  61.885  1.00  0.00     0.168 HD
BRANCH  24  26
HETATM   26  C   UNL     1       7.113  32.139  62.270  1.00  0.00     0.056 A 
HETATM   27  C   UNL     1       6.143  33.122  62.003  1.00  0.00     0.060 A 
HETATM   28 CL   UNL     1       5.016  33.032  60.692  1.00  0.00    -0.082 Cl
HETATM   29  C   UNL     1       5.957  34.196  62.886  1.00  0.00     0.026 A 
HETATM   30  C   UNL     1       6.703  34.287  64.058  1.00  0.00     0.002 A 
HETATM   31  C   UNL     1       7.617  33.289  64.368  1.00  0.00     0.002 A 
HETATM   32  C   UNL     1       7.809  32.218  63.489  1.00  0.00     0.031 A 
ENDBRANCH  24  26
ENDBRANCH  22  24
ENDBRANCH  20  22
ENDBRANCH   2  20
TORSDOF 8
ENDMDL
MODEL 2
REMARK VINA RESULT:      -8.9      1.904      2.184
REMARK  8 active torsions:
REMARK  status: ('A' for Active; 'I' for Inactive)
REMARK    1  A    between atoms: C_4  and  N_5 
REMARK    2  A    between atoms: N_8  and  C_10 
REMARK    3  A    between atoms: C_10  and  C_11 
REMARK    4  A    between atoms: C_11  and  C_12 
REMARK       I    between atoms: C_12  and  N_13 
REMARK    5  A    between atoms: N_13  and  N_14 
REMARK    6  A    between atoms: N_14  and  C_15 
REMARK    7  A    between atoms: C_15  and  N_16 
REMARK    8  A    between atoms: N_16  and  C_17 
ROOT
HETATM    1  C   UNL     1       9.600  29.390  57.442  1.00  0.00     0.237 C 
HETATM    2  N   UNL     1       9.181  30.194  58.471  1.00  0.00    -0.268 N 
HETATM    3  O   UNL     1      10.714  29.520  56.942  1.00  0.00    -0.272 OA
HETATM    4  H   UNL     1       9.728  31.035  58.665  1.00  0.00     0.190 HD
ENDROOT
BRANCH   1   5
HETATM    5  C   UNL     1       8.688  28.270  57.003  1.00  0.00     0.132 C 
BRANCH   5   6
HETATM    6  C   UNL     1       8.035  28.663  55.692  1.00  0.00     0.244 C 
BRANCH   6   7
HETATM    7  N   UNL     1       7.011  27.639  55.239  1.00  0.00    -0.068 N 
HETATM    8  C   UNL     1       7.351  27.126  53.827  1.00  0.00     0.254 C 
HETATM    9  C   UNL     1       6.313  26.091  53.347  1.00  0.00     0.150 C 
HETATM   10  N   UNL     1       6.146  25.003  54.326  1.00  0.00    -0.378 N 
HETATM   11  C   UNL     1       5.784  25.469  55.679  1.00  0.00     0.150 C 
HETATM   12  C   UNL     1       6.841  26.462  56.210  1.00  0.00     0.254 C 
HETATM   13  H   UNL     1       6.098  28.110  55.165  1.00  0.00     0.280 HD
BRANCH  10  14
HETATM   14  C   UNL     1       6.906  23.834  54.240  1.00  0.00     0.030 A 
HETATM   15  C   UNL     1       7.383  23.308  53.029  1.00  0.00     0.029 A 
HETATM   16  C   UNL     1       8.139  22.129  52.985  1.00  0.00     0.002 A 
HETATM   17  C   UNL     1       8.423  21.432  54.153  1.00  0.00     0.000 A 
HETATM   18  C   UNL     1       7.940  21.910  55.363  1.00  0.00     0.002 A 
HETATM   19  C   UNL     1       7.189  23.090  55.399  1.00  0.00     0.029 A 
ENDBRANCH  10  14
ENDBRANCH   6   7
ENDBRANCH   5   6
ENDBRANCH   1   5
BRANCH   2  20
HETATM   20  N   UNL     1       7.880  30.127  58.993  1.00  0.00    -0.274 N 
HETATM   21  H   UNL     1       7.829  29.669  59.900  1.00  0.00     0.189 HD
BRANCH  20  22
HETATM   22  C   UNL     1       7.026  31.195  58.884  1.00  0.00     0.191 C 
HETATM   23  S   UNL     1       5.597  31.187  58.010  1.00  0.00    -0.039 SA
BRANCH  22  24
HETATM   24  N   UNL     1       7.283  32.300  59.649  1.00  0.00    -0.331 N 
HETATM   25  H   UNL     1       7.227  33.143  59.081  1.00  0.00     0.168 HD
BRANCH  24  26
HETATM   26  C   UNL     1       7.254  32.514  61.050  1.00  0.00     0.056 A 
HETATM   27  C   UNL     1       8.269  32.238  61.984  1.00  0.00     0.060 A 
HETATM   28 CL   UNL     1       9.876  31.769  61.548  1.00  0.00    -0.082 Cl
HETATM   29  C   UNL     1       8.053  32.455  63.353  1.00  0.00     0.026 A 
HETATM   30  C   UNL     1       6.847  32.981  63.807  1.00  0.00     0.002 A 
HETATM   31  C   UNL     1       5.860  33.320  62.890  1.00  0.00     0.002 A 
HETATM   32  C   UNL     1       6.068  33.102  61.525  1.00  0.00     0.031 A 
ENDBRANCH  24  26
ENDBRANCH  22  24
ENDBRANCH  20  22
ENDBRANCH   2  20
TORSDOF 8
ENDMDL
MODEL 3
REMARK VINA RESULT:      -8.9      1.784      1.982
REMARK  8 active torsions:
REMARK  status: ('A' for Active; 'I' for Inactive)
REMARK    1  A    between atoms: C_4  and  N_5 
REMARK    2  A    between atoms: N_8  and  C_10 
REMARK    3  A    between atoms: C_10  and  C_11 
REMARK    4  A    between atoms: C_11  and  C_12 
REMARK       I    between atoms: C_12  and  N_13 
REMARK    5  A    between atoms: N_13  and  N_14 
REMARK    6  A    between atoms: N_14  and  C_15 
REMARK    7  A    between atoms: C_15  and  N_16 
REMARK    8  A    between atoms: N_16  and  C_17 
ROOT
HETATM    1  C   UNL     1       7.572  30.090  58.524  1.00  0.00     0.237 C 
HETATM    2  N   UNL     1       6.996  30.926  59.445  1.00  0.00    -0.268 N 
HETATM    3  O   UNL     1       8.605  29.476  58.775  1.00  0.00    -0.272 OA
HETATM    4  H   UNL     1       7.557  31.190  60.257  1.00  0.00     0.190 HD
ENDROOT
BRANCH   1   5
HETATM    5  C   UNL     1       6.844  29.866  57.220  1.00  0.00     0.132 C 
BRANCH   5   6
HETATM    6  C   UNL     1       7.583  28.803  56.429  1.00  0.00     0.244 C 
BRANCH   6   7
HETATM    7  N   UNL     1       7.130  27.403  56.800  1.00  0.00    -0.068 N 
HETATM    8  C   UNL     1       6.213  26.827  55.705  1.00  0.00     0.254 C 
HETATM    9  C   UNL     1       5.735  25.407  56.072  1.00  0.00     0.150 C 
HETATM   10  N   UNL     1       6.869  24.524  56.392  1.00  0.00    -0.378 N 
HETATM   11  C   UNL     1       7.742  25.039  57.465  1.00  0.00     0.150 C 
HETATM   12  C   UNL     1       8.286  26.436  57.095  1.00  0.00     0.254 C 
HETATM   13  H   UNL     1       6.558  27.468  57.654  1.00  0.00     0.280 HD
BRANCH  10  14
HETATM   14  C   UNL     1       7.472  23.739  55.405  1.00  0.00     0.030 A 
HETATM   15  C   UNL     1       7.035  23.702  54.072  1.00  0.00     0.029 A 
HETATM   16  C   UNL     1       7.665  22.898  53.111  1.00  0.00     0.002 A 
HETATM   17  C   UNL     1       8.741  22.093  53.466  1.00  0.00     0.000 A 
HETATM   18  C   UNL     1       9.177  22.084  54.784  1.00  0.00     0.002 A 
HETATM   19  C   UNL     1       8.545  22.893  55.735  1.00  0.00     0.029 A 
ENDBRANCH  10  14
ENDBRANCH   6   7
ENDBRANCH   5   6
ENDBRANCH   1   5
BRANCH   2  20
HETATM   20  N   UNL     1       5.870  31.709  59.147  1.00  0.00    -0.274 N 
HETATM   21  H   UNL     1       5.193  31.238  58.552  1.00  0.00     0.189 HD
BRANCH  20  22
HETATM   22  C   UNL     1       5.284  32.487  60.113  1.00  0.00     0.191 C 
HETATM   23  S   UNL     1       4.347  33.842  59.807  1.00  0.00    -0.039 SA
BRANCH  22  24
HETATM   24  N   UNL     1       5.349  32.055  61.409  1.00  0.00    -0.331 N 
HETATM   25  H   UNL     1       5.189  31.051  61.456  1.00  0.00     0.168 HD
BRANCH  24  26
HETATM   26  C   UNL     1       5.918  32.629  62.575  1.00  0.00     0.056 A 
HETATM   27  C   UNL     1       5.294  33.476  63.508  1.00  0.00     0.060 A 
HETATM   28 CL   UNL     1       3.596  33.810  63.521  1.00  0.00    -0.082 Cl
HETATM   29  C   UNL     1       6.022  34.010  64.583  1.00  0.00     0.026 A 
HETATM   30  C   UNL     1       7.363  33.681  64.762  1.00  0.00     0.002 A 
HETATM   31  C   UNL     1       7.975  32.794  63.886  1.00  0.00     0.002 A 
HETATM   32  C   UNL     1       7.255  32.263  62.812  1.00  0.00     0.031 A 
ENDBRANCH  24  26
ENDBRANCH  22  24
ENDBRANCH  20  22
ENDBRANCH   2  20
TORSDOF 8
ENDMDL
MODEL 4
REMARK VINA RESULT:      -8.8      1.660      2.074
REMARK  8 active torsions:
REMARK  status: ('A' for Active; 'I' for Inactive)
REMARK    1  A    between atoms: C_4  and  N_5 
REMARK    2  A    between atoms: N_8  and  C_10 
REMARK    3  A    between atoms: C_10  and  C_11 
REMARK    4  A    between atoms: C_11  and  C_12 
REMARK       I    between atoms: C_12  and  N_13 
REMARK    5  A    between atoms: N_13  and  N_14 
REMARK    6  A    between atoms: N_14  and  C_15 
REMARK    7  A    between atoms: C_15  and  N_16 
REMARK    8  A    between atoms: N_16  and  C_17 
ROOT
HETATM    1  C   UNL     1       6.685  30.254  57.334  1.00  0.00     0.237 C 
HETATM    2  N   UNL     1       6.341  31.360  58.066  1.00  0.00    -0.268 N 
HETATM    3  O   UNL     1       6.402  30.162  56.142  1.00  0.00    -0.272 OA
HETATM    4  H   UNL     1       5.663  32.006  57.655  1.00  0.00     0.190 HD
ENDROOT
BRANCH   1   5
HETATM    5  C   UNL     1       7.511  29.186  58.010  1.00  0.00     0.132 C 
BRANCH   5   6
HETATM    6  C   UNL     1       8.067  28.258  56.948  1.00  0.00     0.244 C 
BRANCH   6   7
HETATM    7  N   UNL     1       7.018  27.286  56.439  1.00  0.00    -0.068 N 
HETATM    8  C   UNL     1       7.164  27.086  54.919  1.00  0.00     0.254 C 
HETATM    9  C   UNL     1       6.098  26.108  54.383  1.00  0.00     0.150 C 
HETATM   10  N   UNL     1       6.108  24.839  55.131  1.00  0.00    -0.378 N 
HETATM   11  C   UNL     1       5.934  25.003  56.588  1.00  0.00     0.150 C 
HETATM   12  C   UNL     1       7.028  25.930  57.161  1.00  0.00     0.254 C 
HETATM   13  H   UNL     1       6.091  27.707  56.590  1.00  0.00     0.280 HD
BRANCH  10  14
HETATM   14  C   UNL     1       6.882  23.757  54.702  1.00  0.00     0.030 A 
HETATM   15  C   UNL     1       7.430  22.803  55.573  1.00  0.00     0.029 A 
HETATM   16  C   UNL     1       8.204  21.733  55.102  1.00  0.00     0.002 A 
HETATM   17  C   UNL     1       8.467  21.601  53.744  1.00  0.00     0.000 A 
HETATM   18  C   UNL     1       7.965  22.545  52.860  1.00  0.00     0.002 A 
HETATM   19  C   UNL     1       7.189  23.608  53.338  1.00  0.00     0.029 A 
ENDBRANCH  10  14
ENDBRANCH   6   7
ENDBRANCH   5   6
ENDBRANCH   1   5
BRANCH   2  20
HETATM   20  N   UNL     1       6.570  31.446  59.448  1.00  0.00    -0.274 N 
HETATM   21  H   UNL     1       7.552  31.543  59.693  1.00  0.00     0.189 HD
BRANCH  20  22
HETATM   22  C   UNL     1       5.743  32.193  60.249  1.00  0.00     0.191 C 
HETATM   23  S   UNL     1       4.727  33.406  59.700  1.00  0.00    -0.039 SA
BRANCH  22  24
HETATM   24  N   UNL     1       5.634  31.837  61.565  1.00  0.00    -0.331 N 
HETATM   25  H   UNL     1       5.389  30.852  61.646  1.00  0.00     0.168 HD
BRANCH  24  26
HETATM   26  C   UNL     1       6.119  32.437  62.755  1.00  0.00     0.056 A 
HETATM   27  C   UNL     1       7.456  32.561  63.172  1.00  0.00     0.060 A 
HETATM   28 CL   UNL     1       8.816  32.180  62.173  1.00  0.00    -0.082 Cl
HETATM   29  C   UNL     1       7.762  33.134  64.417  1.00  0.00     0.026 A 
HETATM   30  C   UNL     1       6.751  33.621  65.241  1.00  0.00     0.002 A 
HETATM   31  C   UNL     1       5.431  33.565  64.812  1.00  0.00     0.002 A 
HETATM   32  C   UNL     1       5.121  32.992  63.576  1.00  0.00     0.031 A 
ENDBRANCH  24  26
ENDBRANCH  22  24
ENDBRANCH  20  22
ENDBRANCH   2  20
TORSDOF 8
ENDMDL
MODEL 5
REMARK VINA RESULT:      -8.6      1.907      2.657
REMARK  8 active torsions:
REMARK  status: ('A' for Active; 'I' for Inactive)
REMARK    1  A    between atoms: C_4  and  N_5 
REMARK    2  A    between atoms: N_8  and  C_10 
REMARK    3  A    between atoms: C_10  and  C_11 
REMARK    4  A    between atoms: C_11  and  C_12 
REMARK       I    between atoms: C_12  and  N_13 
REMARK    5  A    between atoms: N_13  and  N_14 
REMARK    6  A    between atoms: N_14  and  C_15 
REMARK    7  A    between atoms: C_15  and  N_16 
REMARK    8  A    between atoms: N_16  and  C_17 
ROOT
HETATM    1  C   UNL     1       6.151  28.673  57.089  1.00  0.00     0.237 C 
HETATM    2  N   UNL     1       7.118  28.946  58.022  1.00  0.00    -0.268 N 
HETATM    3  O   UNL     1       4.956  28.728  57.369  1.00  0.00    -0.272 OA
HETATM    4  H   UNL     1       6.829  28.986  59.001  1.00  0.00     0.190 HD
ENDROOT
BRANCH   1   5
HETATM    5  C   UNL     1       6.593  28.395  55.672  1.00  0.00     0.132 C 
BRANCH   5   6
HETATM    6  C   UNL     1       5.458  27.712  54.935  1.00  0.00     0.244 C 
BRANCH   6   7
HETATM    7  N   UNL     1       5.965  26.775  53.854  1.00  0.00    -0.068 N 
HETATM    8  C   UNL     1       7.447  26.432  54.093  1.00  0.00     0.254 C 
HETATM    9  C   UNL     1       7.982  25.488  52.996  1.00  0.00     0.150 C 
HETATM   10  N   UNL     1       7.134  24.292  52.856  1.00  0.00    -0.378 N 
HETATM   11  C   UNL     1       5.714  24.596  52.591  1.00  0.00     0.150 C 
HETATM   12  C   UNL     1       5.135  25.491  53.708  1.00  0.00     0.254 C 
HETATM   13  H   UNL     1       5.922  27.272  52.954  1.00  0.00     0.280 HD
BRANCH  10  14
HETATM   14  C   UNL     1       7.410  23.125  53.573  1.00  0.00     0.030 A 
HETATM   15  C   UNL     1       7.349  23.044  54.973  1.00  0.00     0.029 A 
HETATM   16  C   UNL     1       7.637  21.854  55.656  1.00  0.00     0.002 A 
HETATM   17  C   UNL     1       8.015  20.715  54.954  1.00  0.00     0.000 A 
HETATM   18  C   UNL     1       8.114  20.772  53.571  1.00  0.00     0.002 A 
HETATM   19  C   UNL     1       7.820  21.963  52.896  1.00  0.00     0.029 A 
ENDBRANCH  10  14
ENDBRANCH   6   7
ENDBRANCH   5   6
ENDBRANCH   1   5
BRANCH   2  20
HETATM   20  N   UNL     1       8.486  28.798  57.750  1.00  0.00    -0.274 N 
HETATM   21  H   UNL     1       8.681  28.174  56.970  1.00  0.00     0.189 HD
BRANCH  20  22
HETATM   22  C   UNL     1       9.329  29.879  57.793  1.00  0.00     0.191 C 
HETATM   23  S   UNL     1      10.883  29.901  57.169  1.00  0.00    -0.039 SA
BRANCH  22  24
HETATM   24  N   UNL     1       8.826  31.065  58.254  1.00  0.00    -0.331 N 
HETATM   25  H   UNL     1       8.399  31.587  57.492  1.00  0.00     0.168 HD
BRANCH  24  26
HETATM   26  C   UNL     1       8.482  31.510  59.556  1.00  0.00     0.056 A 
HETATM   27  C   UNL     1       7.260  32.061  59.982  1.00  0.00     0.060 A 
HETATM   28 CL   UNL     1       5.831  32.102  59.008  1.00  0.00    -0.082 Cl
HETATM   29  C   UNL     1       7.104  32.509  61.303  1.00  0.00     0.026 A 
HETATM   30  C   UNL     1       8.142  32.382  62.222  1.00  0.00     0.002 A 
HETATM   31  C   UNL     1       9.331  31.779  61.833  1.00  0.00     0.002 A 
HETATM   32  C   UNL     1       9.493  31.334  60.517  1.00  0.00     0.031 A 
ENDBRANCH  24  26
ENDBRANCH  22  24
ENDBRANCH  20  22
ENDBRANCH   2  20
TORSDOF 8
ENDMDL
MODEL 6
REMARK VINA RESULT:      -8.6      3.834      9.709
REMARK  8 active torsions:
REMARK  status: ('A' for Active; 'I' for Inactive)
REMARK    1  A    between atoms: C_4  and  N_5 
REMARK    2  A    between atoms: N_8  and  C_10 
REMARK    3  A    between atoms: C_10  and  C_11 
REMARK    4  A    between atoms: C_11  and  C_12 
REMARK       I    between atoms: C_12  and  N_13 
REMARK    5  A    between atoms: N_13  and  N_14 
REMARK    6  A    between atoms: N_14  and  C_15 
REMARK    7  A    between atoms: C_15  and  N_16 
REMARK    8  A    between atoms: N_16  and  C_17 
ROOT
HETATM    1  C   UNL     1       4.496  27.072  53.167  1.00  0.00     0.237 C 
HETATM    2  N   UNL     1       4.506  25.803  53.686  1.00  0.00    -0.268 N 
HETATM    3  O   UNL     1       3.489  27.774  53.211  1.00  0.00    -0.272 OA
HETATM    4  H   UNL     1       3.603  25.380  53.914  1.00  0.00     0.190 HD
ENDROOT
BRANCH   1   5
HETATM    5  C   UNL     1       5.792  27.624  52.624  1.00  0.00     0.132 C 
BRANCH   5   6
HETATM    6  C   UNL     1       6.223  28.791  53.491  1.00  0.00     0.244 C 
BRANCH   6   7
HETATM    7  N   UNL     1       6.427  28.379  54.937  1.00  0.00    -0.068 N 
HETATM    8  C   UNL     1       7.922  28.154  55.226  1.00  0.00     0.254 C 
HETATM    9  C   UNL     1       8.147  27.724  56.690  1.00  0.00     0.150 C 
HETATM   10  N   UNL     1       7.518  28.668  57.630  1.00  0.00    -0.378 N 
HETATM   11  C   UNL     1       6.075  28.872  57.395  1.00  0.00     0.150 C 
HETATM   12  C   UNL     1       5.827  29.364  55.952  1.00  0.00     0.254 C 
HETATM   13  H   UNL     1       5.963  27.471  55.079  1.00  0.00     0.280 HD
BRANCH  10  14
HETATM   14  C   UNL     1       8.235  29.747  58.153  1.00  0.00     0.030 A 
HETATM   15  C   UNL     1       7.708  30.644  59.095  1.00  0.00     0.029 A 
HETATM   16  C   UNL     1       8.459  31.717  59.594  1.00  0.00     0.002 A 
HETATM   17  C   UNL     1       9.757  31.933  59.147  1.00  0.00     0.000 A 
HETATM   18  C   UNL     1      10.297  31.082  58.192  1.00  0.00     0.002 A 
HETATM   19  C   UNL     1       9.541  30.010  57.703  1.00  0.00     0.029 A 
ENDBRANCH  10  14
ENDBRANCH   6   7
ENDBRANCH   5   6
ENDBRANCH   1   5
BRANCH   2  20
HETATM   20  N   UNL     1       5.613  24.950  53.562  1.00  0.00    -0.274 N 
HETATM   21  H   UNL     1       6.144  25.094  52.707  1.00  0.00     0.189 HD
BRANCH  20  22
HETATM   22  C   UNL     1       6.408  24.674  54.646  1.00  0.00     0.191 C 
HETATM   23  S   UNL     1       5.954  24.901  56.242  1.00  0.00    -0.039 SA
BRANCH  22  24
HETATM   24  N   UNL     1       7.601  24.044  54.420  1.00  0.00    -0.331 N 
HETATM   25  H   UNL     1       8.373  24.697  54.534  1.00  0.00     0.168 HD
BRANCH  24  26
HETATM   26  C   UNL     1       7.966  22.673  54.420  1.00  0.00     0.056 A 
HETATM   27  C   UNL     1       8.413  21.902  55.508  1.00  0.00     0.060 A 
HETATM   28 CL   UNL     1       8.395  22.451  57.149  1.00  0.00    -0.082 Cl
HETATM   29  C   UNL     1       8.793  20.564  55.323  1.00  0.00     0.026 A 
HETATM   30  C   UNL     1       8.700  19.968  54.069  1.00  0.00     0.002 A 
HETATM   31  C   UNL     1       8.198  20.697  52.999  1.00  0.00     0.002 A 
HETATM   32  C   UNL     1       7.821  22.032  53.177  1.00  0.00     0.031 A 
ENDBRANCH  24  26
ENDBRANCH  22  24
ENDBRANCH  20  22
ENDBRANCH   2  20
TORSDOF 8
ENDMDL
MODEL 7
REMARK VINA RESULT:      -8.5      1.371      2.078
REMARK  8 active torsions:
REMARK  status: ('A' for Active; 'I' for Inactive)
REMARK    1  A    between atoms: C_4  and  N_5 
REMARK    2  A    between atoms: N_8  and  C_10 
REMARK    3  A    between atoms: C_10  and  C_11 
REMARK    4  A    between atoms: C_11  and  C_12 
REMARK       I    between atoms: C_12  and  N_13 
REMARK    5  A    between atoms: N_13  and  N_14 
REMARK    6  A    between atoms: N_14  and  C_15 
REMARK    7  A    between atoms: C_15  and  N_16 
REMARK    8  A    between atoms: N_16  and  C_17 
ROOT
HETATM    1  C   UNL     1       4.938  30.101  57.629  1.00  0.00     0.237 C 
HETATM    2  N   UNL     1       5.894  30.814  58.306  1.00  0.00    -0.268 N 
HETATM    3  O   UNL     1       3.837  30.583  57.378  1.00  0.00    -0.272 OA
HETATM    4  H   UNL     1       5.596  31.669  58.779  1.00  0.00     0.190 HD
ENDROOT
BRANCH   1   5
HETATM    5  C   UNL     1       5.311  28.732  57.112  1.00  0.00     0.132 C 
BRANCH   5   6
HETATM    6  C   UNL     1       4.548  28.475  55.827  1.00  0.00     0.244 C 
BRANCH   6   7
HETATM    7  N   UNL     1       5.459  27.995  54.712  1.00  0.00    -0.068 N 
HETATM    8  C   UNL     1       6.837  27.602  55.276  1.00  0.00     0.254 C 
HETATM    9  C   UNL     1       7.779  27.120  54.154  1.00  0.00     0.150 C 
HETATM   10  N   UNL     1       7.161  26.048  53.356  1.00  0.00    -0.378 N 
HETATM   11  C   UNL     1       5.854  26.415  52.774  1.00  0.00     0.150 C 
HETATM   12  C   UNL     1       4.870  26.842  53.885  1.00  0.00     0.254 C 
HETATM   13  H   UNL     1       5.621  28.782  54.069  1.00  0.00     0.280 HD
BRANCH  10  14
HETATM   14  C   UNL     1       7.356  24.704  53.683  1.00  0.00     0.030 A 
HETATM   15  C   UNL     1       7.281  24.207  54.993  1.00  0.00     0.029 A 
HETATM   16  C   UNL     1       7.486  22.850  55.280  1.00  0.00     0.002 A 
HETATM   17  C   UNL     1       7.792  21.955  54.262  1.00  0.00     0.000 A 
HETATM   18  C   UNL     1       7.904  22.421  52.959  1.00  0.00     0.002 A 
HETATM   19  C   UNL     1       7.693  23.776  52.681  1.00  0.00     0.029 A 
ENDBRANCH  10  14
ENDBRANCH   6   7
ENDBRANCH   5   6
ENDBRANCH   1   5
BRANCH   2  20
HETATM   20  N   UNL     1       7.122  30.250  58.686  1.00  0.00    -0.274 N 
HETATM   21  H   UNL     1       7.663  29.889  57.904  1.00  0.00     0.189 HD
BRANCH  20  22
HETATM   22  C   UNL     1       7.899  30.850  59.643  1.00  0.00     0.191 C 
HETATM   23  S   UNL     1       9.285  31.737  59.327  1.00  0.00    -0.039 SA
BRANCH  22  24
HETATM   24  N   UNL     1       7.445  30.843  60.934  1.00  0.00    -0.331 N 
HETATM   25  H   UNL     1       7.578  29.924  61.350  1.00  0.00     0.168 HD
BRANCH  24  26
HETATM   26  C   UNL     1       7.181  31.890  61.853  1.00  0.00     0.056 A 
HETATM   27  C   UNL     1       6.160  32.855  61.788  1.00  0.00     0.060 A 
HETATM   28 CL   UNL     1       4.863  32.809  60.643  1.00  0.00    -0.082 Cl
HETATM   29  C   UNL     1       6.074  33.866  62.757  1.00  0.00     0.026 A 
HETATM   30  C   UNL     1       6.975  33.910  63.818  1.00  0.00     0.002 A 
HETATM   31  C   UNL     1       7.947  32.925  63.932  1.00  0.00     0.002 A 
HETATM   32  C   UNL     1       8.039  31.917  62.967  1.00  0.00     0.031 A 
ENDBRANCH  24  26
ENDBRANCH  22  24
ENDBRANCH  20  22
ENDBRANCH   2  20
TORSDOF 8
ENDMDL
MODEL 8
REMARK VINA RESULT:      -8.4      1.672      2.280
REMARK  8 active torsions:
REMARK  status: ('A' for Active; 'I' for Inactive)
REMARK    1  A    between atoms: C_4  and  N_5 
REMARK    2  A    between atoms: N_8  and  C_10 
REMARK    3  A    between atoms: C_10  and  C_11 
REMARK    4  A    between atoms: C_11  and  C_12 
REMARK       I    between atoms: C_12  and  N_13 
REMARK    5  A    between atoms: N_13  and  N_14 
REMARK    6  A    between atoms: N_14  and  C_15 
REMARK    7  A    between atoms: C_15  and  N_16 
REMARK    8  A    between atoms: N_16  and  C_17 
ROOT
HETATM    1  C   UNL     1       9.873  29.897  57.292  1.00  0.00     0.237 C 
HETATM    2  N   UNL     1       9.667  30.647  58.421  1.00  0.00    -0.268 N 
HETATM    3  O   UNL     1      10.726  30.206  56.465  1.00  0.00    -0.272 OA
HETATM    4  H   UNL     1      10.088  31.578  58.452  1.00  0.00     0.190 HD
ENDROOT
BRANCH   1   5
HETATM    5  C   UNL     1       9.083  28.619  57.138  1.00  0.00     0.132 C 
BRANCH   5   6
HETATM    6  C   UNL     1       8.021  28.830  56.077  1.00  0.00     0.244 C 
BRANCH   6   7
HETATM    7  N   UNL     1       7.014  27.695  56.048  1.00  0.00    -0.068 N 
HETATM    8  C   UNL     1       6.678  27.312  54.596  1.00  0.00     0.254 C 
HETATM    9  C   UNL     1       5.647  26.165  54.549  1.00  0.00     0.150 C 
HETATM   10  N   UNL     1       6.085  25.015  55.358  1.00  0.00    -0.378 N 
HETATM   11  C   UNL     1       6.379  25.352  56.765  1.00  0.00     0.150 C 
HETATM   12  C   UNL     1       7.456  26.456  56.842  1.00  0.00     0.254 C 
HETATM   13  H   UNL     1       6.138  28.034  56.471  1.00  0.00     0.280 HD
BRANCH  10  14
HETATM   14  C   UNL     1       6.820  23.972  54.788  1.00  0.00     0.030 A 
HETATM   15  C   UNL     1       7.379  22.922  55.532  1.00  0.00     0.029 A 
HETATM   16  C   UNL     1       8.114  21.895  54.922  1.00  0.00     0.002 A 
HETATM   17  C   UNL     1       8.327  21.904  53.549  1.00  0.00     0.000 A 
HETATM   18  C   UNL     1       7.813  22.946  52.789  1.00  0.00     0.002 A 
HETATM   19  C   UNL     1       7.077  23.965  53.405  1.00  0.00     0.029 A 
ENDBRANCH  10  14
ENDBRANCH   6   7
ENDBRANCH   5   6
ENDBRANCH   1   5
BRANCH   2  20
HETATM   20  N   UNL     1       8.635  30.367  59.330  1.00  0.00    -0.274 N 
HETATM   21  H   UNL     1       8.363  29.387  59.348  1.00  0.00     0.189 HD
BRANCH  20  22
HETATM   22  C   UNL     1       8.621  30.948  60.573  1.00  0.00     0.191 C 
HETATM   23  S   UNL     1       9.404  30.335  61.920  1.00  0.00    -0.039 SA
BRANCH  22  24
HETATM   24  N   UNL     1       8.044  32.183  60.695  1.00  0.00    -0.331 N 
HETATM   25  H   UNL     1       8.424  32.821  59.999  1.00  0.00     0.168 HD
BRANCH  24  26
HETATM   26  C   UNL     1       6.845  32.614  61.318  1.00  0.00     0.056 A 
HETATM   27  C   UNL     1       6.639  32.904  62.678  1.00  0.00     0.060 A 
HETATM   28 CL   UNL     1       7.911  32.995  63.847  1.00  0.00    -0.082 Cl
HETATM   29  C   UNL     1       5.364  33.263  63.143  1.00  0.00     0.026 A 
HETATM   30  C   UNL     1       4.293  33.376  62.261  1.00  0.00     0.002 A 
HETATM   31  C   UNL     1       4.497  33.157  60.905  1.00  0.00     0.002 A 
HETATM   32  C   UNL     1       5.764  32.795  60.437  1.00  0.00     0.031 A 
ENDBRANCH  24  26
ENDBRANCH  22  24
ENDBRANCH  20  22
ENDBRANCH   2  20
TORSDOF 8
ENDMDL
MODEL 9
REMARK VINA RESULT:      -8.4      6.250      9.862
REMARK  8 active torsions:
REMARK  status: ('A' for Active; 'I' for Inactive)
REMARK    1  A    between atoms: C_4  and  N_5 
REMARK    2  A    between atoms: N_8  and  C_10 
REMARK    3  A    between atoms: C_10  and  C_11 
REMARK    4  A    between atoms: C_11  and  C_12 
REMARK       I    between atoms: C_12  and  N_13 
REMARK    5  A    between atoms: N_13  and  N_14 
REMARK    6  A    between atoms: N_14  and  C_15 
REMARK    7  A    between atoms: C_15  and  N_16 
REMARK    8  A    between atoms: N_16  and  C_17 
ROOT
HETATM    1  C   UNL     1       4.133  27.810  53.526  1.00  0.00     0.237 C 
HETATM    2  N   UNL     1       4.383  27.479  54.833  1.00  0.00    -0.268 N 
HETATM    3  O   UNL     1       3.503  28.822  53.231  1.00  0.00    -0.272 OA
HETATM    4  H   UNL     1       3.853  27.974  55.554  1.00  0.00     0.190 HD
ENDROOT
BRANCH   1   5
HETATM    5  C   UNL     1       4.741  26.944  52.449  1.00  0.00     0.132 C 
BRANCH   5   6
HETATM    6  C   UNL     1       5.715  27.783  51.645  1.00  0.00     0.244 C 
BRANCH   6   7
HETATM    7  N   UNL     1       5.614  27.499  50.158  1.00  0.00    -0.068 N 
HETATM    8  C   UNL     1       4.528  26.443  49.884  1.00  0.00     0.254 C 
HETATM    9  C   UNL     1       4.420  26.135  48.376  1.00  0.00     0.150 C 
HETATM   10  N   UNL     1       4.233  27.366  47.588  1.00  0.00    -0.378 N 
HETATM   11  C   UNL     1       5.284  28.379  47.807  1.00  0.00     0.150 C 
HETATM   12  C   UNL     1       5.371  28.753  49.303  1.00  0.00     0.254 C 
HETATM   13  H   UNL     1       6.506  27.087  49.850  1.00  0.00     0.280 HD
BRANCH  10  14
HETATM   14  C   UNL     1       2.955  27.834  47.277  1.00  0.00     0.030 A 
HETATM   15  C   UNL     1       2.679  29.167  46.936  1.00  0.00     0.029 A 
HETATM   16  C   UNL     1       1.380  29.599  46.633  1.00  0.00     0.002 A 
HETATM   17  C   UNL     1       0.315  28.707  46.682  1.00  0.00     0.000 A 
HETATM   18  C   UNL     1       0.550  27.389  47.046  1.00  0.00     0.002 A 
HETATM   19  C   UNL     1       1.851  26.965  47.343  1.00  0.00     0.029 A 
ENDBRANCH  10  14
ENDBRANCH   6   7
ENDBRANCH   5   6
ENDBRANCH   1   5
BRANCH   2  20
HETATM   20  N   UNL     1       5.017  26.281  55.196  1.00  0.00    -0.274 N 
HETATM   21  H   UNL     1       4.822  25.509  54.563  1.00  0.00     0.189 HD
BRANCH  20  22
HETATM   22  C   UNL     1       6.311  26.285  55.651  1.00  0.00     0.191 C 
HETATM   23  S   UNL     1       6.784  26.805  57.172  1.00  0.00    -0.039 SA
BRANCH  22  24
HETATM   24  N   UNL     1       7.267  25.698  54.868  1.00  0.00    -0.331 N 
HETATM   25  H   UNL     1       8.075  26.310  54.779  1.00  0.00     0.168 HD
BRANCH  24  26
HETATM   26  C   UNL     1       7.487  24.350  54.486  1.00  0.00     0.056 A 
HETATM   27  C   UNL     1       7.649  23.840  53.186  1.00  0.00     0.060 A 
HETATM   28 CL   UNL     1       7.829  24.831  51.778  1.00  0.00    -0.082 Cl
HETATM   29  C   UNL     1       7.799  22.461  52.976  1.00  0.00     0.026 A 
HETATM   30  C   UNL     1       7.827  21.579  54.053  1.00  0.00     0.002 A 
HETATM   31  C   UNL     1       7.734  22.075  55.347  1.00  0.00     0.002 A 
HETATM   32  C   UNL     1       7.581  23.448  55.561  1.00  0.00     0.031 A 
ENDBRANCH  24  26
ENDBRANCH  22  24
ENDBRANCH  20  22
ENDBRANCH   2  20
TORSDOF 8
ENDMDL
MODEL 10
REMARK VINA RESULT:      -8.3      5.806      9.081
REMARK  8 active torsions:
REMARK  status: ('A' for Active; 'I' for Inactive)
REMARK    1  A    between atoms: C_4  and  N_5 
REMARK    2  A    between atoms: N_8  and  C_10 
REMARK    3  A    between atoms: C_10  and  C_11 
REMARK    4  A    between atoms: C_11  and  C_12 
REMARK       I    between atoms: C_12  and  N_13 
REMARK    5  A    between atoms: N_13  and  N_14 
REMARK    6  A    between atoms: N_14  and  C_15 
REMARK    7  A    between atoms: C_15  and  N_16 
REMARK    8  A    between atoms: N_16  and  C_17 
ROOT
HETATM    1  C   UNL     1       4.254  28.217  55.570  1.00  0.00     0.237 C 
HETATM    2  N   UNL     1       4.515  27.453  56.678  1.00  0.00    -0.268 N 
HETATM    3  O   UNL     1       3.846  29.370  55.669  1.00  0.00    -0.272 OA
HETATM    4  H   UNL     1       4.161  27.790  57.576  1.00  0.00     0.190 HD
ENDROOT
BRANCH   1   5
HETATM    5  C   UNL     1       4.577  27.631  54.216  1.00  0.00     0.132 C 
BRANCH   5   6
HETATM    6  C   UNL     1       5.467  28.603  53.467  1.00  0.00     0.244 C 
BRANCH   6   7
HETATM    7  N   UNL     1       5.737  28.146  52.046  1.00  0.00    -0.068 N 
HETATM    8  C   UNL     1       5.094  26.770  51.792  1.00  0.00     0.254 C 
HETATM    9  C   UNL     1       5.369  26.286  50.354  1.00  0.00     0.150 C 
HETATM   10  N   UNL     1       4.968  27.297  49.360  1.00  0.00    -0.378 N 
HETATM   11  C   UNL     1       5.600  28.615  49.562  1.00  0.00     0.150 C 
HETATM   12  C   UNL     1       5.289  29.153  50.976  1.00  0.00     0.254 C 
HETATM   13  H   UNL     1       6.753  28.017  51.939  1.00  0.00     0.280 HD
BRANCH  10  14
HETATM   14  C   UNL     1       3.689  27.285  48.798  1.00  0.00     0.030 A 
HETATM   15  C   UNL     1       2.622  28.056  49.284  1.00  0.00     0.029 A 
HETATM   16  C   UNL     1       1.351  28.014  48.693  1.00  0.00     0.002 A 
HETATM   17  C   UNL     1       1.110  27.181  47.607  1.00  0.00     0.000 A 
HETATM   18  C   UNL     1       2.136  26.383  47.122  1.00  0.00     0.002 A 
HETATM   19  C   UNL     1       3.403  26.435  47.715  1.00  0.00     0.029 A 
ENDBRANCH  10  14
ENDBRANCH   6   7
ENDBRANCH   5   6
ENDBRANCH   1   5
BRANCH   2  20
HETATM   20  N   UNL     1       4.891  26.104  56.589  1.00  0.00    -0.274 N 
HETATM   21  H   UNL     1       4.412  25.596  55.849  1.00  0.00     0.189 HD
BRANCH  20  22
HETATM   22  C   UNL     1       6.204  25.733  56.729  1.00  0.00     0.191 C 
HETATM   23  S   UNL     1       7.417  26.727  57.320  1.00  0.00    -0.039 SA
BRANCH  22  24
HETATM   24  N   UNL     1       6.527  24.423  56.501  1.00  0.00    -0.331 N 
HETATM   25  H   UNL     1       6.076  23.824  57.189  1.00  0.00     0.168 HD
BRANCH  24  26
HETATM   26  C   UNL     1       7.034  23.755  55.358  1.00  0.00     0.056 A 
HETATM   27  C   UNL     1       7.862  22.618  55.324  1.00  0.00     0.060 A 
HETATM   28 CL   UNL     1       8.252  21.668  56.716  1.00  0.00    -0.082 Cl
HETATM   29  C   UNL     1       8.327  22.114  54.099  1.00  0.00     0.026 A 
HETATM   30  C   UNL     1       7.947  22.707  52.898  1.00  0.00     0.002 A 
HETATM   31  C   UNL     1       7.077  23.790  52.914  1.00  0.00     0.002 A 
HETATM   32  C   UNL     1       6.614  24.298  54.131  1.00  0.00     0.031 A 
ENDBRANCH  24  26
ENDBRANCH  22  24
ENDBRANCH  20  22
ENDBRANCH   2  20
TORSDOF 8
ENDMDL
