MODEL 1
REMARK VINA RESULT:      -8.9      0.000      0.000
REMARK  2 active torsions:
REMARK  status: ('A' for Active; 'I' for Inactive)
REMARK    1  A    between atoms: C_7  and  N_8 
REMARK       I    between atoms: N_8  and  C_9 
REMARK       I    between atoms: C_9  and  N_10 
REMARK    2  A    between atoms: N_10  and  C_11 
ROOT
HETATM    1  C   UNL     1       8.093  23.556  52.837  1.00  0.00     0.025 A 
HETATM    2  C   UNL     1       7.982  22.467  53.703  1.00  0.00     0.044 A 
HETATM    3  C   UNL     1       8.202  21.134  53.222  1.00  0.00     0.099 C 
HETATM    4  N   UNL     1       8.378  20.057  52.829  1.00  0.00    -0.191 NA
HETATM    5  C   UNL     1       7.653  22.687  55.043  1.00  0.00     0.025 A 
HETATM    6  C   UNL     1       7.426  23.987  55.514  1.00  0.00     0.031 A 
HETATM    7  C   UNL     1       7.523  25.080  54.650  1.00  0.00     0.036 A 
HETATM    8  C   UNL     1       7.866  24.853  53.310  1.00  0.00     0.031 A 
ENDROOT
BRANCH   7   9
HETATM    9  N   UNL     1       7.288  26.416  55.036  1.00  0.00    -0.309 N 
HETATM   10  C   UNL     1       7.367  26.954  56.299  1.00  0.00     0.321 C 
HETATM   11  N   UNL     1       7.015  28.291  56.292  1.00  0.00    -0.338 N 
HETATM   12  O   UNL     1       7.662  26.374  57.337  1.00  0.00    -0.247 OA
HETATM   13  H   UNL     1       7.136  28.778  55.414  1.00  0.00     0.164 HD
HETATM   14  H   UNL     1       6.910  27.017  54.319  1.00  0.00     0.170 HD
BRANCH  11  15
HETATM   15  C   UNL     1       6.932  29.096  57.506  1.00  0.00     0.089 C 
HETATM   16  C   UNL     1       8.328  29.417  58.079  1.00  0.00     0.058 C 
HETATM   17  C   UNL     1       8.196  30.272  59.321  1.00  0.00     0.190 C 
HETATM   18  N   UNL     1       7.428  31.517  58.967  1.00  0.00    -0.067 N 
HETATM   19  C   UNL     1       9.471  30.862  59.889  1.00  0.00     0.035 C 
HETATM   20  H   UNL     1       7.896  31.951  58.154  1.00  0.00     0.280 HD
HETATM   21  C   UNL     1       6.020  31.230  58.562  1.00  0.00     0.237 C 
HETATM   22  C   UNL     1       7.634  32.460  60.124  1.00  0.00     0.235 C 
HETATM   23  C   UNL     1       6.055  30.349  57.318  1.00  0.00     0.053 C 
HETATM   24  C   UNL     1       8.957  32.015  60.748  1.00  0.00     0.030 C 
ENDBRANCH  11  15
ENDBRANCH   7   9
TORSDOF 2
ENDMDL
MODEL 2
REMARK VINA RESULT:      -8.9      5.661      8.368
REMARK  2 active torsions:
REMARK  status: ('A' for Active; 'I' for Inactive)
REMARK    1  A    between atoms: C_7  and  N_8 
REMARK       I    between atoms: N_8  and  C_9 
REMARK       I    between atoms: C_9  and  N_10 
REMARK    2  A    between atoms: N_10  and  C_11 
ROOT
HETATM    1  C   UNL     1       8.188  22.283  53.496  1.00  0.00     0.025 A 
HETATM    2  C   UNL     1       7.787  22.272  54.834  1.00  0.00     0.044 A 
HETATM    3  C   UNL     1       8.025  21.118  55.651  1.00  0.00     0.099 C 
HETATM    4  N   UNL     1       8.218  20.183  56.310  1.00  0.00    -0.191 NA
HETATM    5  C   UNL     1       7.149  23.395  55.368  1.00  0.00     0.025 A 
HETATM    6  C   UNL     1       6.904  24.519  54.568  1.00  0.00     0.031 A 
HETATM    7  C   UNL     1       7.292  24.532  53.226  1.00  0.00     0.036 A 
HETATM    8  C   UNL     1       7.943  23.407  52.700  1.00  0.00     0.031 A 
ENDROOT
BRANCH   7   9
HETATM    9  N   UNL     1       7.063  25.611  52.347  1.00  0.00    -0.309 N 
HETATM   10  C   UNL     1       5.911  25.901  51.654  1.00  0.00     0.321 C 
HETATM   11  N   UNL     1       6.083  27.014  50.851  1.00  0.00    -0.338 N 
HETATM   12  O   UNL     1       4.857  25.278  51.669  1.00  0.00    -0.247 OA
HETATM   13  H   UNL     1       6.800  27.666  51.141  1.00  0.00     0.164 HD
HETATM   14  H   UNL     1       7.873  26.167  52.118  1.00  0.00     0.170 HD
BRANCH  11  15
HETATM   15  C   UNL     1       5.051  27.504  49.943  1.00  0.00     0.089 C 
HETATM   16  C   UNL     1       4.540  26.394  49.002  1.00  0.00     0.058 C 
HETATM   17  C   UNL     1       3.455  26.937  48.096  1.00  0.00     0.190 C 
HETATM   18  N   UNL     1       2.357  27.505  48.953  1.00  0.00    -0.067 N 
HETATM   19  C   UNL     1       2.690  25.933  47.260  1.00  0.00     0.035 C 
HETATM   20  H   UNL     1       2.074  26.772  49.624  1.00  0.00     0.280 HD
HETATM   21  C   UNL     1       2.800  28.686  49.752  1.00  0.00     0.237 C 
HETATM   22  C   UNL     1       1.184  27.701  48.026  1.00  0.00     0.235 C 
HETATM   23  C   UNL     1       3.915  28.232  50.687  1.00  0.00     0.053 C 
HETATM   24  C   UNL     1       1.415  26.692  46.901  1.00  0.00     0.030 C 
ENDBRANCH  11  15
ENDBRANCH   7   9
TORSDOF 2
ENDMDL
MODEL 3
REMARK VINA RESULT:      -8.7      5.698      8.328
REMARK  2 active torsions:
REMARK  status: ('A' for Active; 'I' for Inactive)
REMARK    1  A    between atoms: C_7  and  N_8 
REMARK       I    between atoms: N_8  and  C_9 
REMARK       I    between atoms: C_9  and  N_10 
REMARK    2  A    between atoms: N_10  and  C_11 
ROOT
HETATM    1  C   UNL     1       8.058  22.203  53.546  1.00  0.00     0.025 A 
HETATM    2  C   UNL     1       8.180  22.609  54.876  1.00  0.00     0.044 A 
HETATM    3  C   UNL     1       8.549  21.664  55.890  1.00  0.00     0.099 C 
HETATM    4  N   UNL     1       8.846  20.898  56.708  1.00  0.00    -0.191 NA
HETATM    5  C   UNL     1       7.937  23.944  55.211  1.00  0.00     0.025 A 
HETATM    6  C   UNL     1       7.565  24.866  54.225  1.00  0.00     0.031 A 
HETATM    7  C   UNL     1       7.429  24.464  52.894  1.00  0.00     0.036 A 
HETATM    8  C   UNL     1       7.686  23.127  52.563  1.00  0.00     0.031 A 
ENDROOT
BRANCH   7   9
HETATM    9  N   UNL     1       7.035  25.321  51.846  1.00  0.00    -0.309 N 
HETATM   10  C   UNL     1       5.759  25.576  51.400  1.00  0.00     0.321 C 
HETATM   11  N   UNL     1       5.774  26.435  50.316  1.00  0.00    -0.338 N 
HETATM   12  O   UNL     1       4.713  25.106  51.832  1.00  0.00    -0.247 OA
HETATM   13  H   UNL     1       6.577  27.045  50.243  1.00  0.00     0.164 HD
HETATM   14  H   UNL     1       7.785  25.704  51.290  1.00  0.00     0.170 HD
BRANCH  11  15
HETATM   15  C   UNL     1       4.567  26.815  49.589  1.00  0.00     0.089 C 
HETATM   16  C   UNL     1       4.081  28.226  49.980  1.00  0.00     0.058 C 
HETATM   17  C   UNL     1       2.844  28.589  49.185  1.00  0.00     0.190 C 
HETATM   18  N   UNL     1       3.169  28.486  47.720  1.00  0.00    -0.067 N 
HETATM   19  C   UNL     1       2.360  30.021  49.282  1.00  0.00     0.035 C 
HETATM   20  H   UNL     1       4.014  29.056  47.547  1.00  0.00     0.280 HD
HETATM   21  C   UNL     1       3.487  27.090  47.296  1.00  0.00     0.237 C 
HETATM   22  C   UNL     1       2.039  29.183  47.007  1.00  0.00     0.235 C 
HETATM   23  C   UNL     1       4.720  26.631  48.067  1.00  0.00     0.053 C 
HETATM   24  C   UNL     1       1.488  30.169  48.038  1.00  0.00     0.030 C 
ENDBRANCH  11  15
ENDBRANCH   7   9
TORSDOF 2
ENDMDL
MODEL 4
REMARK VINA RESULT:      -8.6      5.490      8.855
REMARK  2 active torsions:
REMARK  status: ('A' for Active; 'I' for Inactive)
REMARK    1  A    between atoms: C_7  and  N_8 
REMARK       I    between atoms: N_8  and  C_9 
REMARK       I    between atoms: C_9  and  N_10 
REMARK    2  A    between atoms: N_10  and  C_11 
ROOT
HETATM    1  C   UNL     1       3.338  28.845  49.162  1.00  0.00     0.025 A 
HETATM    2  C   UNL     1       2.930  28.157  48.017  1.00  0.00     0.044 A 
HETATM    3  C   UNL     1       1.932  28.718  47.153  1.00  0.00     0.099 C 
HETATM    4  N   UNL     1       1.123  29.172  46.457  1.00  0.00    -0.191 NA
HETATM    5  C   UNL     1       3.501  26.916  47.723  1.00  0.00     0.025 A 
HETATM    6  C   UNL     1       4.468  26.361  48.571  1.00  0.00     0.031 A 
HETATM    7  C   UNL     1       4.871  27.038  49.724  1.00  0.00     0.036 A 
HETATM    8  C   UNL     1       4.303  28.288  50.007  1.00  0.00     0.031 A 
ENDROOT
BRANCH   7   9
HETATM    9  N   UNL     1       5.818  26.540  50.643  1.00  0.00    -0.309 N 
HETATM   10  C   UNL     1       5.669  25.491  51.520  1.00  0.00     0.321 C 
HETATM   11  N   UNL     1       6.802  25.331  52.298  1.00  0.00    -0.338 N 
HETATM   12  O   UNL     1       4.682  24.783  51.671  1.00  0.00    -0.247 OA
HETATM   13  H   UNL     1       7.666  25.676  51.903  1.00  0.00     0.164 HD
HETATM   14  H   UNL     1       6.660  27.088  50.742  1.00  0.00     0.170 HD
BRANCH  11  15
HETATM   15  C   UNL     1       6.894  24.345  53.371  1.00  0.00     0.089 C 
HETATM   16  C   UNL     1       7.554  23.036  52.892  1.00  0.00     0.058 C 
HETATM   17  C   UNL     1       7.652  22.053  54.039  1.00  0.00     0.190 C 
HETATM   18  N   UNL     1       8.421  22.699  55.159  1.00  0.00    -0.067 N 
HETATM   19  C   UNL     1       8.469  20.799  53.803  1.00  0.00     0.035 C 
HETATM   20  H   UNL     1       9.313  23.043  54.767  1.00  0.00     0.280 HD
HETATM   21  C   UNL     1       7.713  23.878  55.740  1.00  0.00     0.237 C 
HETATM   22  C   UNL     1       8.779  21.578  56.100  1.00  0.00     0.235 C 
HETATM   23  C   UNL     1       7.551  24.922  54.640  1.00  0.00     0.053 C 
HETATM   24  C   UNL     1       8.784  20.328  55.220  1.00  0.00     0.030 C 
ENDBRANCH  11  15
ENDBRANCH   7   9
TORSDOF 2
ENDMDL
MODEL 5
REMARK VINA RESULT:      -8.1      1.391      2.660
REMARK  2 active torsions:
REMARK  status: ('A' for Active; 'I' for Inactive)
REMARK    1  A    between atoms: C_7  and  N_8 
REMARK       I    between atoms: N_8  and  C_9 
REMARK       I    between atoms: C_9  and  N_10 
REMARK    2  A    between atoms: N_10  and  C_11 
ROOT
HETATM    1  C   UNL     1       8.187  21.935  55.711  1.00  0.00     0.025 A 
HETATM    2  C   UNL     1       8.220  22.045  54.320  1.00  0.00     0.044 A 
HETATM    3  C   UNL     1       8.376  20.875  53.505  1.00  0.00     0.099 C 
HETATM    4  N   UNL     1       8.504  19.928  52.848  1.00  0.00    -0.191 NA
HETATM    5  C   UNL     1       8.102  23.305  53.729  1.00  0.00     0.025 A 
HETATM    6  C   UNL     1       7.962  24.451  54.522  1.00  0.00     0.031 A 
HETATM    7  C   UNL     1       7.940  24.349  55.915  1.00  0.00     0.036 A 
HETATM    8  C   UNL     1       8.047  23.081  56.502  1.00  0.00     0.031 A 
ENDROOT
BRANCH   7   9
HETATM    9  N   UNL     1       7.827  25.452  56.787  1.00  0.00    -0.309 N 
HETATM   10  C   UNL     1       7.360  26.712  56.494  1.00  0.00     0.321 C 
HETATM   11  N   UNL     1       7.448  27.543  57.596  1.00  0.00    -0.338 N 
HETATM   12  O   UNL     1       6.948  27.120  55.415  1.00  0.00    -0.247 OA
HETATM   13  H   UNL     1       7.444  27.087  58.499  1.00  0.00     0.164 HD
HETATM   14  H   UNL     1       8.240  25.332  57.699  1.00  0.00     0.170 HD
BRANCH  11  15
HETATM   15  C   UNL     1       7.097  28.959  57.552  1.00  0.00     0.089 C 
HETATM   16  C   UNL     1       5.570  29.173  57.550  1.00  0.00     0.058 C 
HETATM   17  C   UNL     1       5.251  30.652  57.530  1.00  0.00     0.190 C 
HETATM   18  N   UNL     1       5.913  31.302  58.715  1.00  0.00    -0.067 N 
HETATM   19  C   UNL     1       3.805  31.048  57.745  1.00  0.00     0.035 C 
HETATM   20  H   UNL     1       5.626  30.778  59.558  1.00  0.00     0.280 HD
HETATM   21  C   UNL     1       7.404  31.241  58.647  1.00  0.00     0.237 C 
HETATM   22  C   UNL     1       5.284  32.666  58.830  1.00  0.00     0.235 C 
HETATM   23  C   UNL     1       7.818  29.774  58.644  1.00  0.00     0.053 C 
HETATM   24  C   UNL     1       3.913  32.510  58.170  1.00  0.00     0.030 C 
ENDBRANCH  11  15
ENDBRANCH   7   9
TORSDOF 2
ENDMDL
MODEL 6
REMARK VINA RESULT:      -8.1      1.546      9.029
REMARK  2 active torsions:
REMARK  status: ('A' for Active; 'I' for Inactive)
REMARK    1  A    between atoms: C_7  and  N_8 
REMARK       I    between atoms: N_8  and  C_9 
REMARK       I    between atoms: C_9  and  N_10 
REMARK    2  A    between atoms: N_10  and  C_11 
ROOT
HETATM    1  C   UNL     1       5.187  30.856  57.602  1.00  0.00     0.025 A 
HETATM    2  C   UNL     1       5.961  31.476  58.584  1.00  0.00     0.044 A 
HETATM    3  C   UNL     1       5.454  32.616  59.293  1.00  0.00     0.099 C 
HETATM    4  N   UNL     1       5.043  33.538  59.863  1.00  0.00    -0.191 NA
HETATM    5  C   UNL     1       7.235  30.978  58.869  1.00  0.00     0.025 A 
HETATM    6  C   UNL     1       7.738  29.873  58.171  1.00  0.00     0.031 A 
HETATM    7  C   UNL     1       6.973  29.255  57.179  1.00  0.00     0.036 A 
HETATM    8  C   UNL     1       5.691  29.752  56.906  1.00  0.00     0.031 A 
ENDROOT
BRANCH   7   9
HETATM    9  N   UNL     1       7.411  28.155  56.413  1.00  0.00    -0.309 N 
HETATM   10  C   UNL     1       7.042  26.836  56.545  1.00  0.00     0.321 C 
HETATM   11  N   UNL     1       7.724  26.038  55.644  1.00  0.00    -0.338 N 
HETATM   12  O   UNL     1       6.255  26.362  57.354  1.00  0.00    -0.247 OA
HETATM   13  H   UNL     1       8.057  26.496  54.807  1.00  0.00     0.164 HD
HETATM   14  H   UNL     1       8.165  28.344  55.770  1.00  0.00     0.170 HD
BRANCH  11  15
HETATM   15  C   UNL     1       7.589  24.585  55.613  1.00  0.00     0.089 C 
HETATM   16  C   UNL     1       7.742  24.024  54.184  1.00  0.00     0.058 C 
HETATM   17  C   UNL     1       7.621  22.516  54.201  1.00  0.00     0.190 C 
HETATM   18  N   UNL     1       8.658  21.963  55.141  1.00  0.00    -0.067 N 
HETATM   19  C   UNL     1       7.963  21.783  52.920  1.00  0.00     0.035 C 
HETATM   20  H   UNL     1       9.574  22.351  54.859  1.00  0.00     0.280 HD
HETATM   21  C   UNL     1       8.427  22.370  56.559  1.00  0.00     0.237 C 
HETATM   22  C   UNL     1       8.718  20.485  54.850  1.00  0.00     0.235 C 
HETATM   23  C   UNL     1       8.512  23.891  56.634  1.00  0.00     0.053 C 
HETATM   24  C   UNL     1       8.236  20.362  53.405  1.00  0.00     0.030 C 
ENDBRANCH  11  15
ENDBRANCH   7   9
TORSDOF 2
ENDMDL
MODEL 7
REMARK VINA RESULT:      -8.0      5.643      7.941
REMARK  2 active torsions:
REMARK  status: ('A' for Active; 'I' for Inactive)
REMARK    1  A    between atoms: C_7  and  N_8 
REMARK       I    between atoms: N_8  and  C_9 
REMARK       I    between atoms: C_9  and  N_10 
REMARK    2  A    between atoms: N_10  and  C_11 
ROOT
HETATM    1  C   UNL     1       2.299  28.023  48.675  1.00  0.00     0.025 A 
HETATM    2  C   UNL     1       1.769  27.114  47.758  1.00  0.00     0.044 A 
HETATM    3  C   UNL     1       0.517  27.384  47.112  1.00  0.00     0.099 C 
HETATM    4  N   UNL     1      -0.497  27.604  46.593  1.00  0.00    -0.191 NA
HETATM    5  C   UNL     1       2.467  25.936  47.477  1.00  0.00     0.025 A 
HETATM    6  C   UNL     1       3.685  25.664  48.115  1.00  0.00     0.031 A 
HETATM    7  C   UNL     1       4.215  26.564  49.043  1.00  0.00     0.036 A 
HETATM    8  C   UNL     1       3.515  27.749  49.311  1.00  0.00     0.031 A 
ENDROOT
BRANCH   7   9
HETATM    9  N   UNL     1       5.419  26.356  49.746  1.00  0.00    -0.309 N 
HETATM   10  C   UNL     1       5.575  25.859  51.019  1.00  0.00     0.321 C 
HETATM   11  N   UNL     1       6.909  25.849  51.387  1.00  0.00    -0.338 N 
HETATM   12  O   UNL     1       4.695  25.498  51.789  1.00  0.00    -0.247 OA
HETATM   13  H   UNL     1       7.579  25.808  50.631  1.00  0.00     0.164 HD
HETATM   14  H   UNL     1       6.251  26.718  49.304  1.00  0.00     0.170 HD
BRANCH  11  15
HETATM   15  C   UNL     1       7.362  25.447  52.715  1.00  0.00     0.089 C 
HETATM   16  C   UNL     1       6.972  26.481  53.792  1.00  0.00     0.058 C 
HETATM   17  C   UNL     1       7.437  26.014  55.154  1.00  0.00     0.190 C 
HETATM   18  N   UNL     1       6.842  24.659  55.426  1.00  0.00    -0.067 N 
HETATM   19  C   UNL     1       6.949  26.798  56.355  1.00  0.00     0.035 C 
HETATM   20  H   UNL     1       5.820  24.734  55.287  1.00  0.00     0.280 HD
HETATM   21  C   UNL     1       7.338  23.612  54.485  1.00  0.00     0.237 C 
HETATM   22  C   UNL     1       7.050  24.416  56.899  1.00  0.00     0.235 C 
HETATM   23  C   UNL     1       6.927  24.012  53.072  1.00  0.00     0.053 C 
HETATM   24  C   UNL     1       7.149  25.816  57.506  1.00  0.00     0.030 C 
ENDBRANCH  11  15
ENDBRANCH   7   9
TORSDOF 2
ENDMDL
MODEL 8
REMARK VINA RESULT:      -7.7      3.952      8.877
REMARK  2 active torsions:
REMARK  status: ('A' for Active; 'I' for Inactive)
REMARK    1  A    between atoms: C_7  and  N_8 
REMARK       I    between atoms: N_8  and  C_9 
REMARK       I    between atoms: C_9  and  N_10 
REMARK    2  A    between atoms: N_10  and  C_11 
ROOT
HETATM    1  C   UNL     1       3.942  30.803  55.222  1.00  0.00     0.025 A 
HETATM    2  C   UNL     1       3.485  31.246  53.979  1.00  0.00     0.044 A 
HETATM    3  C   UNL     1       3.112  32.618  53.792  1.00  0.00     0.099 C 
HETATM    4  N   UNL     1       2.810  33.728  53.644  1.00  0.00    -0.191 NA
HETATM    5  C   UNL     1       3.392  30.340  52.920  1.00  0.00     0.025 A 
HETATM    6  C   UNL     1       3.744  28.996  53.102  1.00  0.00     0.031 A 
HETATM    7  C   UNL     1       4.190  28.544  54.346  1.00  0.00     0.036 A 
HETATM    8  C   UNL     1       4.293  29.460  55.402  1.00  0.00     0.031 A 
ENDROOT
BRANCH   7   9
HETATM    9  N   UNL     1       4.541  27.206  54.621  1.00  0.00    -0.309 N 
HETATM   10  C   UNL     1       5.758  26.597  54.424  1.00  0.00     0.321 C 
HETATM   11  N   UNL     1       5.704  25.258  54.766  1.00  0.00    -0.338 N 
HETATM   12  O   UNL     1       6.778  27.103  53.972  1.00  0.00    -0.247 OA
HETATM   13  H   UNL     1       4.996  24.999  55.440  1.00  0.00     0.164 HD
HETATM   14  H   UNL     1       3.779  26.601  54.889  1.00  0.00     0.170 HD
BRANCH  11  15
HETATM   15  C   UNL     1       6.829  24.346  54.584  1.00  0.00     0.089 C 
HETATM   16  C   UNL     1       7.029  23.428  55.806  1.00  0.00     0.058 C 
HETATM   17  C   UNL     1       8.188  22.484  55.564  1.00  0.00     0.190 C 
HETATM   18  N   UNL     1       7.916  21.704  54.307  1.00  0.00    -0.067 N 
HETATM   19  C   UNL     1       8.388  21.368  56.569  1.00  0.00     0.035 C 
HETATM   20  H   UNL     1       6.981  21.274  54.403  1.00  0.00     0.280 HD
HETATM   21  C   UNL     1       7.879  22.567  53.089  1.00  0.00     0.237 C 
HETATM   22  C   UNL     1       8.906  20.568  54.317  1.00  0.00     0.235 C 
HETATM   23  C   UNL     1       6.743  23.570  53.255  1.00  0.00     0.053 C 
HETATM   24  C   UNL     1       9.238  20.364  55.795  1.00  0.00     0.030 C 
ENDBRANCH  11  15
ENDBRANCH   7   9
TORSDOF 2
ENDMDL
MODEL 9
REMARK VINA RESULT:      -7.2      2.173      9.249
REMARK  2 active torsions:
REMARK  status: ('A' for Active; 'I' for Inactive)
REMARK    1  A    between atoms: C_7  and  N_8 
REMARK       I    between atoms: N_8  and  C_9 
REMARK       I    between atoms: C_9  and  N_10 
REMARK    2  A    between atoms: N_10  and  C_11 
ROOT
HETATM    1  C   UNL     1       4.376  33.174  57.902  1.00  0.00     0.025 A 
HETATM    2  C   UNL     1       4.768  33.459  59.211  1.00  0.00     0.044 A 
HETATM    3  C   UNL     1       4.132  34.516  59.943  1.00  0.00     0.099 C 
HETATM    4  N   UNL     1       3.617  35.372  60.532  1.00  0.00    -0.191 NA
HETATM    5  C   UNL     1       5.787  32.708  59.801  1.00  0.00     0.025 A 
HETATM    6  C   UNL     1       6.419  31.683  59.084  1.00  0.00     0.031 A 
HETATM    7  C   UNL     1       6.039  31.400  57.770  1.00  0.00     0.036 A 
HETATM    8  C   UNL     1       5.008  32.150  57.188  1.00  0.00     0.031 A 
ENDROOT
BRANCH   7   9
HETATM    9  N   UNL     1       6.638  30.404  56.971  1.00  0.00    -0.309 N 
HETATM   10  C   UNL     1       6.235  29.099  56.811  1.00  0.00     0.321 C 
HETATM   11  N   UNL     1       7.105  28.409  55.986  1.00  0.00    -0.338 N 
HETATM   12  O   UNL     1       5.273  28.548  57.331  1.00  0.00    -0.247 OA
HETATM   13  H   UNL     1       7.634  28.968  55.329  1.00  0.00     0.164 HD
HETATM   14  H   UNL     1       7.526  30.650  56.559  1.00  0.00     0.170 HD
BRANCH  11  15
HETATM   15  C   UNL     1       6.969  26.983  55.704  1.00  0.00     0.089 C 
HETATM   16  C   UNL     1       7.321  26.651  54.239  1.00  0.00     0.058 C 
HETATM   17  C   UNL     1       7.191  25.162  53.998  1.00  0.00     0.190 C 
HETATM   18  N   UNL     1       8.079  24.439  54.974  1.00  0.00    -0.067 N 
HETATM   19  C   UNL     1       7.709  24.631  52.677  1.00  0.00     0.035 C 
HETATM   20  H   UNL     1       9.028  24.840  54.889  1.00  0.00     0.280 HD
HETATM   21  C   UNL     1       7.650  24.625  56.392  1.00  0.00     0.237 C 
HETATM   22  C   UNL     1       8.173  23.025  54.461  1.00  0.00     0.235 C 
HETATM   23  C   UNL     1       7.732  26.111  56.720  1.00  0.00     0.053 C 
HETATM   24  C   UNL     1       7.902  23.144  52.961  1.00  0.00     0.030 C 
ENDBRANCH  11  15
ENDBRANCH   7   9
TORSDOF 2
ENDMDL
MODEL 10
REMARK VINA RESULT:      -7.0      4.706      9.264
REMARK  2 active torsions:
REMARK  status: ('A' for Active; 'I' for Inactive)
REMARK    1  A    between atoms: C_7  and  N_8 
REMARK       I    between atoms: N_8  and  C_9 
REMARK       I    between atoms: C_9  and  N_10 
REMARK    2  A    between atoms: N_10  and  C_11 
ROOT
HETATM    1  C   UNL     1       8.255  28.050  57.349  1.00  0.00     0.025 A 
HETATM    2  C   UNL     1       7.809  29.251  57.904  1.00  0.00     0.044 A 
HETATM    3  C   UNL     1       8.482  29.819  59.036  1.00  0.00     0.099 C 
HETATM    4  N   UNL     1       9.027  30.275  59.952  1.00  0.00    -0.191 NA
HETATM    5  C   UNL     1       6.699  29.892  57.349  1.00  0.00     0.025 A 
HETATM    6  C   UNL     1       6.032  29.334  56.251  1.00  0.00     0.031 A 
HETATM    7  C   UNL     1       6.466  28.127  55.698  1.00  0.00     0.036 A 
HETATM    8  C   UNL     1       7.587  27.494  56.252  1.00  0.00     0.031 A 
ENDROOT
BRANCH   7   9
HETATM    9  N   UNL     1       5.838  27.485  54.610  1.00  0.00    -0.309 N 
HETATM   10  C   UNL     1       5.859  27.858  53.286  1.00  0.00     0.321 C 
HETATM   11  N   UNL     1       5.083  27.008  52.519  1.00  0.00    -0.338 N 
HETATM   12  O   UNL     1       6.431  28.823  52.795  1.00  0.00    -0.247 OA
HETATM   13  H   UNL     1       4.947  26.076  52.887  1.00  0.00     0.164 HD
HETATM   14  H   UNL     1       5.213  26.730  54.850  1.00  0.00     0.170 HD
BRANCH  11  15
HETATM   15  C   UNL     1       4.858  27.212  51.092  1.00  0.00     0.089 C 
HETATM   16  C   UNL     1       4.375  25.922  50.397  1.00  0.00     0.058 C 
HETATM   17  C   UNL     1       4.129  26.185  48.926  1.00  0.00     0.190 C 
HETATM   18  N   UNL     1       3.133  27.305  48.799  1.00  0.00    -0.067 N 
HETATM   19  C   UNL     1       3.444  25.088  48.136  1.00  0.00     0.035 C 
HETATM   20  H   UNL     1       2.308  27.055  49.368  1.00  0.00     0.280 HD
HETATM   21  C   UNL     1       3.653  28.602  49.326  1.00  0.00     0.237 C 
HETATM   22  C   UNL     1       2.678  27.278  47.362  1.00  0.00     0.235 C 
HETATM   23  C   UNL     1       3.949  28.424  50.811  1.00  0.00     0.053 C 
HETATM   24  C   UNL     1       2.908  25.833  46.917  1.00  0.00     0.030 C 
ENDBRANCH  11  15
ENDBRANCH   7   9
TORSDOF 2
ENDMDL
