MODEL 1
REMARK VINA RESULT:      -9.2      0.000      0.000
REMARK  6 active torsions:
REMARK  status: ('A' for Active; 'I' for Inactive)
REMARK    1  A    between atoms: O_2  and  C_3 
REMARK    2  A    between atoms: C_6  and  C_7 
REMARK    3  A    between atoms: C_7  and  N_8 
REMARK       I    between atoms: N_8  and  C_9 
REMARK    4  A    between atoms: C_9  and  C_10 
REMARK    5  A    between atoms: C_10  and  O_11 
REMARK    6  A    between atoms: N_12  and  C_13 
ROOT
HETATM    1  C   UNL     1       4.729  26.973  52.914  1.00  0.00     0.256 C 
HETATM    2  N   UNL     1       4.790  28.033  51.903  1.00  0.00    -0.248 N 
HETATM    3  C   UNL     1       5.836  28.939  51.911  1.00  0.00     0.330 C 
HETATM    4  O   UNL     1       6.202  29.589  50.931  1.00  0.00    -0.246 OA
HETATM    5  N   UNL     1       6.527  29.089  53.077  1.00  0.00    -0.308 N 
HETATM    6  C   UNL     1       6.209  28.458  54.273  1.00  0.00     0.048 A 
HETATM    7  C   UNL     1       5.276  27.427  54.255  1.00  0.00     0.034 A 
HETATM    8  C   UNL     1       6.823  28.861  55.459  1.00  0.00     0.030 A 
HETATM    9  C   UNL     1       6.489  28.229  56.656  1.00  0.00     0.002 A 
HETATM   10  C   UNL     1       5.556  27.195  56.662  1.00  0.00     0.001 A 
HETATM   11  C   UNL     1       4.958  26.790  55.467  1.00  0.00     0.015 A 
HETATM   12  H   UNL     1       7.222  29.824  53.061  1.00  0.00     0.170 HD
ENDROOT
BRANCH   1  13
HETATM   13  C   UNL     1       5.505  25.659  52.484  1.00  0.00     0.279 C 
HETATM   14  N   UNL     1       6.881  25.642  52.608  1.00  0.00    -0.352 N 
HETATM   15  H   UNL     1       7.369  26.524  52.698  1.00  0.00     0.162 HD
HETATM   16  O   UNL     1       4.870  24.666  52.109  1.00  0.00    -0.268 OA
BRANCH  14  17
HETATM   17  C   UNL     1       7.620  24.530  52.059  1.00  0.00     0.161 C 
BRANCH  17  18
HETATM   18  C   UNL     1       7.917  23.472  53.087  1.00  0.00    -0.040 A 
HETATM   19  C   UNL     1       8.037  22.128  52.707  1.00  0.00     0.011 A 
HETATM   20  C   UNL     1       8.402  21.151  53.639  1.00  0.00     0.037 A 
HETATM   21  C   UNL     1       8.653  21.506  54.964  1.00  0.00     0.068 A 
HETATM   22  C   UNL     1       8.496  22.836  55.355  1.00  0.00     0.037 A 
HETATM   23  C   UNL     1       8.136  23.815  54.426  1.00  0.00     0.011 A 
BRANCH  21  24
HETATM   24  O   UNL     1       9.045  20.655  55.961  1.00  0.00    -0.356 OA
HETATM   25  C   UNL     1       8.529  20.921  57.259  1.00  0.00     0.210 C 
ENDBRANCH  21  24
ENDBRANCH  17  18
ENDBRANCH  14  17
ENDBRANCH   1  13
BRANCH   1  26
HETATM   26  O   UNL     1       3.348  26.659  53.150  1.00  0.00    -0.359 OA
HETATM   27  H   UNL     1       3.345  25.709  53.378  1.00  0.00     0.213 HD
ENDBRANCH   1  26
BRANCH   2  28
HETATM   28  C   UNL     1       3.828  28.086  50.834  1.00  0.00     0.120 A 
HETATM   29  C   UNL     1       3.917  27.293  49.683  1.00  0.00     0.146 A 
HETATM   30  F   UNL     1       4.958  26.472  49.491  1.00  0.00    -0.204 F 
HETATM   31  C   UNL     1       2.961  27.355  48.665  1.00  0.00     0.045 A 
HETATM   32  C   UNL     1       1.870  28.209  48.784  1.00  0.00     0.006 A 
HETATM   33  C   UNL     1       1.740  28.994  49.926  1.00  0.00     0.045 A 
HETATM   34  C   UNL     1       2.708  28.929  50.932  1.00  0.00     0.146 A 
HETATM   35  F   UNL     1       2.481  29.638  52.049  1.00  0.00    -0.204 F 
ENDBRANCH   2  28
TORSDOF 6
ENDMDL
MODEL 2
REMARK VINA RESULT:      -9.0      1.751      2.340
REMARK  6 active torsions:
REMARK  status: ('A' for Active; 'I' for Inactive)
REMARK    1  A    between atoms: O_2  and  C_3 
REMARK    2  A    between atoms: C_6  and  C_7 
REMARK    3  A    between atoms: C_7  and  N_8 
REMARK       I    between atoms: N_8  and  C_9 
REMARK    4  A    between atoms: C_9  and  C_10 
REMARK    5  A    between atoms: C_10  and  O_11 
REMARK    6  A    between atoms: N_12  and  C_13 
ROOT
HETATM    1  C   UNL     1       4.420  28.302  52.749  1.00  0.00     0.256 C 
HETATM    2  N   UNL     1       4.069  29.103  51.572  1.00  0.00    -0.248 N 
HETATM    3  C   UNL     1       4.324  30.463  51.558  1.00  0.00     0.330 C 
HETATM    4  O   UNL     1       4.444  31.138  50.535  1.00  0.00    -0.246 OA
HETATM    5  N   UNL     1       4.490  31.082  52.761  1.00  0.00    -0.308 N 
HETATM    6  C   UNL     1       4.346  30.465  53.997  1.00  0.00     0.048 A 
HETATM    7  C   UNL     1       4.254  29.078  54.042  1.00  0.00     0.034 A 
HETATM    8  C   UNL     1       4.296  31.233  55.160  1.00  0.00     0.030 A 
HETATM    9  C   UNL     1       4.140  30.605  56.395  1.00  0.00     0.002 A 
HETATM   10  C   UNL     1       4.044  29.217  56.463  1.00  0.00     0.001 A 
HETATM   11  C   UNL     1       4.109  28.456  55.294  1.00  0.00     0.015 A 
HETATM   12  H   UNL     1       4.586  32.088  52.705  1.00  0.00     0.170 HD
ENDROOT
BRANCH   1  13
HETATM   13  C   UNL     1       5.903  27.741  52.697  1.00  0.00     0.279 C 
HETATM   14  N   UNL     1       6.083  26.388  52.487  1.00  0.00    -0.352 N 
HETATM   15  H   UNL     1       5.301  25.766  52.644  1.00  0.00     0.162 HD
HETATM   16  O   UNL     1       6.858  28.522  52.785  1.00  0.00    -0.268 OA
BRANCH  14  17
HETATM   17  C   UNL     1       7.409  25.830  52.613  1.00  0.00     0.161 C 
BRANCH  17  18
HETATM   18  C   UNL     1       7.421  24.545  53.396  1.00  0.00    -0.040 A 
HETATM   19  C   UNL     1       7.820  23.347  52.787  1.00  0.00     0.011 A 
HETATM   20  C   UNL     1       7.921  22.165  53.529  1.00  0.00     0.037 A 
HETATM   21  C   UNL     1       7.625  22.167  54.891  1.00  0.00     0.068 A 
HETATM   22  C   UNL     1       7.190  23.348  55.494  1.00  0.00     0.037 A 
HETATM   23  C   UNL     1       7.092  24.531  54.756  1.00  0.00     0.011 A 
BRANCH  21  24
HETATM   24  O   UNL     1       7.714  21.091  55.732  1.00  0.00    -0.356 OA
HETATM   25  C   UNL     1       9.010  20.533  55.910  1.00  0.00     0.210 C 
ENDBRANCH  21  24
ENDBRANCH  17  18
ENDBRANCH  14  17
ENDBRANCH   1  13
BRANCH   1  26
HETATM   26  O   UNL     1       3.497  27.206  52.836  1.00  0.00    -0.359 OA
HETATM   27  H   UNL     1       4.051  26.430  53.049  1.00  0.00     0.213 HD
ENDBRANCH   1  26
BRANCH   2  28
HETATM   28  C   UNL     1       3.550  28.478  50.384  1.00  0.00     0.120 A 
HETATM   29  C   UNL     1       2.191  28.487  50.044  1.00  0.00     0.146 A 
HETATM   30  F   UNL     1       1.281  29.040  50.857  1.00  0.00    -0.204 F 
HETATM   31  C   UNL     1       1.716  27.881  48.877  1.00  0.00     0.045 A 
HETATM   32  C   UNL     1       2.601  27.261  48.002  1.00  0.00     0.006 A 
HETATM   33  C   UNL     1       3.960  27.254  48.300  1.00  0.00     0.045 A 
HETATM   34  C   UNL     1       4.422  27.855  49.474  1.00  0.00     0.146 A 
HETATM   35  F   UNL     1       5.750  27.899  49.661  1.00  0.00    -0.204 F 
ENDBRANCH   2  28
TORSDOF 6
ENDMDL
MODEL 3
REMARK VINA RESULT:      -9.0      1.801      2.018
REMARK  6 active torsions:
REMARK  status: ('A' for Active; 'I' for Inactive)
REMARK    1  A    between atoms: O_2  and  C_3 
REMARK    2  A    between atoms: C_6  and  C_7 
REMARK    3  A    between atoms: C_7  and  N_8 
REMARK       I    between atoms: N_8  and  C_9 
REMARK    4  A    between atoms: C_9  and  C_10 
REMARK    5  A    between atoms: C_10  and  O_11 
REMARK    6  A    between atoms: N_12  and  C_13 
ROOT
HETATM    1  C   UNL     1       4.366  28.356  52.820  1.00  0.00     0.256 C 
HETATM    2  N   UNL     1       4.026  29.102  51.603  1.00  0.00    -0.248 N 
HETATM    3  C   UNL     1       4.255  30.465  51.540  1.00  0.00     0.330 C 
HETATM    4  O   UNL     1       4.385  31.101  50.493  1.00  0.00    -0.246 OA
HETATM    5  N   UNL     1       4.380  31.135  52.721  1.00  0.00    -0.308 N 
HETATM    6  C   UNL     1       4.219  30.566  53.977  1.00  0.00     0.048 A 
HETATM    7  C   UNL     1       4.154  29.180  54.077  1.00  0.00     0.034 A 
HETATM    8  C   UNL     1       4.127  31.379  55.106  1.00  0.00     0.030 A 
HETATM    9  C   UNL     1       3.954  30.798  56.361  1.00  0.00     0.002 A 
HETATM   10  C   UNL     1       3.885  29.412  56.484  1.00  0.00     0.001 A 
HETATM   11  C   UNL     1       3.992  28.606  55.349  1.00  0.00     0.015 A 
HETATM   12  H   UNL     1       4.457  32.140  52.626  1.00  0.00     0.170 HD
ENDROOT
BRANCH   1  13
HETATM   13  C   UNL     1       5.861  27.825  52.825  1.00  0.00     0.279 C 
HETATM   14  N   UNL     1       6.072  26.471  52.996  1.00  0.00    -0.352 N 
HETATM   15  H   UNL     1       5.323  25.909  53.379  1.00  0.00     0.162 HD
HETATM   16  O   UNL     1       6.792  28.611  52.618  1.00  0.00    -0.268 OA
BRANCH  14  17
HETATM   17  C   UNL     1       7.422  25.991  53.181  1.00  0.00     0.161 C 
BRANCH  17  18
HETATM   18  C   UNL     1       7.467  24.551  53.616  1.00  0.00    -0.040 A 
HETATM   19  C   UNL     1       7.809  23.545  52.703  1.00  0.00     0.011 A 
HETATM   20  C   UNL     1       7.942  22.215  53.119  1.00  0.00     0.037 A 
HETATM   21  C   UNL     1       7.735  21.876  54.455  1.00  0.00     0.068 A 
HETATM   22  C   UNL     1       7.355  22.868  55.360  1.00  0.00     0.037 A 
HETATM   23  C   UNL     1       7.225  24.197  54.948  1.00  0.00     0.011 A 
BRANCH  21  24
HETATM   24  O   UNL     1       7.862  20.624  54.993  1.00  0.00    -0.356 OA
HETATM   25  C   UNL     1       8.818  20.479  56.036  1.00  0.00     0.210 C 
ENDBRANCH  21  24
ENDBRANCH  17  18
ENDBRANCH  14  17
ENDBRANCH   1  13
BRANCH   1  26
HETATM   26  O   UNL     1       3.463  27.246  52.931  1.00  0.00    -0.359 OA
HETATM   27  H   UNL     1       3.446  27.034  53.884  1.00  0.00     0.213 HD
ENDBRANCH   1  26
BRANCH   2  28
HETATM   28  C   UNL     1       3.548  28.418  50.431  1.00  0.00     0.120 A 
HETATM   29  C   UNL     1       4.366  27.616  49.625  1.00  0.00     0.146 A 
HETATM   30  F   UNL     1       5.676  27.493  49.879  1.00  0.00    -0.204 F 
HETATM   31  C   UNL     1       3.874  26.952  48.498  1.00  0.00     0.045 A 
HETATM   32  C   UNL     1       2.529  27.060  48.157  1.00  0.00     0.006 A 
HETATM   33  C   UNL     1       1.685  27.831  48.950  1.00  0.00     0.045 A 
HETATM   34  C   UNL     1       2.193  28.497  50.069  1.00  0.00     0.146 A 
HETATM   35  F   UNL     1       1.314  29.148  50.848  1.00  0.00    -0.204 F 
ENDBRANCH   2  28
TORSDOF 6
ENDMDL
MODEL 4
REMARK VINA RESULT:      -8.9      2.163      5.120
REMARK  6 active torsions:
REMARK  status: ('A' for Active; 'I' for Inactive)
REMARK    1  A    between atoms: O_2  and  C_3 
REMARK    2  A    between atoms: C_6  and  C_7 
REMARK    3  A    between atoms: C_7  and  N_8 
REMARK       I    between atoms: N_8  and  C_9 
REMARK    4  A    between atoms: C_9  and  C_10 
REMARK    5  A    between atoms: C_10  and  O_11 
REMARK    6  A    between atoms: N_12  and  C_13 
ROOT
HETATM    1  C   UNL     1       6.034  28.136  53.310  1.00  0.00     0.256 C 
HETATM    2  N   UNL     1       5.518  28.365  54.663  1.00  0.00    -0.248 N 
HETATM    3  C   UNL     1       4.156  28.502  54.872  1.00  0.00     0.330 C 
HETATM    4  O   UNL     1       3.594  28.302  55.949  1.00  0.00    -0.246 OA
HETATM    5  N   UNL     1       3.389  28.845  53.798  1.00  0.00    -0.308 N 
HETATM    6  C   UNL     1       3.882  29.140  52.533  1.00  0.00     0.048 A 
HETATM    7  C   UNL     1       5.213  28.854  52.253  1.00  0.00     0.034 A 
HETATM    8  C   UNL     1       3.046  29.712  51.574  1.00  0.00     0.030 A 
HETATM    9  C   UNL     1       3.553  30.016  50.312  1.00  0.00     0.002 A 
HETATM   10  C   UNL     1       4.884  29.738  50.010  1.00  0.00     0.001 A 
HETATM   11  C   UNL     1       5.709  29.153  50.973  1.00  0.00     0.015 A 
HETATM   12  H   UNL     1       2.417  29.020  54.017  1.00  0.00     0.170 HD
ENDROOT
BRANCH   1  13
HETATM   13  C   UNL     1       6.101  26.600  52.922  1.00  0.00     0.279 C 
HETATM   14  N   UNL     1       7.338  26.049  52.646  1.00  0.00    -0.352 N 
HETATM   15  H   UNL     1       8.107  26.670  52.430  1.00  0.00     0.162 HD
HETATM   16  O   UNL     1       5.070  25.918  52.933  1.00  0.00    -0.268 OA
BRANCH  14  17
HETATM   17  C   UNL     1       7.404  24.705  52.121  1.00  0.00     0.161 C 
BRANCH  17  18
HETATM   18  C   UNL     1       7.775  23.694  53.172  1.00  0.00    -0.040 A 
HETATM   19  C   UNL     1       7.773  22.325  52.870  1.00  0.00     0.011 A 
HETATM   20  C   UNL     1       8.203  21.384  53.812  1.00  0.00     0.037 A 
HETATM   21  C   UNL     1       8.640  21.800  55.068  1.00  0.00     0.068 A 
HETATM   22  C   UNL     1       8.606  23.158  55.387  1.00  0.00     0.037 A 
HETATM   23  C   UNL     1       8.182  24.101  54.447  1.00  0.00     0.011 A 
BRANCH  21  24
HETATM   24  O   UNL     1       9.112  20.987  56.063  1.00  0.00    -0.356 OA
HETATM   25  C   UNL     1       8.475  21.103  57.330  1.00  0.00     0.210 C 
ENDBRANCH  21  24
ENDBRANCH  17  18
ENDBRANCH  14  17
ENDBRANCH   1  13
BRANCH   1  26
HETATM   26  O   UNL     1       7.348  28.708  53.230  1.00  0.00    -0.359 OA
HETATM   27  H   UNL     1       7.617  28.583  52.299  1.00  0.00     0.213 HD
ENDBRANCH   1  26
BRANCH   2  28
HETATM   28  C   UNL     1       6.401  28.349  55.799  1.00  0.00     0.120 A 
HETATM   29  C   UNL     1       6.860  29.513  56.429  1.00  0.00     0.146 A 
HETATM   30  F   UNL     1       6.541  30.725  55.954  1.00  0.00    -0.204 F 
HETATM   31  C   UNL     1       7.708  29.470  57.539  1.00  0.00     0.045 A 
HETATM   32  C   UNL     1       8.106  28.245  58.065  1.00  0.00     0.006 A 
HETATM   33  C   UNL     1       7.648  27.070  57.477  1.00  0.00     0.045 A 
HETATM   34  C   UNL     1       6.809  27.128  56.362  1.00  0.00     0.146 A 
HETATM   35  F   UNL     1       6.325  25.966  55.896  1.00  0.00    -0.204 F 
ENDBRANCH   2  28
TORSDOF 6
ENDMDL
MODEL 5
REMARK VINA RESULT:      -8.9      3.960      7.008
REMARK  6 active torsions:
REMARK  status: ('A' for Active; 'I' for Inactive)
REMARK    1  A    between atoms: O_2  and  C_3 
REMARK    2  A    between atoms: C_6  and  C_7 
REMARK    3  A    between atoms: C_7  and  N_8 
REMARK       I    between atoms: N_8  and  C_9 
REMARK    4  A    between atoms: C_9  and  C_10 
REMARK    5  A    between atoms: C_10  and  O_11 
REMARK    6  A    between atoms: N_12  and  C_13 
ROOT
HETATM    1  C   UNL     1       6.951  27.967  54.321  1.00  0.00     0.256 C 
HETATM    2  N   UNL     1       5.814  28.292  55.189  1.00  0.00    -0.248 N 
HETATM    3  C   UNL     1       5.459  27.436  56.217  1.00  0.00     0.330 C 
HETATM    4  O   UNL     1       4.819  27.772  57.213  1.00  0.00    -0.246 OA
HETATM    5  N   UNL     1       5.884  26.143  56.129  1.00  0.00    -0.308 N 
HETATM    6  C   UNL     1       6.578  25.607  55.053  1.00  0.00     0.048 A 
HETATM    7  C   UNL     1       7.088  26.473  54.091  1.00  0.00     0.034 A 
HETATM    8  C   UNL     1       6.752  24.227  54.951  1.00  0.00     0.030 A 
HETATM    9  C   UNL     1       7.441  23.698  53.861  1.00  0.00     0.002 A 
HETATM   10  C   UNL     1       7.959  24.547  52.885  1.00  0.00     0.001 A 
HETATM   11  C   UNL     1       7.791  25.928  53.003  1.00  0.00     0.015 A 
HETATM   12  H   UNL     1       5.527  25.535  56.855  1.00  0.00     0.170 HD
ENDROOT
BRANCH   1  13
HETATM   13  C   UNL     1       8.333  28.509  54.879  1.00  0.00     0.279 C 
HETATM   14  N   UNL     1       8.557  28.449  56.240  1.00  0.00    -0.352 N 
HETATM   15  H   UNL     1       7.764  28.328  56.856  1.00  0.00     0.162 HD
HETATM   16  O   UNL     1       9.196  28.914  54.091  1.00  0.00    -0.268 OA
BRANCH  14  17
HETATM   17  C   UNL     1       9.727  29.096  56.787  1.00  0.00     0.161 C 
BRANCH  17  18
HETATM   18  C   UNL     1       9.399  29.994  57.948  1.00  0.00    -0.040 A 
HETATM   19  C   UNL     1      10.152  31.152  58.183  1.00  0.00     0.011 A 
HETATM   20  C   UNL     1       9.800  32.040  59.206  1.00  0.00     0.037 A 
HETATM   21  C   UNL     1       8.687  31.781  60.006  1.00  0.00     0.068 A 
HETATM   22  C   UNL     1       7.958  30.609  59.801  1.00  0.00     0.037 A 
HETATM   23  C   UNL     1       8.306  29.722  58.778  1.00  0.00     0.011 A 
BRANCH  21  24
HETATM   24  O   UNL     1       8.221  32.581  61.013  1.00  0.00    -0.356 OA
HETATM   25  C   UNL     1       8.266  32.035  62.326  1.00  0.00     0.210 C 
ENDBRANCH  21  24
ENDBRANCH  17  18
ENDBRANCH  14  17
ENDBRANCH   1  13
BRANCH   1  26
HETATM   26  O   UNL     1       6.701  28.534  53.026  1.00  0.00    -0.359 OA
HETATM   27  H   UNL     1       6.708  29.500  53.172  1.00  0.00     0.213 HD
ENDBRANCH   1  26
BRANCH   2  28
HETATM   28  C   UNL     1       5.120  29.545  55.052  1.00  0.00     0.120 A 
HETATM   29  C   UNL     1       3.993  29.712  54.237  1.00  0.00     0.146 A 
HETATM   30  F   UNL     1       3.535  28.705  53.481  1.00  0.00    -0.204 F 
HETATM   31  C   UNL     1       3.330  30.938  54.131  1.00  0.00     0.045 A 
HETATM   32  C   UNL     1       3.771  32.035  54.864  1.00  0.00     0.006 A 
HETATM   33  C   UNL     1       4.874  31.896  55.701  1.00  0.00     0.045 A 
HETATM   34  C   UNL     1       5.534  30.668  55.790  1.00  0.00     0.146 A 
HETATM   35  F   UNL     1       6.531  30.569  56.683  1.00  0.00    -0.204 F 
ENDBRANCH   2  28
TORSDOF 6
ENDMDL
MODEL 6
REMARK VINA RESULT:      -8.6      5.156      8.625
REMARK  6 active torsions:
REMARK  status: ('A' for Active; 'I' for Inactive)
REMARK    1  A    between atoms: O_2  and  C_3 
REMARK    2  A    between atoms: C_6  and  C_7 
REMARK    3  A    between atoms: C_7  and  N_8 
REMARK       I    between atoms: N_8  and  C_9 
REMARK    4  A    between atoms: C_9  and  C_10 
REMARK    5  A    between atoms: C_10  and  O_11 
REMARK    6  A    between atoms: N_12  and  C_13 
ROOT
HETATM    1  C   UNL     1       6.042  28.609  56.663  1.00  0.00     0.256 C 
HETATM    2  N   UNL     1       6.527  27.637  55.678  1.00  0.00    -0.248 N 
HETATM    3  C   UNL     1       6.570  27.973  54.336  1.00  0.00     0.330 C 
HETATM    4  O   UNL     1       7.295  27.426  53.505  1.00  0.00    -0.246 OA
HETATM    5  N   UNL     1       5.780  29.005  53.923  1.00  0.00    -0.308 N 
HETATM    6  C   UNL     1       4.883  29.690  54.732  1.00  0.00     0.048 A 
HETATM    7  C   UNL     1       4.937  29.488  56.107  1.00  0.00     0.034 A 
HETATM    8  C   UNL     1       3.953  30.560  54.162  1.00  0.00     0.030 A 
HETATM    9  C   UNL     1       3.049  31.234  54.982  1.00  0.00     0.002 A 
HETATM   10  C   UNL     1       3.084  31.046  56.361  1.00  0.00     0.001 A 
HETATM   11  C   UNL     1       4.028  30.183  56.923  1.00  0.00     0.015 A 
HETATM   12  H   UNL     1       5.778  29.156  52.923  1.00  0.00     0.170 HD
ENDROOT
BRANCH   1  13
HETATM   13  C   UNL     1       7.188  29.552  57.221  1.00  0.00     0.279 C 
HETATM   14  N   UNL     1       7.241  29.782  58.583  1.00  0.00    -0.352 N 
HETATM   15  H   UNL     1       6.419  29.583  59.139  1.00  0.00     0.162 HD
HETATM   16  O   UNL     1       8.038  30.010  56.448  1.00  0.00    -0.268 OA
BRANCH  14  17
HETATM   17  C   UNL     1       8.160  30.772  59.091  1.00  0.00     0.161 C 
BRANCH  17  18
HETATM   18  C   UNL     1       7.670  31.417  60.358  1.00  0.00    -0.040 A 
HETATM   19  C   UNL     1       8.370  31.242  61.560  1.00  0.00     0.011 A 
HETATM   20  C   UNL     1       7.973  31.910  62.724  1.00  0.00     0.037 A 
HETATM   21  C   UNL     1       6.872  32.764  62.700  1.00  0.00     0.068 A 
HETATM   22  C   UNL     1       6.149  32.912  61.516  1.00  0.00     0.037 A 
HETATM   23  C   UNL     1       6.544  32.249  60.351  1.00  0.00     0.011 A 
BRANCH  21  24
HETATM   24  O   UNL     1       6.403  33.496  63.756  1.00  0.00    -0.356 OA
HETATM   25  C   UNL     1       7.210  33.505  64.927  1.00  0.00     0.210 C 
ENDBRANCH  21  24
ENDBRANCH  17  18
ENDBRANCH  14  17
ENDBRANCH   1  13
BRANCH   1  26
HETATM   26  O   UNL     1       5.446  27.885  57.750  1.00  0.00    -0.359 OA
HETATM   27  H   UNL     1       5.567  28.462  58.529  1.00  0.00     0.213 HD
ENDBRANCH   1  26
BRANCH   2  28
HETATM   28  C   UNL     1       7.057  26.367  56.097  1.00  0.00     0.120 A 
HETATM   29  C   UNL     1       8.237  26.236  56.841  1.00  0.00     0.146 A 
HETATM   30  F   UNL     1       8.977  27.309  57.152  1.00  0.00    -0.204 F 
HETATM   31  C   UNL     1       8.723  24.990  57.246  1.00  0.00     0.045 A 
HETATM   32  C   UNL     1       8.021  23.831  56.931  1.00  0.00     0.006 A 
HETATM   33  C   UNL     1       6.833  23.929  56.213  1.00  0.00     0.045 A 
HETATM   34  C   UNL     1       6.363  25.180  55.805  1.00  0.00     0.146 A 
HETATM   35  F   UNL     1       5.167  25.219  55.198  1.00  0.00    -0.204 F 
ENDBRANCH   2  28
TORSDOF 6
ENDMDL
MODEL 7
REMARK VINA RESULT:      -8.5      2.390      3.347
REMARK  6 active torsions:
REMARK  status: ('A' for Active; 'I' for Inactive)
REMARK    1  A    between atoms: O_2  and  C_3 
REMARK    2  A    between atoms: C_6  and  C_7 
REMARK    3  A    between atoms: C_7  and  N_8 
REMARK       I    between atoms: N_8  and  C_9 
REMARK    4  A    between atoms: C_9  and  C_10 
REMARK    5  A    between atoms: C_10  and  O_11 
REMARK    6  A    between atoms: N_12  and  C_13 
ROOT
HETATM    1  C   UNL     1       3.906  29.168  52.325  1.00  0.00     0.256 C 
HETATM    2  N   UNL     1       4.277  29.221  50.907  1.00  0.00    -0.248 N 
HETATM    3  C   UNL     1       5.082  30.245  50.439  1.00  0.00     0.330 C 
HETATM    4  O   UNL     1       5.760  30.182  49.414  1.00  0.00    -0.246 OA
HETATM    5  N   UNL     1       5.151  31.381  51.190  1.00  0.00    -0.308 N 
HETATM    6  C   UNL     1       4.416  31.614  52.345  1.00  0.00     0.048 A 
HETATM    7  C   UNL     1       3.731  30.551  52.925  1.00  0.00     0.034 A 
HETATM    8  C   UNL     1       4.375  32.893  52.901  1.00  0.00     0.030 A 
HETATM    9  C   UNL     1       3.626  33.119  54.054  1.00  0.00     0.002 A 
HETATM   10  C   UNL     1       2.931  32.069  54.651  1.00  0.00     0.001 A 
HETATM   11  C   UNL     1       2.989  30.790  54.094  1.00  0.00     0.015 A 
HETATM   12  H   UNL     1       5.679  32.132  50.765  1.00  0.00     0.170 HD
ENDROOT
BRANCH   1  13
HETATM   13  C   UNL     1       4.954  28.375  53.212  1.00  0.00     0.279 C 
HETATM   14  N   UNL     1       4.492  27.340  54.001  1.00  0.00    -0.352 N 
HETATM   15  H   UNL     1       3.502  27.292  54.205  1.00  0.00     0.162 HD
HETATM   16  O   UNL     1       6.157  28.653  53.137  1.00  0.00    -0.268 OA
BRANCH  14  17
HETATM   17  C   UNL     1       5.393  26.723  54.946  1.00  0.00     0.161 C 
BRANCH  17  18
HETATM   18  C   UNL     1       6.139  25.558  54.354  1.00  0.00    -0.040 A 
HETATM   19  C   UNL     1       7.328  25.105  54.942  1.00  0.00     0.011 A 
HETATM   20  C   UNL     1       7.980  23.967  54.454  1.00  0.00     0.037 A 
HETATM   21  C   UNL     1       7.449  23.266  53.372  1.00  0.00     0.068 A 
HETATM   22  C   UNL     1       6.287  23.735  52.760  1.00  0.00     0.037 A 
HETATM   23  C   UNL     1       5.631  24.869  53.247  1.00  0.00     0.011 A 
BRANCH  21  24
HETATM   24  O   UNL     1       7.970  22.127  52.822  1.00  0.00    -0.356 OA
HETATM   25  C   UNL     1       7.938  20.960  53.635  1.00  0.00     0.210 C 
ENDBRANCH  21  24
ENDBRANCH  17  18
ENDBRANCH  14  17
ENDBRANCH   1  13
BRANCH   1  26
HETATM   26  O   UNL     1       2.619  28.539  52.428  1.00  0.00    -0.359 OA
HETATM   27  H   UNL     1       2.366  28.339  51.505  1.00  0.00     0.213 HD
ENDBRANCH   1  26
BRANCH   2  28
HETATM   28  C   UNL     1       3.897  28.164  50.008  1.00  0.00     0.120 A 
HETATM   29  C   UNL     1       4.608  26.962  49.894  1.00  0.00     0.146 A 
HETATM   30  F   UNL     1       5.736  26.761  50.589  1.00  0.00    -0.204 F 
HETATM   31  C   UNL     1       4.211  25.946  49.020  1.00  0.00     0.045 A 
HETATM   32  C   UNL     1       3.066  26.100  48.245  1.00  0.00     0.006 A 
HETATM   33  C   UNL     1       2.325  27.273  48.352  1.00  0.00     0.045 A 
HETATM   34  C   UNL     1       2.739  28.285  49.221  1.00  0.00     0.146 A 
HETATM   35  F   UNL     1       1.934  29.352  49.351  1.00  0.00    -0.204 F 
ENDBRANCH   2  28
TORSDOF 6
ENDMDL
MODEL 8
REMARK VINA RESULT:      -8.4      2.325      3.488
REMARK  6 active torsions:
REMARK  status: ('A' for Active; 'I' for Inactive)
REMARK    1  A    between atoms: O_2  and  C_3 
REMARK    2  A    between atoms: C_6  and  C_7 
REMARK    3  A    between atoms: C_7  and  N_8 
REMARK       I    between atoms: N_8  and  C_9 
REMARK    4  A    between atoms: C_9  and  C_10 
REMARK    5  A    between atoms: C_10  and  O_11 
REMARK    6  A    between atoms: N_12  and  C_13 
ROOT
HETATM    1  C   UNL     1       5.419  27.769  55.584  1.00  0.00     0.256 C 
HETATM    2  N   UNL     1       6.245  27.771  54.372  1.00  0.00    -0.248 N 
HETATM    3  C   UNL     1       7.512  28.328  54.398  1.00  0.00     0.330 C 
HETATM    4  O   UNL     1       8.411  28.047  53.606  1.00  0.00    -0.246 OA
HETATM    5  N   UNL     1       7.784  29.220  55.393  1.00  0.00    -0.308 N 
HETATM    6  C   UNL     1       6.863  29.666  56.332  1.00  0.00     0.048 A 
HETATM    7  C   UNL     1       5.642  29.008  56.433  1.00  0.00     0.034 A 
HETATM    8  C   UNL     1       7.170  30.753  57.150  1.00  0.00     0.030 A 
HETATM    9  C   UNL     1       6.235  31.200  58.082  1.00  0.00     0.002 A 
HETATM   10  C   UNL     1       5.006  30.556  58.199  1.00  0.00     0.001 A 
HETATM   11  C   UNL     1       4.713  29.460  57.385  1.00  0.00     0.015 A 
HETATM   12  H   UNL     1       8.689  29.666  55.319  1.00  0.00     0.170 HD
ENDROOT
BRANCH   1  13
HETATM   13  C   UNL     1       5.659  26.495  56.497  1.00  0.00     0.279 C 
HETATM   14  N   UNL     1       6.960  26.092  56.727  1.00  0.00    -0.352 N 
HETATM   15  H   UNL     1       7.687  26.429  56.110  1.00  0.00     0.162 HD
HETATM   16  O   UNL     1       4.696  25.930  57.028  1.00  0.00    -0.268 OA
BRANCH  14  17
HETATM   17  C   UNL     1       7.195  24.838  57.405  1.00  0.00     0.161 C 
BRANCH  17  18
HETATM   18  C   UNL     1       7.810  23.803  56.503  1.00  0.00    -0.040 A 
HETATM   19  C   UNL     1       8.167  22.545  57.008  1.00  0.00     0.011 A 
HETATM   20  C   UNL     1       8.656  21.545  56.160  1.00  0.00     0.037 A 
HETATM   21  C   UNL     1       8.792  21.791  54.794  1.00  0.00     0.068 A 
HETATM   22  C   UNL     1       8.475  23.054  54.293  1.00  0.00     0.037 A 
HETATM   23  C   UNL     1       7.983  24.053  55.137  1.00  0.00     0.011 A 
BRANCH  21  24
HETATM   24  O   UNL     1       9.227  20.892  53.858  1.00  0.00    -0.356 OA
HETATM   25  C   UNL     1       8.298  20.542  52.839  1.00  0.00     0.210 C 
ENDBRANCH  21  24
ENDBRANCH  17  18
ENDBRANCH  14  17
ENDBRANCH   1  13
BRANCH   1  26
HETATM   26  O   UNL     1       4.040  27.820  55.186  1.00  0.00    -0.359 OA
HETATM   27  H   UNL     1       3.689  26.933  55.394  1.00  0.00     0.213 HD
ENDBRANCH   1  26
BRANCH   2  28
HETATM   28  C   UNL     1       5.797  27.109  53.176  1.00  0.00     0.120 A 
HETATM   29  C   UNL     1       5.459  25.750  53.132  1.00  0.00     0.146 A 
HETATM   30  F   UNL     1       5.598  24.971  54.214  1.00  0.00    -0.204 F 
HETATM   31  C   UNL     1       5.015  25.135  51.959  1.00  0.00     0.045 A 
HETATM   32  C   UNL     1       4.876  25.877  50.791  1.00  0.00     0.006 A 
HETATM   33  C   UNL     1       5.183  27.234  50.806  1.00  0.00     0.045 A 
HETATM   34  C   UNL     1       5.635  27.835  51.984  1.00  0.00     0.146 A 
HETATM   35  F   UNL     1       5.824  29.164  51.962  1.00  0.00    -0.204 F 
ENDBRANCH   2  28
TORSDOF 6
ENDMDL
MODEL 9
REMARK VINA RESULT:      -8.4      2.771      3.998
REMARK  6 active torsions:
REMARK  status: ('A' for Active; 'I' for Inactive)
REMARK    1  A    between atoms: O_2  and  C_3 
REMARK    2  A    between atoms: C_6  and  C_7 
REMARK    3  A    between atoms: C_7  and  N_8 
REMARK       I    between atoms: N_8  and  C_9 
REMARK    4  A    between atoms: C_9  and  C_10 
REMARK    5  A    between atoms: C_10  and  O_11 
REMARK    6  A    between atoms: N_12  and  C_13 
ROOT
HETATM    1  C   UNL     1       6.521  28.525  56.543  1.00  0.00     0.256 C 
HETATM    2  N   UNL     1       6.586  28.617  55.081  1.00  0.00    -0.248 N 
HETATM    3  C   UNL     1       7.813  28.628  54.442  1.00  0.00     0.330 C 
HETATM    4  O   UNL     1       7.988  28.310  53.265  1.00  0.00    -0.246 OA
HETATM    5  N   UNL     1       8.902  28.982  55.182  1.00  0.00    -0.308 N 
HETATM    6  C   UNL     1       8.859  29.403  56.505  1.00  0.00     0.048 A 
HETATM    7  C   UNL     1       7.675  29.245  57.216  1.00  0.00     0.034 A 
HETATM    8  C   UNL     1       9.989  29.971  57.094  1.00  0.00     0.030 A 
HETATM    9  C   UNL     1       9.932  30.401  58.419  1.00  0.00     0.002 A 
HETATM   10  C   UNL     1       8.755  30.253  59.150  1.00  0.00     0.001 A 
HETATM   11  C   UNL     1       7.634  29.671  58.555  1.00  0.00     0.015 A 
HETATM   12  H   UNL     1       9.760  29.062  54.652  1.00  0.00     0.170 HD
ENDROOT
BRANCH   1  13
HETATM   13  C   UNL     1       6.498  27.029  57.071  1.00  0.00     0.279 C 
HETATM   14  N   UNL     1       7.701  26.362  57.197  1.00  0.00    -0.352 N 
HETATM   15  H   UNL     1       8.509  26.725  56.707  1.00  0.00     0.162 HD
HETATM   16  O   UNL     1       5.427  26.514  57.411  1.00  0.00    -0.268 OA
BRANCH  14  17
HETATM   17  C   UNL     1       7.691  24.951  57.503  1.00  0.00     0.161 C 
BRANCH  17  18
HETATM   18  C   UNL     1       7.858  24.094  56.278  1.00  0.00    -0.040 A 
HETATM   19  C   UNL     1       7.941  22.700  56.393  1.00  0.00     0.011 A 
HETATM   20  C   UNL     1       8.005  21.890  55.254  1.00  0.00     0.037 A 
HETATM   21  C   UNL     1       7.985  22.464  53.984  1.00  0.00     0.068 A 
HETATM   22  C   UNL     1       7.943  23.854  53.865  1.00  0.00     0.037 A 
HETATM   23  C   UNL     1       7.875  24.666  55.000  1.00  0.00     0.011 A 
BRANCH  21  24
HETATM   24  O   UNL     1       8.011  21.785  52.797  1.00  0.00    -0.356 OA
HETATM   25  C   UNL     1       8.344  20.403  52.866  1.00  0.00     0.210 C 
ENDBRANCH  21  24
ENDBRANCH  17  18
ENDBRANCH  14  17
ENDBRANCH   1  13
BRANCH   1  26
HETATM   26  O   UNL     1       5.335  29.205  56.982  1.00  0.00    -0.359 OA
HETATM   27  H   UNL     1       4.633  28.896  56.376  1.00  0.00     0.213 HD
ENDBRANCH   1  26
BRANCH   2  28
HETATM   28  C   UNL     1       5.385  28.594  54.288  1.00  0.00     0.120 A 
HETATM   29  C   UNL     1       4.823  27.415  53.783  1.00  0.00     0.146 A 
HETATM   30  F   UNL     1       5.423  26.231  53.967  1.00  0.00    -0.204 F 
HETATM   31  C   UNL     1       3.648  27.420  53.026  1.00  0.00     0.045 A 
HETATM   32  C   UNL     1       2.988  28.617  52.769  1.00  0.00     0.006 A 
HETATM   33  C   UNL     1       3.509  29.804  53.276  1.00  0.00     0.045 A 
HETATM   34  C   UNL     1       4.689  29.786  54.024  1.00  0.00     0.146 A 
HETATM   35  F   UNL     1       5.092  30.947  54.565  1.00  0.00    -0.204 F 
ENDBRANCH   2  28
TORSDOF 6
ENDMDL
MODEL 10
REMARK VINA RESULT:      -8.2      3.055      4.637
REMARK  6 active torsions:
REMARK  status: ('A' for Active; 'I' for Inactive)
REMARK    1  A    between atoms: O_2  and  C_3 
REMARK    2  A    between atoms: C_6  and  C_7 
REMARK    3  A    between atoms: C_7  and  N_8 
REMARK       I    between atoms: N_8  and  C_9 
REMARK    4  A    between atoms: C_9  and  C_10 
REMARK    5  A    between atoms: C_10  and  O_11 
REMARK    6  A    between atoms: N_12  and  C_13 
ROOT
HETATM    1  C   UNL     1       7.444  27.577  56.711  1.00  0.00     0.256 C 
HETATM    2  N   UNL     1       7.413  27.752  55.256  1.00  0.00    -0.248 N 
HETATM    3  C   UNL     1       8.414  28.469  54.622  1.00  0.00     0.330 C 
HETATM    4  O   UNL     1       8.707  28.351  53.432  1.00  0.00    -0.246 OA
HETATM    5  N   UNL     1       9.143  29.333  55.384  1.00  0.00    -0.308 N 
HETATM    6  C   UNL     1       8.906  29.603  56.725  1.00  0.00     0.048 A 
HETATM    7  C   UNL     1       8.024  28.786  57.423  1.00  0.00     0.034 A 
HETATM    8  C   UNL     1       9.547  30.675  57.346  1.00  0.00     0.030 A 
HETATM    9  C   UNL     1       9.294  30.945  58.690  1.00  0.00     0.002 A 
HETATM   10  C   UNL     1       8.412  30.139  59.408  1.00  0.00     0.001 A 
HETATM   11  C   UNL     1       7.786  29.060  58.781  1.00  0.00     0.015 A 
HETATM   12  H   UNL     1       9.801  29.898  54.862  1.00  0.00     0.170 HD
ENDROOT
BRANCH   1  13
HETATM   13  C   UNL     1       8.265  26.297  57.165  1.00  0.00     0.279 C 
HETATM   14  N   UNL     1       7.591  25.097  57.280  1.00  0.00    -0.352 N 
HETATM   15  H   UNL     1       6.582  25.112  57.344  1.00  0.00     0.162 HD
HETATM   16  O   UNL     1       9.485  26.383  57.346  1.00  0.00    -0.268 OA
BRANCH  14  17
HETATM   17  C   UNL     1       8.274  23.964  57.859  1.00  0.00     0.161 C 
BRANCH  17  18
HETATM   18  C   UNL     1       8.470  22.844  56.874  1.00  0.00    -0.040 A 
HETATM   19  C   UNL     1       8.099  21.534  57.206  1.00  0.00     0.011 A 
HETATM   20  C   UNL     1       8.193  20.502  56.266  1.00  0.00     0.037 A 
HETATM   21  C   UNL     1       8.659  20.768  54.979  1.00  0.00     0.068 A 
HETATM   22  C   UNL     1       9.067  22.063  54.656  1.00  0.00     0.037 A 
HETATM   23  C   UNL     1       8.971  23.096  55.592  1.00  0.00     0.011 A 
BRANCH  21  24
HETATM   24  O   UNL     1       8.770  19.859  53.963  1.00  0.00    -0.356 OA
HETATM   25  C   UNL     1       8.382  20.306  52.669  1.00  0.00     0.210 C 
ENDBRANCH  21  24
ENDBRANCH  17  18
ENDBRANCH  14  17
ENDBRANCH   1  13
BRANCH   1  26
HETATM   26  O   UNL     1       6.091  27.468  57.178  1.00  0.00    -0.359 OA
HETATM   27  H   UNL     1       5.662  26.849  56.555  1.00  0.00     0.213 HD
ENDBRANCH   1  26
BRANCH   2  28
HETATM   28  C   UNL     1       6.406  27.103  54.458  1.00  0.00     0.120 A 
HETATM   29  C   UNL     1       5.176  27.696  54.145  1.00  0.00     0.146 A 
HETATM   30  F   UNL     1       4.847  28.899  54.636  1.00  0.00    -0.204 F 
HETATM   31  C   UNL     1       4.221  27.048  53.358  1.00  0.00     0.045 A 
HETATM   32  C   UNL     1       4.484  25.784  52.841  1.00  0.00     0.006 A 
HETATM   33  C   UNL     1       5.706  25.177  53.115  1.00  0.00     0.045 A 
HETATM   34  C   UNL     1       6.648  25.832  53.911  1.00  0.00     0.146 A 
HETATM   35  F   UNL     1       7.843  25.239  54.062  1.00  0.00    -0.204 F 
ENDBRANCH   2  28
TORSDOF 6
ENDMDL
