MODEL 1
REMARK VINA RESULT:      -9.0      0.000      0.000
REMARK  2 active torsions:
REMARK  status: ('A' for Active; 'I' for Inactive)
REMARK    1  A    between atoms: C_9  and  N_10 
REMARK    2  A    between atoms: N_13  and  C_15 
ROOT
HETATM    1  N   UNL     1       8.057  28.528  56.717  1.00  0.00    -0.376 N 
HETATM    2  C   UNL     1       8.261  28.771  55.277  1.00  0.00     0.150 C 
HETATM    3  C   UNL     1       7.297  27.898  54.449  1.00  0.00     0.255 C 
HETATM    4  N   UNL     1       7.425  26.395  54.783  1.00  0.00    -0.064 N 
HETATM    5  H   UNL     1       8.365  26.101  54.491  1.00  0.00     0.280 HD
HETATM    6  C   UNL     1       7.349  26.190  56.310  1.00  0.00     0.255 C 
HETATM    7  C   UNL     1       8.314  27.117  57.073  1.00  0.00     0.150 C 
ENDROOT
BRANCH   1   8
HETATM    8  C   UNL     1       8.282  29.536  57.652  1.00  0.00     0.053 A 
HETATM    9  C   UNL     1       7.175  30.414  58.102  1.00  0.00     0.013 A 
HETATM   10  C   UNL     1       5.852  30.446  57.675  1.00  0.00     0.015 A 
HETATM   11  C   UNL     1       7.579  31.357  59.045  1.00  0.00     0.075 A 
HETATM   12  C   UNL     1       4.973  31.389  58.228  1.00  0.00     0.001 A 
HETATM   13  C   UNL     1       5.415  32.310  59.190  1.00  0.00     0.002 A 
HETATM   14  C   UNL     1       6.744  32.307  59.606  1.00  0.00     0.025 A 
HETATM   15  S   UNL     1       9.287  31.198  59.343  1.00  0.00     0.200 S 
HETATM   16  O   UNL     1       9.467  30.706  60.691  1.00  0.00    -0.218 OA
HETATM   17  O   UNL     1       9.953  32.374  58.827  1.00  0.00    -0.218 OA
HETATM   18  C   UNL     1       9.451  29.890  58.216  1.00  0.00     0.144 A 
ENDBRANCH   1   8
BRANCH   4  19
HETATM   19  C   UNL     1       6.382  25.550  54.025  1.00  0.00     0.188 C 
HETATM   20  C   UNL     1       6.651  25.556  52.509  1.00  0.00     0.033 C 
HETATM   21  C   UNL     1       7.940  24.827  52.131  1.00  0.00     0.002 C 
HETATM   22  C   UNL     1       7.955  23.398  52.669  1.00  0.00     0.000 C 
HETATM   23  C   UNL     1       7.658  23.341  54.165  1.00  0.00     0.002 C 
HETATM   24  C   UNL     1       6.369  24.089  54.506  1.00  0.00     0.033 C 
ENDBRANCH   4  19
TORSDOF 2
ENDMDL
MODEL 2
REMARK VINA RESULT:      -8.7      3.025      4.199
REMARK  2 active torsions:
REMARK  status: ('A' for Active; 'I' for Inactive)
REMARK    1  A    between atoms: C_9  and  N_10 
REMARK    2  A    between atoms: N_13  and  C_15 
ROOT
HETATM    1  N   UNL     1       6.229  26.535  55.834  1.00  0.00    -0.376 N 
HETATM    2  C   UNL     1       6.037  25.435  56.797  1.00  0.00     0.150 C 
HETATM    3  C   UNL     1       7.238  24.469  56.747  1.00  0.00     0.255 C 
HETATM    4  N   UNL     1       7.499  23.924  55.325  1.00  0.00    -0.064 N 
HETATM    5  H   UNL     1       6.687  23.350  55.069  1.00  0.00     0.280 HD
HETATM    6  C   UNL     1       7.554  25.092  54.319  1.00  0.00     0.255 C 
HETATM    7  C   UNL     1       6.341  26.033  54.449  1.00  0.00     0.150 C 
ENDROOT
BRANCH   1   8
HETATM    8  C   UNL     1       5.698  27.800  56.077  1.00  0.00     0.053 A 
HETATM    9  C   UNL     1       6.388  28.749  56.984  1.00  0.00     0.013 A 
HETATM   10  C   UNL     1       7.539  28.561  57.741  1.00  0.00     0.015 A 
HETATM   11  C   UNL     1       5.721  29.968  57.102  1.00  0.00     0.075 A 
HETATM   12  C   UNL     1       8.003  29.603  58.558  1.00  0.00     0.001 A 
HETATM   13  C   UNL     1       7.313  30.823  58.634  1.00  0.00     0.002 A 
HETATM   14  C   UNL     1       6.144  31.015  57.902  1.00  0.00     0.025 A 
HETATM   15  S   UNL     1       4.262  29.935  56.154  1.00  0.00     0.200 S 
HETATM   16  O   UNL     1       4.419  30.852  55.046  1.00  0.00    -0.218 OA
HETATM   17  O   UNL     1       3.131  29.962  57.056  1.00  0.00    -0.218 OA
HETATM   18  C   UNL     1       4.543  28.311  55.615  1.00  0.00     0.144 A 
ENDBRANCH   1   8
BRANCH   4  19
HETATM   19  C   UNL     1       8.766  23.046  55.274  1.00  0.00     0.188 C 
HETATM   20  C   UNL     1       8.628  21.811  56.182  1.00  0.00     0.033 C 
HETATM   21  C   UNL     1       7.573  20.822  55.687  1.00  0.00     0.002 C 
HETATM   22  C   UNL     1       7.837  20.395  54.246  1.00  0.00     0.000 C 
HETATM   23  C   UNL     1       8.014  21.590  53.313  1.00  0.00     0.002 C 
HETATM   24  C   UNL     1       9.068  22.561  53.845  1.00  0.00     0.033 C 
ENDBRANCH   4  19
TORSDOF 2
ENDMDL
MODEL 3
REMARK VINA RESULT:      -8.5      4.459      7.316
REMARK  2 active torsions:
REMARK  status: ('A' for Active; 'I' for Inactive)
REMARK    1  A    between atoms: C_9  and  N_10 
REMARK    2  A    between atoms: N_13  and  C_15 
ROOT
HETATM    1  N   UNL     1       5.420  26.279  52.897  1.00  0.00    -0.376 N 
HETATM    2  C   UNL     1       5.016  25.244  51.928  1.00  0.00     0.150 C 
HETATM    3  C   UNL     1       4.994  25.831  50.502  1.00  0.00     0.255 C 
HETATM    4  N   UNL     1       4.089  27.079  50.391  1.00  0.00    -0.064 N 
HETATM    5  H   UNL     1       3.126  26.769  50.565  1.00  0.00     0.280 HD
HETATM    6  C   UNL     1       4.443  28.082  51.508  1.00  0.00     0.255 C 
HETATM    7  C   UNL     1       4.480  27.420  52.898  1.00  0.00     0.150 C 
ENDROOT
BRANCH   1   8
HETATM    8  C   UNL     1       6.109  25.942  54.060  1.00  0.00     0.053 A 
HETATM    9  C   UNL     1       7.036  24.785  54.082  1.00  0.00     0.013 A 
HETATM   10  C   UNL     1       7.318  23.867  53.076  1.00  0.00     0.015 A 
HETATM   11  C   UNL     1       7.645  24.601  55.323  1.00  0.00     0.075 A 
HETATM   12  C   UNL     1       8.222  22.824  53.330  1.00  0.00     0.001 A 
HETATM   13  C   UNL     1       8.828  22.685  54.587  1.00  0.00     0.002 A 
HETATM   14  C   UNL     1       8.534  23.581  55.612  1.00  0.00     0.025 A 
HETATM   15  S   UNL     1       7.063  25.796  56.447  1.00  0.00     0.200 S 
HETATM   16  O   UNL     1       8.152  26.696  56.756  1.00  0.00    -0.218 OA
HETATM   17  O   UNL     1       6.271  25.127  57.456  1.00  0.00    -0.218 OA
HETATM   18  C   UNL     1       6.018  26.523  55.270  1.00  0.00     0.144 A 
ENDBRANCH   1   8
BRANCH   4  19
HETATM   19  C   UNL     1       4.163  27.714  48.987  1.00  0.00     0.188 C 
HETATM   20  C   UNL     1       4.218  26.637  47.888  1.00  0.00     0.033 C 
HETATM   21  C   UNL     1       2.922  25.836  47.773  1.00  0.00     0.002 C 
HETATM   22  C   UNL     1       1.716  26.748  47.564  1.00  0.00     0.000 C 
HETATM   23  C   UNL     1       1.639  27.853  48.614  1.00  0.00     0.002 C 
HETATM   24  C   UNL     1       2.955  28.625  48.708  1.00  0.00     0.033 C 
ENDBRANCH   4  19
TORSDOF 2
ENDMDL
MODEL 4
REMARK VINA RESULT:      -8.3      3.689      7.885
REMARK  2 active torsions:
REMARK  status: ('A' for Active; 'I' for Inactive)
REMARK    1  A    between atoms: C_9  and  N_10 
REMARK    2  A    between atoms: N_13  and  C_15 
ROOT
HETATM    1  N   UNL     1       7.640  28.057  56.565  1.00  0.00    -0.376 N 
HETATM    2  C   UNL     1       6.545  28.416  57.484  1.00  0.00     0.150 C 
HETATM    3  C   UNL     1       6.683  29.886  57.928  1.00  0.00     0.255 C 
HETATM    4  N   UNL     1       8.060  30.185  58.561  1.00  0.00    -0.064 N 
HETATM    5  H   UNL     1       8.117  29.640  59.430  1.00  0.00     0.280 HD
HETATM    6  C   UNL     1       9.183  29.670  57.638  1.00  0.00     0.255 C 
HETATM    7  C   UNL     1       8.962  28.207  57.209  1.00  0.00     0.150 C 
ENDROOT
BRANCH   1   8
HETATM    8  C   UNL     1       7.454  27.103  55.567  1.00  0.00     0.053 A 
HETATM    9  C   UNL     1       7.630  25.660  55.857  1.00  0.00     0.013 A 
HETATM   10  C   UNL     1       8.038  25.044  57.035  1.00  0.00     0.015 A 
HETATM   11  C   UNL     1       7.394  24.851  54.746  1.00  0.00     0.075 A 
HETATM   12  C   UNL     1       8.161  23.647  57.076  1.00  0.00     0.001 A 
HETATM   13  C   UNL     1       7.895  22.867  55.940  1.00  0.00     0.002 A 
HETATM   14  C   UNL     1       7.513  23.472  54.745  1.00  0.00     0.025 A 
HETATM   15  S   UNL     1       7.005  25.840  53.368  1.00  0.00     0.200 S 
HETATM   16  O   UNL     1       5.616  25.620  53.030  1.00  0.00    -0.218 OA
HETATM   17  O   UNL     1       8.084  25.737  52.411  1.00  0.00    -0.218 OA
HETATM   18  C   UNL     1       7.162  27.313  54.271  1.00  0.00     0.144 A 
ENDBRANCH   1   8
BRANCH   4  19
HETATM   19  C   UNL     1       8.219  31.681  58.901  1.00  0.00     0.188 C 
HETATM   20  C   UNL     1       7.088  32.170  59.822  1.00  0.00     0.033 C 
HETATM   21  C   UNL     1       7.147  31.551  61.218  1.00  0.00     0.002 C 
HETATM   22  C   UNL     1       8.506  31.781  61.877  1.00  0.00     0.000 C 
HETATM   23  C   UNL     1       9.662  31.340  60.983  1.00  0.00     0.002 C 
HETATM   24  C   UNL     1       9.563  31.970  59.593  1.00  0.00     0.033 C 
ENDBRANCH   4  19
TORSDOF 2
ENDMDL
MODEL 5
REMARK VINA RESULT:      -8.0      4.376      6.278
REMARK  2 active torsions:
REMARK  status: ('A' for Active; 'I' for Inactive)
REMARK    1  A    between atoms: C_9  and  N_10 
REMARK    2  A    between atoms: N_13  and  C_15 
ROOT
HETATM    1  N   UNL     1       5.292  26.391  53.205  1.00  0.00    -0.376 N 
HETATM    2  C   UNL     1       5.190  25.328  52.188  1.00  0.00     0.150 C 
HETATM    3  C   UNL     1       5.335  25.929  50.775  1.00  0.00     0.255 C 
HETATM    4  N   UNL     1       4.314  27.056  50.505  1.00  0.00    -0.064 N 
HETATM    5  H   UNL     1       3.381  26.626  50.516  1.00  0.00     0.280 HD
HETATM    6  C   UNL     1       4.346  28.079  51.660  1.00  0.00     0.255 C 
HETATM    7  C   UNL     1       4.230  27.405  53.040  1.00  0.00     0.150 C 
ENDROOT
BRANCH   1   8
HETATM    8  C   UNL     1       5.812  26.124  54.469  1.00  0.00     0.053 A 
HETATM    9  C   UNL     1       6.806  27.034  55.087  1.00  0.00     0.013 A 
HETATM   10  C   UNL     1       7.402  28.173  54.557  1.00  0.00     0.015 A 
HETATM   11  C   UNL     1       7.208  26.618  56.356  1.00  0.00     0.075 A 
HETATM   12  C   UNL     1       8.347  28.875  55.321  1.00  0.00     0.001 A 
HETATM   13  C   UNL     1       8.710  28.433  56.602  1.00  0.00     0.002 A 
HETATM   14  C   UNL     1       8.142  27.279  57.135  1.00  0.00     0.025 A 
HETATM   15  S   UNL     1       6.416  25.123  56.764  1.00  0.00     0.200 S 
HETATM   16  O   UNL     1       5.484  25.383  57.839  1.00  0.00    -0.218 OA
HETATM   17  O   UNL     1       7.411  24.075  56.808  1.00  0.00    -0.218 OA
HETATM   18  C   UNL     1       5.565  25.059  55.254  1.00  0.00     0.144 A 
ENDBRANCH   1   8
BRANCH   4  19
HETATM   19  C   UNL     1       4.542  27.716  49.130  1.00  0.00     0.188 C 
HETATM   20  C   UNL     1       4.719  26.660  48.024  1.00  0.00     0.033 C 
HETATM   21  C   UNL     1       3.443  25.865  47.752  1.00  0.00     0.002 C 
HETATM   22  C   UNL     1       2.267  26.783  47.428  1.00  0.00     0.000 C 
HETATM   23  C   UNL     1       2.075  27.869  48.483  1.00  0.00     0.002 C 
HETATM   24  C   UNL     1       3.373  28.636  48.736  1.00  0.00     0.033 C 
ENDBRANCH   4  19
TORSDOF 2
ENDMDL
MODEL 6
REMARK VINA RESULT:      -8.0      1.935      2.648
REMARK  2 active torsions:
REMARK  status: ('A' for Active; 'I' for Inactive)
REMARK    1  A    between atoms: C_9  and  N_10 
REMARK    2  A    between atoms: N_13  and  C_15 
ROOT
HETATM    1  N   UNL     1       6.517  28.741  56.742  1.00  0.00    -0.376 N 
HETATM    2  C   UNL     1       6.882  28.761  55.313  1.00  0.00     0.150 C 
HETATM    3  C   UNL     1       6.305  27.523  54.599  1.00  0.00     0.255 C 
HETATM    4  N   UNL     1       6.742  26.199  55.265  1.00  0.00    -0.064 N 
HETATM    5  H   UNL     1       7.759  26.123  55.146  1.00  0.00     0.280 HD
HETATM    6  C   UNL     1       6.475  26.265  56.783  1.00  0.00     0.255 C 
HETATM    7  C   UNL     1       7.051  27.543  57.423  1.00  0.00     0.150 C 
ENDROOT
BRANCH   1   8
HETATM    8  C   UNL     1       6.338  29.926  57.451  1.00  0.00     0.053 A 
HETATM    9  C   UNL     1       7.420  30.466  58.308  1.00  0.00     0.013 A 
HETATM   10  C   UNL     1       8.667  29.922  58.596  1.00  0.00     0.015 A 
HETATM   11  C   UNL     1       7.071  31.662  58.934  1.00  0.00     0.075 A 
HETATM   12  C   UNL     1       9.533  30.604  59.464  1.00  0.00     0.001 A 
HETATM   13  C   UNL     1       9.150  31.816  60.059  1.00  0.00     0.002 A 
HETATM   14  C   UNL     1       7.893  32.359  59.802  1.00  0.00     0.025 A 
HETATM   15  S   UNL     1       5.438  32.092  58.513  1.00  0.00     0.200 S 
HETATM   16  O   UNL     1       5.481  33.276  57.683  1.00  0.00    -0.218 OA
HETATM   17  O   UNL     1       4.615  31.978  59.697  1.00  0.00    -0.218 OA
HETATM   18  C   UNL     1       5.230  30.687  57.518  1.00  0.00     0.144 A 
ENDBRANCH   1   8
BRANCH   4  19
HETATM   19  C   UNL     1       6.070  24.978  54.604  1.00  0.00     0.188 C 
HETATM   20  C   UNL     1       6.030  25.123  53.072  1.00  0.00     0.033 C 
HETATM   21  C   UNL     1       7.416  25.069  52.432  1.00  0.00     0.002 C 
HETATM   22  C   UNL     1       8.168  23.799  52.827  1.00  0.00     0.000 C 
HETATM   23  C   UNL     1       8.204  23.597  54.340  1.00  0.00     0.002 C 
HETATM   24  C   UNL     1       6.802  23.668  54.945  1.00  0.00     0.033 C 
ENDBRANCH   4  19
TORSDOF 2
ENDMDL
MODEL 7
REMARK VINA RESULT:      -7.6      6.244      8.048
REMARK  2 active torsions:
REMARK  status: ('A' for Active; 'I' for Inactive)
REMARK    1  A    between atoms: C_9  and  N_10 
REMARK    2  A    between atoms: N_13  and  C_15 
ROOT
HETATM    1  N   UNL     1       5.653  26.327  51.866  1.00  0.00    -0.376 N 
HETATM    2  C   UNL     1       6.876  25.509  51.966  1.00  0.00     0.150 C 
HETATM    3  C   UNL     1       6.799  24.585  53.198  1.00  0.00     0.255 C 
HETATM    4  N   UNL     1       6.544  25.365  54.507  1.00  0.00    -0.064 N 
HETATM    5  H   UNL     1       7.367  25.956  54.670  1.00  0.00     0.280 HD
HETATM    6  C   UNL     1       5.343  26.316  54.323  1.00  0.00     0.255 C 
HETATM    7  C   UNL     1       5.473  27.184  53.057  1.00  0.00     0.150 C 
ENDROOT
BRANCH   1   8
HETATM    8  C   UNL     1       5.169  26.742  50.628  1.00  0.00     0.053 A 
HETATM    9  C   UNL     1       5.224  28.169  50.233  1.00  0.00     0.013 A 
HETATM   10  C   UNL     1       5.660  29.268  50.967  1.00  0.00     0.015 A 
HETATM   11  C   UNL     1       4.705  28.400  48.959  1.00  0.00     0.075 A 
HETATM   12  C   UNL     1       5.598  30.547  50.394  1.00  0.00     0.001 A 
HETATM   13  C   UNL     1       5.086  30.735  49.101  1.00  0.00     0.002 A 
HETATM   14  C   UNL     1       4.620  29.648  48.365  1.00  0.00     0.025 A 
HETATM   15  S   UNL     1       4.126  26.906  48.279  1.00  0.00     0.200 S 
HETATM   16  O   UNL     1       4.986  26.549  47.172  1.00  0.00    -0.218 OA
HETATM   17  O   UNL     1       2.685  26.978  48.178  1.00  0.00    -0.218 OA
HETATM   18  C   UNL     1       4.570  25.992  49.684  1.00  0.00     0.144 A 
ENDBRANCH   1   8
BRANCH   4  19
HETATM   19  C   UNL     1       6.363  24.418  55.710  1.00  0.00     0.188 C 
HETATM   20  C   UNL     1       7.411  23.290  55.696  1.00  0.00     0.033 C 
HETATM   21  C   UNL     1       8.832  23.794  55.939  1.00  0.00     0.002 C 
HETATM   22  C   UNL     1       8.930  24.595  57.236  1.00  0.00     0.000 C 
HETATM   23  C   UNL     1       7.886  25.705  57.308  1.00  0.00     0.002 C 
HETATM   24  C   UNL     1       6.479  25.166  57.050  1.00  0.00     0.033 C 
ENDBRANCH   4  19
TORSDOF 2
ENDMDL
MODEL 8
REMARK VINA RESULT:      -7.6      4.530      7.329
REMARK  2 active torsions:
REMARK  status: ('A' for Active; 'I' for Inactive)
REMARK    1  A    between atoms: C_9  and  N_10 
REMARK    2  A    between atoms: N_13  and  C_15 
ROOT
HETATM    1  N   UNL     1       5.399  26.710  52.911  1.00  0.00    -0.376 N 
HETATM    2  C   UNL     1       4.938  28.106  52.799  1.00  0.00     0.150 C 
HETATM    3  C   UNL     1       3.949  28.247  51.624  1.00  0.00     0.255 C 
HETATM    4  N   UNL     1       4.544  27.750  50.288  1.00  0.00    -0.064 N 
HETATM    5  H   UNL     1       5.323  28.376  50.054  1.00  0.00     0.280 HD
HETATM    6  C   UNL     1       5.145  26.342  50.475  1.00  0.00     0.255 C 
HETATM    7  C   UNL     1       6.095  26.268  51.684  1.00  0.00     0.150 C 
ENDROOT
BRANCH   1   8
HETATM    8  C   UNL     1       5.747  26.168  54.145  1.00  0.00     0.053 A 
HETATM    9  C   UNL     1       6.457  24.869  54.229  1.00  0.00     0.013 A 
HETATM   10  C   UNL     1       6.816  23.997  53.207  1.00  0.00     0.015 A 
HETATM   11  C   UNL     1       6.734  24.485  55.541  1.00  0.00     0.075 A 
HETATM   12  C   UNL     1       7.469  22.796  53.523  1.00  0.00     0.001 A 
HETATM   13  C   UNL     1       7.747  22.456  54.856  1.00  0.00     0.002 A 
HETATM   14  C   UNL     1       7.368  23.306  55.892  1.00  0.00     0.025 A 
HETATM   15  S   UNL     1       6.102  25.671  56.647  1.00  0.00     0.200 S 
HETATM   16  O   UNL     1       7.218  26.341  57.279  1.00  0.00    -0.218 OA
HETATM   17  O   UNL     1       5.010  25.074  57.383  1.00  0.00    -0.218 OA
HETATM   18  C   UNL     1       5.475  26.660  55.368  1.00  0.00     0.144 A 
ENDBRANCH   1   8
BRANCH   4  19
HETATM   19  C   UNL     1       3.506  27.799  49.148  1.00  0.00     0.188 C 
HETATM   20  C   UNL     1       2.965  29.226  48.945  1.00  0.00     0.033 C 
HETATM   21  C   UNL     1       4.021  30.193  48.413  1.00  0.00     0.002 C 
HETATM   22  C   UNL     1       4.657  29.678  47.125  1.00  0.00     0.000 C 
HETATM   23  C   UNL     1       5.179  28.251  47.270  1.00  0.00     0.002 C 
HETATM   24  C   UNL     1       4.100  27.315  47.813  1.00  0.00     0.033 C 
ENDBRANCH   4  19
TORSDOF 2
ENDMDL
MODEL 9
REMARK VINA RESULT:      -7.5      5.726      8.087
REMARK  2 active torsions:
REMARK  status: ('A' for Active; 'I' for Inactive)
REMARK    1  A    between atoms: C_9  and  N_10 
REMARK    2  A    between atoms: N_13  and  C_15 
ROOT
HETATM    1  N   UNL     1       5.618  27.124  51.957  1.00  0.00    -0.376 N 
HETATM    2  C   UNL     1       6.491  25.972  51.665  1.00  0.00     0.150 C 
HETATM    3  C   UNL     1       6.327  24.892  52.754  1.00  0.00     0.255 C 
HETATM    4  N   UNL     1       6.588  25.441  54.175  1.00  0.00    -0.064 N 
HETATM    5  H   UNL     1       7.577  25.711  54.216  1.00  0.00     0.280 HD
HETATM    6  C   UNL     1       5.765  26.727  54.397  1.00  0.00     0.255 C 
HETATM    7  C   UNL     1       5.952  27.745  53.256  1.00  0.00     0.150 C 
ENDROOT
BRANCH   1   8
HETATM    8  C   UNL     1       5.089  27.900  50.929  1.00  0.00     0.053 A 
HETATM    9  C   UNL     1       4.404  27.266  49.777  1.00  0.00     0.013 A 
HETATM   10  C   UNL     1       4.233  25.915  49.492  1.00  0.00     0.015 A 
HETATM   11  C   UNL     1       3.930  28.193  48.850  1.00  0.00     0.075 A 
HETATM   12  C   UNL     1       3.566  25.538  48.316  1.00  0.00     0.001 A 
HETATM   13  C   UNL     1       3.086  26.504  47.418  1.00  0.00     0.002 A 
HETATM   14  C   UNL     1       3.275  27.859  47.677  1.00  0.00     0.025 A 
HETATM   15  S   UNL     1       4.349  29.803  49.360  1.00  0.00     0.200 S 
HETATM   16  O   UNL     1       3.132  30.495  49.724  1.00  0.00    -0.218 OA
HETATM   17  O   UNL     1       5.323  30.338  48.433  1.00  0.00    -0.218 OA
HETATM   18  C   UNL     1       5.151  29.237  50.789  1.00  0.00     0.144 A 
ENDBRANCH   1   8
BRANCH   4  19
HETATM   19  C   UNL     1       6.316  24.376  55.256  1.00  0.00     0.188 C 
HETATM   20  C   UNL     1       7.265  23.173  55.109  1.00  0.00     0.033 C 
HETATM   21  C   UNL     1       8.721  23.524  55.412  1.00  0.00     0.002 C 
HETATM   22  C   UNL     1       8.872  24.154  56.794  1.00  0.00     0.000 C 
HETATM   23  C   UNL     1       7.923  25.333  56.997  1.00  0.00     0.002 C 
HETATM   24  C   UNL     1       6.479  24.948  56.676  1.00  0.00     0.033 C 
ENDBRANCH   4  19
TORSDOF 2
ENDMDL
MODEL 10
REMARK VINA RESULT:      -7.5      2.387      3.333
REMARK  2 active torsions:
REMARK  status: ('A' for Active; 'I' for Inactive)
REMARK    1  A    between atoms: C_9  and  N_10 
REMARK    2  A    between atoms: N_13  and  C_15 
ROOT
HETATM    1  N   UNL     1       7.882  25.898  56.313  1.00  0.00    -0.376 N 
HETATM    2  C   UNL     1       7.847  25.641  54.862  1.00  0.00     0.150 C 
HETATM    3  C   UNL     1       7.227  24.258  54.580  1.00  0.00     0.255 C 
HETATM    4  N   UNL     1       7.958  23.120  55.328  1.00  0.00    -0.064 N 
HETATM    5  H   UNL     1       8.908  23.068  54.942  1.00  0.00     0.280 HD
HETATM    6  C   UNL     1       8.103  23.483  56.820  1.00  0.00     0.255 C 
HETATM    7  C   UNL     1       8.697  24.890  57.024  1.00  0.00     0.150 C 
ENDROOT
BRANCH   1   8
HETATM    8  C   UNL     1       7.782  27.193  56.814  1.00  0.00     0.053 A 
HETATM    9  C   UNL     1       6.498  27.932  56.752  1.00  0.00     0.013 A 
HETATM   10  C   UNL     1       5.290  27.546  56.181  1.00  0.00     0.015 A 
HETATM   11  C   UNL     1       6.578  29.208  57.308  1.00  0.00     0.075 A 
HETATM   12  C   UNL     1       4.198  28.427  56.217  1.00  0.00     0.001 A 
HETATM   13  C   UNL     1       4.315  29.696  56.803  1.00  0.00     0.002 A 
HETATM   14  C   UNL     1       5.527  30.107  57.354  1.00  0.00     0.025 A 
HETATM   15  S   UNL     1       8.201  29.509  57.858  1.00  0.00     0.200 S 
HETATM   16  O   UNL     1       8.186  29.571  59.303  1.00  0.00    -0.218 OA
HETATM   17  O   UNL     1       8.785  30.536  57.023  1.00  0.00    -0.218 OA
HETATM   18  C   UNL     1       8.759  27.950  57.345  1.00  0.00     0.144 A 
ENDBRANCH   1   8
BRANCH   4  19
HETATM   19  C   UNL     1       7.260  21.761  55.120  1.00  0.00     0.188 C 
HETATM   20  C   UNL     1       7.458  21.243  53.684  1.00  0.00     0.033 C 
HETATM   21  C   UNL     1       8.909  20.870  53.380  1.00  0.00     0.002 C 
HETATM   22  C   UNL     1       9.452  19.861  54.389  1.00  0.00     0.000 C 
HETATM   23  C   UNL     1       9.246  20.318  55.830  1.00  0.00     0.002 C 
HETATM   24  C   UNL     1       7.787  20.692  56.094  1.00  0.00     0.033 C 
ENDBRANCH   4  19
TORSDOF 2
ENDMDL
