MODEL 1
REMARK VINA RESULT:     -10.3      0.000      0.000
REMARK  6 active torsions:
REMARK  status: ('A' for Active; 'I' for Inactive)
REMARK    1  A    between atoms: O_2  and  C_3 
REMARK    2  A    between atoms: C_6  and  C_7 
REMARK    3  A    between atoms: C_7  and  C_8 
REMARK       I    between atoms: C_8  and  N_9 
REMARK    4  A    between atoms: N_9  and  C_10 
REMARK    5  A    between atoms: C_10  and  C_11 
REMARK       I    between atoms: C_11  and  N_12 
REMARK    6  A    between atoms: N_12  and  N_13 
ROOT
HETATM    1  C   UNL     1       8.515  28.884  57.768  1.00  0.00     0.255 C 
HETATM    2  N   UNL     1       7.561  27.885  57.741  1.00  0.00    -0.245 N 
HETATM    3  O   UNL     1       9.656  28.780  57.316  1.00  0.00    -0.270 OA
HETATM    4  H   UNL     1       6.680  28.026  58.236  1.00  0.00     0.192 HD
ENDROOT
BRANCH   1   5
HETATM    5  C   UNL     1       8.074  30.168  58.484  1.00  0.00     0.227 C 
BRANCH   5   6
HETATM    6  N   UNL     1       8.616  30.420  59.816  1.00  0.00    -0.352 N 
HETATM    7  C   UNL     1       8.873  31.708  60.235  1.00  0.00     0.222 C 
HETATM    8  O   UNL     1       8.888  32.658  59.458  1.00  0.00    -0.273 OA
HETATM    9  H   UNL     1       8.418  29.729  60.530  1.00  0.00     0.162 HD
BRANCH   7  10
HETATM   10  C   UNL     1       9.132  31.856  61.725  1.00  0.00     0.141 C 
BRANCH  10  11
HETATM   11  C   UNL     1       7.888  32.130  62.541  1.00  0.00    -0.049 A 
HETATM   12  C   UNL     1       6.605  31.834  62.063  1.00  0.00     0.010 A 
HETATM   13  C   UNL     1       5.465  32.132  62.819  1.00  0.00     0.037 A 
HETATM   14  C   UNL     1       5.588  32.753  64.060  1.00  0.00     0.068 A 
HETATM   15  C   UNL     1       6.861  33.077  64.531  1.00  0.00     0.037 A 
HETATM   16  C   UNL     1       8.001  32.773  63.782  1.00  0.00     0.010 A 
BRANCH  14  17
HETATM   17  O   UNL     1       4.560  33.104  64.891  1.00  0.00    -0.356 OA
HETATM   18  C   UNL     1       4.869  34.009  65.945  1.00  0.00     0.210 C 
ENDBRANCH  14  17
ENDBRANCH  10  11
ENDBRANCH   7  10
ENDBRANCH   5   6
ENDBRANCH   1   5
BRANCH   2  19
HETATM   19  N   UNL     1       7.860  26.653  57.236  1.00  0.00    -0.166 NA
HETATM   20  C   UNL     1       7.386  26.379  56.065  1.00  0.00     0.157 A 
HETATM   21  C   UNL     1       6.565  27.271  55.125  1.00  0.00     0.277 A 
HETATM   22  C   UNL     1       7.550  25.108  55.368  1.00  0.00     0.028 A 
HETATM   23  O   UNL     1       6.247  28.419  55.349  1.00  0.00    -0.266 OA
HETATM   24  N   UNL     1       6.312  26.496  54.012  1.00  0.00    -0.321 N 
HETATM   25  C   UNL     1       6.885  25.234  54.148  1.00  0.00     0.048 A 
HETATM   26  H   UNL     1       5.784  26.826  53.217  1.00  0.00     0.169 HD
HETATM   27  C   UNL     1       6.845  24.194  53.245  1.00  0.00     0.032 A 
HETATM   28  C   UNL     1       7.497  23.006  53.604  1.00  0.00     0.021 A 
HETATM   29  C   UNL     1       8.163  22.892  54.843  1.00  0.00     0.012 A 
HETATM   30 BR   UNL     1       9.024  21.265  55.281  1.00  0.00    -0.051 Br
HETATM   31  C   UNL     1       8.197  23.951  55.749  1.00  0.00     0.035 A 
ENDBRANCH   2  19
TORSDOF 6
ENDMDL
MODEL 2
REMARK VINA RESULT:      -9.6      1.508      1.939
REMARK  6 active torsions:
REMARK  status: ('A' for Active; 'I' for Inactive)
REMARK    1  A    between atoms: O_2  and  C_3 
REMARK    2  A    between atoms: C_6  and  C_7 
REMARK    3  A    between atoms: C_7  and  C_8 
REMARK       I    between atoms: C_8  and  N_9 
REMARK    4  A    between atoms: N_9  and  C_10 
REMARK    5  A    between atoms: C_10  and  C_11 
REMARK       I    between atoms: C_11  and  N_12 
REMARK    6  A    between atoms: N_12  and  N_13 
ROOT
HETATM    1  C   UNL     1       7.646  29.367  57.969  1.00  0.00     0.255 C 
HETATM    2  N   UNL     1       6.823  29.082  56.896  1.00  0.00    -0.245 N 
HETATM    3  O   UNL     1       8.637  28.708  58.289  1.00  0.00    -0.270 OA
HETATM    4  H   UNL     1       5.965  29.620  56.772  1.00  0.00     0.192 HD
ENDROOT
BRANCH   1   5
HETATM    5  C   UNL     1       7.199  30.566  58.816  1.00  0.00     0.227 C 
BRANCH   5   6
HETATM    6  N   UNL     1       7.838  30.751  60.115  1.00  0.00    -0.352 N 
HETATM    7  C   UNL     1       8.667  31.830  60.340  1.00  0.00     0.222 C 
HETATM    8  O   UNL     1       9.088  32.533  59.426  1.00  0.00    -0.273 OA
HETATM    9  H   UNL     1       7.370  30.349  60.918  1.00  0.00     0.162 HD
BRANCH   7  10
HETATM   10  C   UNL     1       9.012  32.079  61.798  1.00  0.00     0.141 C 
BRANCH  10  11
HETATM   11  C   UNL     1       7.917  32.769  62.581  1.00  0.00    -0.049 A 
HETATM   12  C   UNL     1       7.879  32.749  63.982  1.00  0.00     0.010 A 
HETATM   13  C   UNL     1       6.834  33.361  64.685  1.00  0.00     0.037 A 
HETATM   14  C   UNL     1       5.796  33.986  63.997  1.00  0.00     0.068 A 
HETATM   15  C   UNL     1       5.812  33.985  62.601  1.00  0.00     0.037 A 
HETATM   16  C   UNL     1       6.857  33.382  61.897  1.00  0.00     0.010 A 
BRANCH  14  17
HETATM   17  O   UNL     1       4.718  34.611  64.560  1.00  0.00    -0.356 OA
HETATM   18  C   UNL     1       4.259  34.098  65.806  1.00  0.00     0.210 C 
ENDBRANCH  14  17
ENDBRANCH  10  11
ENDBRANCH   7  10
ENDBRANCH   5   6
ENDBRANCH   1   5
BRANCH   2  19
HETATM   19  N   UNL     1       7.041  27.976  56.127  1.00  0.00    -0.166 NA
HETATM   20  C   UNL     1       6.102  27.655  55.299  1.00  0.00     0.157 A 
HETATM   21  C   UNL     1       4.779  28.377  55.015  1.00  0.00     0.277 A 
HETATM   22  C   UNL     1       6.117  26.489  54.423  1.00  0.00     0.028 A 
HETATM   23  O   UNL     1       4.419  29.410  55.538  1.00  0.00    -0.266 OA
HETATM   24  N   UNL     1       4.144  27.617  54.055  1.00  0.00    -0.321 N 
HETATM   25  C   UNL     1       4.921  26.515  53.705  1.00  0.00     0.048 A 
HETATM   26  H   UNL     1       3.241  27.852  53.671  1.00  0.00     0.169 HD
HETATM   27  C   UNL     1       4.619  25.536  52.783  1.00  0.00     0.032 A 
HETATM   28  C   UNL     1       5.560  24.514  52.600  1.00  0.00     0.021 A 
HETATM   29  C   UNL     1       6.765  24.499  53.335  1.00  0.00     0.012 A 
HETATM   30 BR   UNL     1       8.001  23.095  53.052  1.00  0.00    -0.051 Br
HETATM   31  C   UNL     1       7.061  25.495  54.265  1.00  0.00     0.035 A 
ENDBRANCH   2  19
TORSDOF 6
ENDMDL
MODEL 3
REMARK VINA RESULT:      -9.5      3.842     10.675
REMARK  6 active torsions:
REMARK  status: ('A' for Active; 'I' for Inactive)
REMARK    1  A    between atoms: O_2  and  C_3 
REMARK    2  A    between atoms: C_6  and  C_7 
REMARK    3  A    between atoms: C_7  and  C_8 
REMARK       I    between atoms: C_8  and  N_9 
REMARK    4  A    between atoms: N_9  and  C_10 
REMARK    5  A    between atoms: C_10  and  C_11 
REMARK       I    between atoms: C_11  and  N_12 
REMARK    6  A    between atoms: N_12  and  N_13 
ROOT
HETATM    1  C   UNL     1       6.540  30.281  57.484  1.00  0.00     0.255 C 
HETATM    2  N   UNL     1       7.393  31.178  58.098  1.00  0.00    -0.245 N 
HETATM    3  O   UNL     1       5.340  30.164  57.738  1.00  0.00    -0.270 OA
HETATM    4  H   UNL     1       8.393  31.128  57.899  1.00  0.00     0.192 HD
ENDROOT
BRANCH   1   5
HETATM    5  C   UNL     1       7.216  29.352  56.466  1.00  0.00     0.227 C 
BRANCH   5   6
HETATM    6  N   UNL     1       6.727  27.979  56.376  1.00  0.00    -0.352 N 
HETATM    7  C   UNL     1       7.295  26.982  57.141  1.00  0.00     0.222 C 
HETATM    8  O   UNL     1       8.358  27.139  57.734  1.00  0.00    -0.273 OA
HETATM    9  H   UNL     1       5.764  27.853  56.089  1.00  0.00     0.162 HD
BRANCH   7  10
HETATM   10  C   UNL     1       6.506  25.685  57.190  1.00  0.00     0.141 C 
BRANCH  10  11
HETATM   11  C   UNL     1       6.894  24.688  56.121  1.00  0.00    -0.049 A 
HETATM   12  C   UNL     1       7.913  23.746  56.319  1.00  0.00     0.010 A 
HETATM   13  C   UNL     1       8.282  22.857  55.302  1.00  0.00     0.037 A 
HETATM   14  C   UNL     1       7.653  22.911  54.060  1.00  0.00     0.068 A 
HETATM   15  C   UNL     1       6.657  23.864  53.846  1.00  0.00     0.037 A 
HETATM   16  C   UNL     1       6.281  24.747  54.862  1.00  0.00     0.010 A 
BRANCH  14  17
HETATM   17  O   UNL     1       7.924  22.109  52.985  1.00  0.00    -0.356 OA
HETATM   18  C   UNL     1       7.879  20.705  53.206  1.00  0.00     0.210 C 
ENDBRANCH  14  17
ENDBRANCH  10  11
ENDBRANCH   7  10
ENDBRANCH   5   6
ENDBRANCH   1   5
BRANCH   2  19
HETATM   19  N   UNL     1       6.946  31.985  59.103  1.00  0.00    -0.166 NA
HETATM   20  C   UNL     1       7.519  31.846  60.254  1.00  0.00     0.157 A 
HETATM   21  C   UNL     1       8.683  30.926  60.644  1.00  0.00     0.277 A 
HETATM   22  C   UNL     1       7.162  32.576  61.465  1.00  0.00     0.028 A 
HETATM   23  O   UNL     1       9.269  30.179  59.891  1.00  0.00    -0.266 OA
HETATM   24  N   UNL     1       8.902  31.162  61.986  1.00  0.00    -0.321 N 
HETATM   25  C   UNL     1       8.019  32.124  62.469  1.00  0.00     0.048 A 
HETATM   26  H   UNL     1       9.617  30.691  62.521  1.00  0.00     0.169 HD
HETATM   27  C   UNL     1       7.937  32.618  63.753  1.00  0.00     0.032 A 
HETATM   28  C   UNL     1       6.959  33.588  64.008  1.00  0.00     0.021 A 
HETATM   29  C   UNL     1       6.096  34.033  62.983  1.00  0.00     0.012 A 
HETATM   30 BR   UNL     1       4.789  35.342  63.380  1.00  0.00    -0.051 Br
HETATM   31  C   UNL     1       6.188  33.527  61.686  1.00  0.00     0.035 A 
ENDBRANCH   2  19
TORSDOF 6
ENDMDL
MODEL 4
REMARK VINA RESULT:      -9.3      3.893     10.586
REMARK  6 active torsions:
REMARK  status: ('A' for Active; 'I' for Inactive)
REMARK    1  A    between atoms: O_2  and  C_3 
REMARK    2  A    between atoms: C_6  and  C_7 
REMARK    3  A    between atoms: C_7  and  C_8 
REMARK       I    between atoms: C_8  and  N_9 
REMARK    4  A    between atoms: N_9  and  C_10 
REMARK    5  A    between atoms: C_10  and  C_11 
REMARK       I    between atoms: C_11  and  N_12 
REMARK    6  A    between atoms: N_12  and  N_13 
ROOT
HETATM    1  C   UNL     1       9.536  31.060  58.398  1.00  0.00     0.255 C 
HETATM    2  N   UNL     1       8.382  30.842  59.126  1.00  0.00    -0.245 N 
HETATM    3  O   UNL     1      10.128  32.138  58.325  1.00  0.00    -0.270 OA
HETATM    4  H   UNL     1       7.904  29.944  59.040  1.00  0.00     0.192 HD
ENDROOT
BRANCH   1   5
HETATM    5  C   UNL     1      10.026  29.845  57.599  1.00  0.00     0.227 C 
BRANCH   5   6
HETATM    6  N   UNL     1       9.112  29.270  56.616  1.00  0.00    -0.352 N 
HETATM    7  C   UNL     1       8.165  28.344  56.999  1.00  0.00     0.222 C 
HETATM    8  O   UNL     1       8.194  27.794  58.096  1.00  0.00    -0.273 OA
HETATM    9  H   UNL     1       8.912  29.827  55.794  1.00  0.00     0.162 HD
BRANCH   7  10
HETATM   10  C   UNL     1       7.089  28.064  55.964  1.00  0.00     0.141 C 
BRANCH  10  11
HETATM   11  C   UNL     1       7.395  26.888  55.062  1.00  0.00    -0.049 A 
HETATM   12  C   UNL     1       7.534  27.032  53.675  1.00  0.00     0.010 A 
HETATM   13  C   UNL     1       7.778  25.925  52.855  1.00  0.00     0.037 A 
HETATM   14  C   UNL     1       7.866  24.648  53.406  1.00  0.00     0.068 A 
HETATM   15  C   UNL     1       7.700  24.493  54.783  1.00  0.00     0.037 A 
HETATM   16  C   UNL     1       7.464  25.598  55.606  1.00  0.00     0.010 A 
BRANCH  14  17
HETATM   17  O   UNL     1       8.092  23.488  52.719  1.00  0.00    -0.356 OA
HETATM   18  C   UNL     1       7.745  22.275  53.377  1.00  0.00     0.210 C 
ENDBRANCH  14  17
ENDBRANCH  10  11
ENDBRANCH   7  10
ENDBRANCH   5   6
ENDBRANCH   1   5
BRANCH   2  19
HETATM   19  N   UNL     1       7.776  31.867  59.791  1.00  0.00    -0.166 NA
HETATM   20  C   UNL     1       7.900  31.873  61.078  1.00  0.00     0.157 A 
HETATM   21  C   UNL     1       8.684  30.907  61.975  1.00  0.00     0.277 A 
HETATM   22  C   UNL     1       7.294  32.850  61.976  1.00  0.00     0.028 A 
HETATM   23  O   UNL     1       9.346  29.969  61.583  1.00  0.00    -0.266 OA
HETATM   24  N   UNL     1       8.483  31.357  63.263  1.00  0.00    -0.321 N 
HETATM   25  C   UNL     1       7.674  32.490  63.270  1.00  0.00     0.048 A 
HETATM   26  H   UNL     1       8.883  30.908  64.074  1.00  0.00     0.169 HD
HETATM   27  C   UNL     1       7.258  33.217  64.365  1.00  0.00     0.032 A 
HETATM   28  C   UNL     1       6.438  34.327  64.124  1.00  0.00     0.021 A 
HETATM   29  C   UNL     1       6.059  34.678  62.810  1.00  0.00     0.012 A 
HETATM   30 BR   UNL     1       4.948  36.185  62.541  1.00  0.00    -0.051 Br
HETATM   31  C   UNL     1       6.487  33.936  61.710  1.00  0.00     0.035 A 
ENDBRANCH   2  19
TORSDOF 6
ENDMDL
MODEL 5
REMARK VINA RESULT:      -9.3      3.765     10.353
REMARK  6 active torsions:
REMARK  status: ('A' for Active; 'I' for Inactive)
REMARK    1  A    between atoms: O_2  and  C_3 
REMARK    2  A    between atoms: C_6  and  C_7 
REMARK    3  A    between atoms: C_7  and  C_8 
REMARK       I    between atoms: C_8  and  N_9 
REMARK    4  A    between atoms: N_9  and  C_10 
REMARK    5  A    between atoms: C_10  and  C_11 
REMARK       I    between atoms: C_11  and  N_12 
REMARK    6  A    between atoms: N_12  and  N_13 
ROOT
HETATM    1  C   UNL     1       5.784  29.183  56.616  1.00  0.00     0.255 C 
HETATM    2  N   UNL     1       6.345  30.427  56.838  1.00  0.00    -0.245 N 
HETATM    3  O   UNL     1       5.168  28.529  57.459  1.00  0.00    -0.270 OA
HETATM    4  H   UNL     1       6.930  30.844  56.113  1.00  0.00     0.192 HD
ENDROOT
BRANCH   1   5
HETATM    5  C   UNL     1       6.040  28.609  55.216  1.00  0.00     0.227 C 
BRANCH   5   6
HETATM    6  N   UNL     1       5.477  27.297  54.911  1.00  0.00    -0.352 N 
HETATM    7  C   UNL     1       5.822  26.640  53.749  1.00  0.00     0.222 C 
HETATM    8  O   UNL     1       6.408  27.204  52.829  1.00  0.00    -0.273 OA
HETATM    9  H   UNL     1       5.186  26.729  55.697  1.00  0.00     0.162 HD
BRANCH   7  10
HETATM   10  C   UNL     1       5.424  25.175  53.699  1.00  0.00     0.141 C 
BRANCH  10  11
HETATM   11  C   UNL     1       6.549  24.220  54.028  1.00  0.00    -0.049 A 
HETATM   12  C   UNL     1       7.222  23.494  53.036  1.00  0.00     0.010 A 
HETATM   13  C   UNL     1       8.235  22.586  53.367  1.00  0.00     0.037 A 
HETATM   14  C   UNL     1       8.578  22.372  54.701  1.00  0.00     0.068 A 
HETATM   15  C   UNL     1       7.894  23.070  55.696  1.00  0.00     0.037 A 
HETATM   16  C   UNL     1       6.887  23.983  55.368  1.00  0.00     0.010 A 
BRANCH  14  17
HETATM   17  O   UNL     1       9.539  21.512  55.157  1.00  0.00    -0.356 OA
HETATM   18  C   UNL     1       9.112  20.492  56.053  1.00  0.00     0.210 C 
ENDBRANCH  14  17
ENDBRANCH  10  11
ENDBRANCH   7  10
ENDBRANCH   5   6
ENDBRANCH   1   5
BRANCH   2  19
HETATM   19  N   UNL     1       6.291  31.002  58.074  1.00  0.00    -0.166 NA
HETATM   20  C   UNL     1       7.387  31.001  58.760  1.00  0.00     0.157 A 
HETATM   21  C   UNL     1       8.773  30.483  58.359  1.00  0.00     0.277 A 
HETATM   22  C   UNL     1       7.531  31.523  60.115  1.00  0.00     0.028 A 
HETATM   23  O   UNL     1       9.055  29.996  57.285  1.00  0.00    -0.266 OA
HETATM   24  N   UNL     1       9.582  30.715  59.453  1.00  0.00    -0.321 N 
HETATM   25  C   UNL     1       8.863  31.323  60.479  1.00  0.00     0.048 A 
HETATM   26  H   UNL     1      10.562  30.472  59.478  1.00  0.00     0.169 HD
HETATM   27  C   UNL     1       9.330  31.705  61.717  1.00  0.00     0.032 A 
HETATM   28  C   UNL     1       8.414  32.300  62.594  1.00  0.00     0.021 A 
HETATM   29  C   UNL     1       7.068  32.495  62.214  1.00  0.00     0.012 A 
HETATM   30 BR   UNL     1       5.870  33.299  63.436  1.00  0.00    -0.051 Br
HETATM   31  C   UNL     1       6.606  32.104  60.957  1.00  0.00     0.035 A 
ENDBRANCH   2  19
TORSDOF 6
ENDMDL
MODEL 6
REMARK VINA RESULT:      -9.2      1.798      2.157
REMARK  6 active torsions:
REMARK  status: ('A' for Active; 'I' for Inactive)
REMARK    1  A    between atoms: O_2  and  C_3 
REMARK    2  A    between atoms: C_6  and  C_7 
REMARK    3  A    between atoms: C_7  and  C_8 
REMARK       I    between atoms: C_8  and  N_9 
REMARK    4  A    between atoms: N_9  and  C_10 
REMARK    5  A    between atoms: C_10  and  C_11 
REMARK       I    between atoms: C_11  and  N_12 
REMARK    6  A    between atoms: N_12  and  N_13 
ROOT
HETATM    1  C   UNL     1       7.393  28.535  57.373  1.00  0.00     0.255 C 
HETATM    2  N   UNL     1       7.036  27.828  56.241  1.00  0.00    -0.245 N 
HETATM    3  O   UNL     1       7.935  28.047  58.366  1.00  0.00    -0.270 OA
HETATM    4  H   UNL     1       6.493  28.295  55.514  1.00  0.00     0.192 HD
ENDROOT
BRANCH   1   5
HETATM    5  C   UNL     1       6.999  30.018  57.350  1.00  0.00     0.227 C 
BRANCH   5   6
HETATM    6  N   UNL     1       6.045  30.480  58.354  1.00  0.00    -0.352 N 
HETATM    7  C   UNL     1       6.148  31.748  58.886  1.00  0.00     0.222 C 
HETATM    8  O   UNL     1       7.148  32.443  58.731  1.00  0.00    -0.273 OA
HETATM    9  H   UNL     1       5.127  30.052  58.346  1.00  0.00     0.162 HD
BRANCH   7  10
HETATM   10  C   UNL     1       4.934  32.212  59.672  1.00  0.00     0.141 C 
BRANCH  10  11
HETATM   11  C   UNL     1       5.271  32.892  60.981  1.00  0.00    -0.049 A 
HETATM   12  C   UNL     1       5.081  34.267  61.176  1.00  0.00     0.010 A 
HETATM   13  C   UNL     1       5.437  34.882  62.381  1.00  0.00     0.037 A 
HETATM   14  C   UNL     1       6.011  34.135  63.408  1.00  0.00     0.068 A 
HETATM   15  C   UNL     1       6.230  32.771  63.212  1.00  0.00     0.037 A 
HETATM   16  C   UNL     1       5.868  32.153  62.012  1.00  0.00     0.010 A 
BRANCH  14  17
HETATM   17  O   UNL     1       6.409  34.613  64.626  1.00  0.00    -0.356 OA
HETATM   18  C   UNL     1       7.025  33.683  65.509  1.00  0.00     0.210 C 
ENDBRANCH  14  17
ENDBRANCH  10  11
ENDBRANCH   7  10
ENDBRANCH   5   6
ENDBRANCH   1   5
BRANCH   2  19
HETATM   19  N   UNL     1       7.225  26.478  56.177  1.00  0.00    -0.166 NA
HETATM   20  C   UNL     1       7.407  25.976  55.000  1.00  0.00     0.157 A 
HETATM   21  C   UNL     1       7.492  26.697  53.648  1.00  0.00     0.277 A 
HETATM   22  C   UNL     1       7.582  24.558  54.708  1.00  0.00     0.028 A 
HETATM   23  O   UNL     1       7.417  27.896  53.488  1.00  0.00    -0.266 OA
HETATM   24  N   UNL     1       7.689  25.701  52.713  1.00  0.00    -0.321 N 
HETATM   25  C   UNL     1       7.743  24.451  53.326  1.00  0.00     0.048 A 
HETATM   26  H   UNL     1       7.782  25.882  51.724  1.00  0.00     0.169 HD
HETATM   27  C   UNL     1       7.927  23.228  52.720  1.00  0.00     0.032 A 
HETATM   28  C   UNL     1       7.943  22.097  53.548  1.00  0.00     0.021 A 
HETATM   29  C   UNL     1       7.776  22.219  54.944  1.00  0.00     0.012 A 
HETATM   30 BR   UNL     1       7.803  20.660  56.016  1.00  0.00    -0.051 Br
HETATM   31  C   UNL     1       7.591  23.463  55.547  1.00  0.00     0.035 A 
ENDBRANCH   2  19
TORSDOF 6
ENDMDL
MODEL 7
REMARK VINA RESULT:      -9.1      1.947      3.386
REMARK  6 active torsions:
REMARK  status: ('A' for Active; 'I' for Inactive)
REMARK    1  A    between atoms: O_2  and  C_3 
REMARK    2  A    between atoms: C_6  and  C_7 
REMARK    3  A    between atoms: C_7  and  C_8 
REMARK       I    between atoms: C_8  and  N_9 
REMARK    4  A    between atoms: N_9  and  C_10 
REMARK    5  A    between atoms: C_10  and  C_11 
REMARK       I    between atoms: C_11  and  N_12 
REMARK    6  A    between atoms: N_12  and  N_13 
ROOT
HETATM    1  C   UNL     1       7.722  28.149  55.155  1.00  0.00     0.255 C 
HETATM    2  N   UNL     1       7.206  27.037  55.793  1.00  0.00    -0.245 N 
HETATM    3  O   UNL     1       8.267  28.135  54.050  1.00  0.00    -0.270 OA
HETATM    4  H   UNL     1       6.870  27.126  56.753  1.00  0.00     0.192 HD
ENDROOT
BRANCH   1   5
HETATM    5  C   UNL     1       7.629  29.449  55.964  1.00  0.00     0.227 C 
BRANCH   5   6
HETATM    6  N   UNL     1       8.365  29.515  57.223  1.00  0.00    -0.352 N 
HETATM    7  C   UNL     1       9.623  30.078  57.269  1.00  0.00     0.222 C 
HETATM    8  O   UNL     1      10.267  30.324  56.253  1.00  0.00    -0.273 OA
HETATM    9  H   UNL     1       7.817  29.531  58.075  1.00  0.00     0.162 HD
BRANCH   7  10
HETATM   10  C   UNL     1      10.144  30.368  58.667  1.00  0.00     0.141 C 
BRANCH  10  11
HETATM   11  C   UNL     1       9.124  31.005  59.583  1.00  0.00    -0.049 A 
HETATM   12  C   UNL     1       9.148  30.812  60.971  1.00  0.00     0.010 A 
HETATM   13  C   UNL     1       8.170  31.379  61.797  1.00  0.00     0.037 A 
HETATM   14  C   UNL     1       7.137  32.134  61.245  1.00  0.00     0.068 A 
HETATM   15  C   UNL     1       7.090  32.308  59.861  1.00  0.00     0.037 A 
HETATM   16  C   UNL     1       8.069  31.748  59.035  1.00  0.00     0.010 A 
BRANCH  14  17
HETATM   17  O   UNL     1       6.120  32.734  61.936  1.00  0.00    -0.356 OA
HETATM   18  C   UNL     1       5.859  32.243  63.246  1.00  0.00     0.210 C 
ENDBRANCH  14  17
ENDBRANCH  10  11
ENDBRANCH   7  10
ENDBRANCH   5   6
ENDBRANCH   1   5
BRANCH   2  19
HETATM   19  N   UNL     1       7.326  25.797  55.235  1.00  0.00    -0.166 NA
HETATM   20  C   UNL     1       7.700  24.843  56.023  1.00  0.00     0.157 A 
HETATM   21  C   UNL     1       7.986  24.894  57.529  1.00  0.00     0.277 A 
HETATM   22  C   UNL     1       7.931  23.461  55.618  1.00  0.00     0.028 A 
HETATM   23  O   UNL     1       7.877  25.877  58.230  1.00  0.00    -0.266 OA
HETATM   24  N   UNL     1       8.355  23.610  57.875  1.00  0.00    -0.321 N 
HETATM   25  C   UNL     1       8.323  22.770  56.765  1.00  0.00     0.048 A 
HETATM   26  H   UNL     1       8.604  23.341  58.816  1.00  0.00     0.169 HD
HETATM   27  C   UNL     1       8.625  21.426  56.722  1.00  0.00     0.032 A 
HETATM   28  C   UNL     1       8.524  20.785  55.480  1.00  0.00     0.021 A 
HETATM   29  C   UNL     1       8.129  21.497  54.327  1.00  0.00     0.012 A 
HETATM   30 BR   UNL     1       8.012  20.585  52.674  1.00  0.00    -0.051 Br
HETATM   31  C   UNL     1       7.825  22.857  54.382  1.00  0.00     0.035 A 
ENDBRANCH   2  19
TORSDOF 6
ENDMDL
MODEL 8
REMARK VINA RESULT:      -9.1      3.882     10.029
REMARK  6 active torsions:
REMARK  status: ('A' for Active; 'I' for Inactive)
REMARK    1  A    between atoms: O_2  and  C_3 
REMARK    2  A    between atoms: C_6  and  C_7 
REMARK    3  A    between atoms: C_7  and  C_8 
REMARK       I    between atoms: C_8  and  N_9 
REMARK    4  A    between atoms: N_9  and  C_10 
REMARK    5  A    between atoms: C_10  and  C_11 
REMARK       I    between atoms: C_11  and  N_12 
REMARK    6  A    between atoms: N_12  and  N_13 
ROOT
HETATM    1  C   UNL     1       4.915  31.000  56.972  1.00  0.00     0.255 C 
HETATM    2  N   UNL     1       6.028  31.723  57.357  1.00  0.00    -0.245 N 
HETATM    3  O   UNL     1       3.901  30.853  57.656  1.00  0.00    -0.270 OA
HETATM    4  H   UNL     1       6.863  31.699  56.770  1.00  0.00     0.192 HD
ENDROOT
BRANCH   1   5
HETATM    5  C   UNL     1       5.046  30.304  55.611  1.00  0.00     0.227 C 
BRANCH   5   6
HETATM    6  N   UNL     1       6.227  29.476  55.386  1.00  0.00    -0.352 N 
HETATM    7  C   UNL     1       6.119  28.102  55.327  1.00  0.00     0.222 C 
HETATM    8  O   UNL     1       5.105  27.511  55.686  1.00  0.00    -0.273 OA
HETATM    9  H   UNL     1       6.999  29.903  54.888  1.00  0.00     0.162 HD
BRANCH   7  10
HETATM   10  C   UNL     1       7.344  27.386  54.783  1.00  0.00     0.141 C 
BRANCH  10  11
HETATM   11  C   UNL     1       7.376  25.905  55.088  1.00  0.00    -0.049 A 
HETATM   12  C   UNL     1       7.836  25.408  56.315  1.00  0.00     0.010 A 
HETATM   13  C   UNL     1       7.894  24.032  56.562  1.00  0.00     0.037 A 
HETATM   14  C   UNL     1       7.512  23.125  55.575  1.00  0.00     0.068 A 
HETATM   15  C   UNL     1       7.079  23.611  54.340  1.00  0.00     0.037 A 
HETATM   16  C   UNL     1       7.013  24.985  54.094  1.00  0.00     0.010 A 
BRANCH  14  17
HETATM   17  O   UNL     1       7.528  21.762  55.684  1.00  0.00    -0.356 OA
HETATM   18  C   UNL     1       8.377  21.209  56.683  1.00  0.00     0.210 C 
ENDBRANCH  14  17
ENDBRANCH  10  11
ENDBRANCH   7  10
ENDBRANCH   5   6
ENDBRANCH   1   5
BRANCH   2  19
HETATM   19  N   UNL     1       6.090  32.298  58.592  1.00  0.00    -0.166 NA
HETATM   20  C   UNL     1       6.897  31.754  59.443  1.00  0.00     0.157 A 
HETATM   21  C   UNL     1       7.847  30.566  59.245  1.00  0.00     0.277 A 
HETATM   22  C   UNL     1       7.078  32.184  60.825  1.00  0.00     0.028 A 
HETATM   23  O   UNL     1       7.997  29.954  58.209  1.00  0.00    -0.266 OA
HETATM   24  N   UNL     1       8.472  30.389  60.462  1.00  0.00    -0.321 N 
HETATM   25  C   UNL     1       8.028  31.331  61.387  1.00  0.00     0.048 A 
HETATM   26  H   UNL     1       9.159  29.669  60.631  1.00  0.00     0.169 HD
HETATM   27  C   UNL     1       8.424  31.468  62.699  1.00  0.00     0.032 A 
HETATM   28  C   UNL     1       7.832  32.496  63.445  1.00  0.00     0.021 A 
HETATM   29  C   UNL     1       6.869  33.350  62.865  1.00  0.00     0.012 A 
HETATM   30 BR   UNL     1       6.097  34.720  63.916  1.00  0.00    -0.051 Br
HETATM   31  C   UNL     1       6.476  33.202  61.535  1.00  0.00     0.035 A 
ENDBRANCH   2  19
TORSDOF 6
ENDMDL
MODEL 9
REMARK VINA RESULT:      -8.9      2.497      3.640
REMARK  6 active torsions:
REMARK  status: ('A' for Active; 'I' for Inactive)
REMARK    1  A    between atoms: O_2  and  C_3 
REMARK    2  A    between atoms: C_6  and  C_7 
REMARK    3  A    between atoms: C_7  and  C_8 
REMARK       I    between atoms: C_8  and  N_9 
REMARK    4  A    between atoms: N_9  and  C_10 
REMARK    5  A    between atoms: C_10  and  C_11 
REMARK       I    between atoms: C_11  and  N_12 
REMARK    6  A    between atoms: N_12  and  N_13 
ROOT
HETATM    1  C   UNL     1       4.905  28.049  56.396  1.00  0.00     0.255 C 
HETATM    2  N   UNL     1       4.818  27.030  55.466  1.00  0.00    -0.245 N 
HETATM    3  O   UNL     1       5.640  28.038  57.384  1.00  0.00    -0.270 OA
HETATM    4  H   UNL     1       4.102  27.080  54.740  1.00  0.00     0.192 HD
ENDROOT
BRANCH   1   5
HETATM    5  C   UNL     1       3.943  29.219  56.151  1.00  0.00     0.227 C 
BRANCH   5   6
HETATM    6  N   UNL     1       4.438  30.567  56.416  1.00  0.00    -0.352 N 
HETATM    7  C   UNL     1       4.091  31.224  57.577  1.00  0.00     0.222 C 
HETATM    8  O   UNL     1       3.189  30.827  58.309  1.00  0.00    -0.273 OA
HETATM    9  H   UNL     1       5.312  30.829  55.977  1.00  0.00     0.162 HD
BRANCH   7  10
HETATM   10  C   UNL     1       4.908  32.470  57.877  1.00  0.00     0.141 C 
BRANCH  10  11
HETATM   11  C   UNL     1       5.892  32.301  59.013  1.00  0.00    -0.049 A 
HETATM   12  C   UNL     1       7.004  31.453  58.915  1.00  0.00     0.010 A 
HETATM   13  C   UNL     1       7.879  31.282  59.993  1.00  0.00     0.037 A 
HETATM   14  C   UNL     1       7.646  31.941  61.199  1.00  0.00     0.068 A 
HETATM   15  C   UNL     1       6.526  32.765  61.314  1.00  0.00     0.037 A 
HETATM   16  C   UNL     1       5.654  32.944  60.236  1.00  0.00     0.010 A 
BRANCH  14  17
HETATM   17  O   UNL     1       8.416  31.855  62.326  1.00  0.00    -0.356 OA
HETATM   18  C   UNL     1       7.945  32.543  63.478  1.00  0.00     0.210 C 
ENDBRANCH  14  17
ENDBRANCH  10  11
ENDBRANCH   7  10
ENDBRANCH   5   6
ENDBRANCH   1   5
BRANCH   2  19
HETATM   19  N   UNL     1       5.535  25.881  55.626  1.00  0.00    -0.166 NA
HETATM   20  C   UNL     1       6.046  25.365  54.556  1.00  0.00     0.157 A 
HETATM   21  C   UNL     1       6.004  25.895  53.117  1.00  0.00     0.277 A 
HETATM   22  C   UNL     1       6.806  24.121  54.502  1.00  0.00     0.028 A 
HETATM   23  O   UNL     1       5.478  26.929  52.767  1.00  0.00    -0.266 OA
HETATM   24  N   UNL     1       6.694  24.967  52.364  1.00  0.00    -0.321 N 
HETATM   25  C   UNL     1       7.165  23.931  53.167  1.00  0.00     0.048 A 
HETATM   26  H   UNL     1       6.829  25.054  51.368  1.00  0.00     0.169 HD
HETATM   27  C   UNL     1       7.894  22.830  52.773  1.00  0.00     0.032 A 
HETATM   28  C   UNL     1       8.257  21.911  53.767  1.00  0.00     0.021 A 
HETATM   29  C   UNL     1       7.884  22.114  55.113  1.00  0.00     0.012 A 
HETATM   30 BR   UNL     1       8.396  20.841  56.415  1.00  0.00    -0.051 Br
HETATM   31  C   UNL     1       7.146  23.233  55.501  1.00  0.00     0.035 A 
ENDBRANCH   2  19
TORSDOF 6
ENDMDL
MODEL 10
REMARK VINA RESULT:      -8.8      4.009     10.348
REMARK  6 active torsions:
REMARK  status: ('A' for Active; 'I' for Inactive)
REMARK    1  A    between atoms: O_2  and  C_3 
REMARK    2  A    between atoms: C_6  and  C_7 
REMARK    3  A    between atoms: C_7  and  C_8 
REMARK       I    between atoms: C_8  and  N_9 
REMARK    4  A    between atoms: N_9  and  C_10 
REMARK    5  A    between atoms: C_10  and  C_11 
REMARK       I    between atoms: C_11  and  N_12 
REMARK    6  A    between atoms: N_12  and  N_13 
ROOT
HETATM    1  C   UNL     1       5.756  31.835  57.747  1.00  0.00     0.255 C 
HETATM    2  N   UNL     1       5.720  31.338  59.036  1.00  0.00    -0.245 N 
HETATM    3  O   UNL     1       5.682  33.029  57.452  1.00  0.00    -0.270 OA
HETATM    4  H   UNL     1       5.679  30.328  59.177  1.00  0.00     0.192 HD
ENDROOT
BRANCH   1   5
HETATM    5  C   UNL     1       5.831  30.763  56.652  1.00  0.00     0.227 C 
BRANCH   5   6
HETATM    6  N   UNL     1       6.144  29.398  57.063  1.00  0.00    -0.352 N 
HETATM    7  C   UNL     1       7.428  28.909  56.950  1.00  0.00     0.222 C 
HETATM    8  O   UNL     1       8.293  29.488  56.298  1.00  0.00    -0.273 OA
HETATM    9  H   UNL     1       5.550  28.985  57.773  1.00  0.00     0.162 HD
BRANCH   7  10
HETATM   10  C   UNL     1       7.686  27.608  57.691  1.00  0.00     0.141 C 
BRANCH  10  11
HETATM   11  C   UNL     1       7.829  26.404  56.787  1.00  0.00    -0.049 A 
HETATM   12  C   UNL     1       7.252  26.359  55.510  1.00  0.00     0.010 A 
HETATM   13  C   UNL     1       7.364  25.219  54.706  1.00  0.00     0.037 A 
HETATM   14  C   UNL     1       8.037  24.092  55.175  1.00  0.00     0.068 A 
HETATM   15  C   UNL     1       8.590  24.118  56.456  1.00  0.00     0.037 A 
HETATM   16  C   UNL     1       8.486  25.259  57.258  1.00  0.00     0.010 A 
BRANCH  14  17
HETATM   17  O   UNL     1       8.211  22.918  54.496  1.00  0.00    -0.356 OA
HETATM   18  C   UNL     1       7.896  21.721  55.198  1.00  0.00     0.210 C 
ENDBRANCH  14  17
ENDBRANCH  10  11
ENDBRANCH   7  10
ENDBRANCH   5   6
ENDBRANCH   1   5
BRANCH   2  19
HETATM   19  N   UNL     1       5.540  32.174  60.099  1.00  0.00    -0.166 NA
HETATM   20  C   UNL     1       6.449  32.144  61.018  1.00  0.00     0.157 A 
HETATM   21  C   UNL     1       7.746  31.325  61.063  1.00  0.00     0.277 A 
HETATM   22  C   UNL     1       6.423  32.921  62.251  1.00  0.00     0.028 A 
HETATM   23  O   UNL     1       8.129  30.572  60.194  1.00  0.00    -0.266 OA
HETATM   24  N   UNL     1       8.347  31.657  62.260  1.00  0.00    -0.321 N 
HETATM   25  C   UNL     1       7.581  32.588  62.957  1.00  0.00     0.048 A 
HETATM   26  H   UNL     1       9.227  31.266  62.564  1.00  0.00     0.169 HD
HETATM   27  C   UNL     1       7.858  33.153  64.182  1.00  0.00     0.032 A 
HETATM   28  C   UNL     1       6.931  34.072  64.691  1.00  0.00     0.021 A 
HETATM   29  C   UNL     1       5.762  34.398  63.968  1.00  0.00     0.012 A 
HETATM   30 BR   UNL     1       4.540  35.642  64.701  1.00  0.00    -0.051 Br
HETATM   31  C   UNL     1       5.492  33.820  62.728  1.00  0.00     0.035 A 
ENDBRANCH   2  19
TORSDOF 6
ENDMDL
