MODEL 1
REMARK VINA RESULT:     -10.4      0.000      0.000
REMARK  5 active torsions:
REMARK  status: ('A' for Active; 'I' for Inactive)
REMARK    1  A    between atoms: C_2  and  C_3 
REMARK    2  A    between atoms: N_4  and  C_6 
REMARK    3  A    between atoms: C_6  and  C_7 
REMARK    4  A    between atoms: N_14  and  C_16 
REMARK    5  A    between atoms: C_16  and  C_17 
ROOT
HETATM    1  C   UNL     1       6.505  28.137  56.497  1.00  0.00    -0.032 A 
HETATM    2  C   UNL     1       6.155  26.853  56.023  1.00  0.00     0.020 A 
HETATM    3  C   UNL     1       5.539  26.674  54.766  1.00  0.00     0.002 A 
HETATM    4  C   UNL     1       5.266  27.807  53.997  1.00  0.00     0.076 A 
HETATM    5  O   UNL     1       4.619  27.707  52.798  1.00  0.00    -0.349 OA
HETATM    6  C   UNL     1       5.459  27.137  51.786  1.00  0.00     0.203 C 
HETATM    7  C   UNL     1       5.298  25.618  51.737  1.00  0.00     0.262 C 
HETATM    8  N   UNL     1       5.876  24.910  52.959  1.00  0.00    -0.061 N 
HETATM    9  H   UNL     1       5.633  23.921  52.813  1.00  0.00     0.280 HD
HETATM   10  C   UNL     1       5.176  25.306  54.246  1.00  0.00     0.276 C 
HETATM   11  C   UNL     1       5.595  29.080  54.447  1.00  0.00     0.038 A 
HETATM   12  C   UNL     1       6.236  29.242  55.676  1.00  0.00     0.011 A 
ENDROOT
BRANCH   1  13
HETATM   13  C   UNL     1       7.201  28.317  57.831  1.00  0.00     0.274 C 
BRANCH  13  14
HETATM   14  N   UNL     1       8.539  29.025  57.839  1.00  0.00    -0.053 N 
HETATM   15  C   UNL     1       8.517  30.516  58.253  1.00  0.00     0.279 C 
HETATM   16  C   UNL     1       9.891  31.229  58.121  1.00  0.00     0.248 C 
HETATM   17  N   UNL     1      10.821  30.678  57.280  1.00  0.00    -0.358 N 
HETATM   18  O   UNL     1      10.136  32.293  58.680  1.00  0.00    -0.271 OA
HETATM   19  C   UNL     1      10.767  29.324  56.773  1.00  0.00     0.150 C 
HETATM   20  H   UNL     1      11.709  31.180  57.260  1.00  0.00     0.162 HD
HETATM   21  C   UNL     1       9.330  28.847  56.547  1.00  0.00     0.256 C 
HETATM   22  H   UNL     1       9.102  28.552  58.557  1.00  0.00     0.281 HD
BRANCH  15  23
HETATM   23  C   UNL     1       7.970  30.692  59.681  1.00  0.00     0.038 C 
HETATM   24  C   UNL     1       6.913  31.782  59.831  1.00  0.00     0.007 C 
ENDBRANCH  15  23
ENDBRANCH  13  14
ENDBRANCH   1  13
BRANCH   8  25
HETATM   25  C   UNL     1       7.382  24.940  53.082  1.00  0.00     0.274 C 
BRANCH  25  26
HETATM   26  C   UNL     1       7.984  23.733  53.749  1.00  0.00    -0.029 A 
HETATM   27  C   UNL     1       8.148  22.530  53.045  1.00  0.00     0.054 A 
HETATM   28  C   UNL     1       8.697  21.416  53.681  1.00  0.00     0.155 A 
HETATM   29  F   UNL     1       8.843  20.282  52.987  1.00  0.00    -0.203 F 
HETATM   30  C   UNL     1       9.084  21.482  55.013  1.00  0.00     0.154 A 
HETATM   31  F   UNL     1       9.607  20.411  55.621  1.00  0.00    -0.203 F 
HETATM   32  C   UNL     1       8.926  22.664  55.727  1.00  0.00     0.046 A 
HETATM   33  C   UNL     1       8.378  23.787  55.100  1.00  0.00     0.012 A 
ENDBRANCH  25  26
ENDBRANCH   8  25
TORSDOF 5
ENDMDL
MODEL 2
REMARK VINA RESULT:      -9.9      3.765      7.492
REMARK  5 active torsions:
REMARK  status: ('A' for Active; 'I' for Inactive)
REMARK    1  A    between atoms: C_2  and  C_3 
REMARK    2  A    between atoms: N_4  and  C_6 
REMARK    3  A    between atoms: C_6  and  C_7 
REMARK    4  A    between atoms: N_14  and  C_16 
REMARK    5  A    between atoms: C_16  and  C_17 
ROOT
HETATM    1  C   UNL     1       7.328  24.662  53.317  1.00  0.00    -0.032 A 
HETATM    2  C   UNL     1       7.639  26.038  53.388  1.00  0.00     0.020 A 
HETATM    3  C   UNL     1       6.628  27.019  53.472  1.00  0.00     0.002 A 
HETATM    4  C   UNL     1       5.296  26.597  53.468  1.00  0.00     0.076 A 
HETATM    5  O   UNL     1       4.271  27.499  53.487  1.00  0.00    -0.349 OA
HETATM    6  C   UNL     1       4.140  28.129  54.768  1.00  0.00     0.203 C 
HETATM    7  C   UNL     1       4.964  29.415  54.829  1.00  0.00     0.262 C 
HETATM    8  N   UNL     1       6.470  29.167  54.833  1.00  0.00    -0.061 N 
HETATM    9  H   UNL     1       6.878  30.110  54.807  1.00  0.00     0.280 HD
HETATM   10  C   UNL     1       6.951  28.489  53.563  1.00  0.00     0.276 C 
HETATM   11  C   UNL     1       4.968  25.248  53.391  1.00  0.00     0.038 A 
HETATM   12  C   UNL     1       5.977  24.286  53.344  1.00  0.00     0.011 A 
ENDROOT
BRANCH   1  13
HETATM   13  C   UNL     1       8.421  23.613  53.267  1.00  0.00     0.274 C 
BRANCH  13  14
HETATM   14  N   UNL     1       8.261  22.385  54.138  1.00  0.00    -0.053 N 
HETATM   15  C   UNL     1       8.611  22.563  55.635  1.00  0.00     0.279 C 
HETATM   16  C   UNL     1       8.554  21.247  56.458  1.00  0.00     0.248 C 
HETATM   17  N   UNL     1       8.657  20.062  55.780  1.00  0.00    -0.358 N 
HETATM   18  O   UNL     1       8.496  21.240  57.683  1.00  0.00    -0.271 OA
HETATM   19  C   UNL     1       8.473  19.916  54.352  1.00  0.00     0.150 C 
HETATM   20  H   UNL     1       8.587  19.236  56.375  1.00  0.00     0.162 HD
HETATM   21  C   UNL     1       8.951  21.146  53.577  1.00  0.00     0.256 C 
HETATM   22  H   UNL     1       7.259  22.157  54.118  1.00  0.00     0.281 HD
BRANCH  15  23
HETATM   23  C   UNL     1       7.721  23.633  56.294  1.00  0.00     0.038 C 
HETATM   24  C   UNL     1       8.481  24.776  56.959  1.00  0.00     0.007 C 
ENDBRANCH  15  23
ENDBRANCH  13  14
ENDBRANCH   1  13
BRANCH   8  25
HETATM   25  C   UNL     1       7.025  28.523  56.084  1.00  0.00     0.274 C 
BRANCH  25  26
HETATM   26  C   UNL     1       7.941  29.402  56.890  1.00  0.00    -0.029 A 
HETATM   27  C   UNL     1       9.328  29.378  56.680  1.00  0.00     0.054 A 
HETATM   28  C   UNL     1      10.166  30.192  57.445  1.00  0.00     0.155 A 
HETATM   29  F   UNL     1      11.485  30.150  57.224  1.00  0.00    -0.203 F 
HETATM   30  C   UNL     1       9.640  31.029  58.419  1.00  0.00     0.154 A 
HETATM   31  F   UNL     1      10.446  31.806  59.153  1.00  0.00    -0.203 F 
HETATM   32  C   UNL     1       8.269  31.064  58.643  1.00  0.00     0.046 A 
HETATM   33  C   UNL     1       7.420  30.254  57.883  1.00  0.00     0.012 A 
ENDBRANCH  25  26
ENDBRANCH   8  25
TORSDOF 5
ENDMDL
MODEL 3
REMARK VINA RESULT:      -9.7      1.395      2.224
REMARK  5 active torsions:
REMARK  status: ('A' for Active; 'I' for Inactive)
REMARK    1  A    between atoms: C_2  and  C_3 
REMARK    2  A    between atoms: N_4  and  C_6 
REMARK    3  A    between atoms: C_6  and  C_7 
REMARK    4  A    between atoms: N_14  and  C_16 
REMARK    5  A    between atoms: C_16  and  C_17 
ROOT
HETATM    1  C   UNL     1       5.086  28.296  55.646  1.00  0.00    -0.032 A 
HETATM    2  C   UNL     1       5.040  27.026  55.029  1.00  0.00     0.020 A 
HETATM    3  C   UNL     1       4.747  26.885  53.655  1.00  0.00     0.002 A 
HETATM    4  C   UNL     1       4.486  28.039  52.914  1.00  0.00     0.076 A 
HETATM    5  O   UNL     1       4.138  27.966  51.595  1.00  0.00    -0.349 OA
HETATM    6  C   UNL     1       5.252  27.605  50.770  1.00  0.00     0.203 C 
HETATM    7  C   UNL     1       5.331  26.089  50.594  1.00  0.00     0.262 C 
HETATM    8  N   UNL     1       5.725  25.353  51.871  1.00  0.00    -0.061 N 
HETATM    9  H   UNL     1       5.667  24.359  51.614  1.00  0.00     0.280 HD
HETATM   10  C   UNL     1       4.710  25.535  52.985  1.00  0.00     0.276 C 
HETATM   11  C   UNL     1       4.518  29.298  53.504  1.00  0.00     0.038 A 
HETATM   12  C   UNL     1       4.844  29.427  54.854  1.00  0.00     0.011 A 
ENDROOT
BRANCH   1  13
HETATM   13  C   UNL     1       5.441  28.441  57.113  1.00  0.00     0.274 C 
BRANCH  13  14
HETATM   14  N   UNL     1       6.308  29.615  57.516  1.00  0.00    -0.053 N 
HETATM   15  C   UNL     1       7.671  29.264  58.159  1.00  0.00     0.279 C 
HETATM   16  C   UNL     1       8.465  30.498  58.670  1.00  0.00     0.248 C 
HETATM   17  N   UNL     1       7.767  31.647  58.927  1.00  0.00    -0.358 N 
HETATM   18  O   UNL     1       9.665  30.450  58.918  1.00  0.00    -0.271 OA
HETATM   19  C   UNL     1       6.430  31.918  58.447  1.00  0.00     0.150 C 
HETATM   20  H   UNL     1       8.350  32.426  59.235  1.00  0.00     0.162 HD
HETATM   21  C   UNL     1       5.576  30.651  58.362  1.00  0.00     0.256 C 
HETATM   22  H   UNL     1       6.537  30.106  56.643  1.00  0.00     0.281 HD
BRANCH  15  23
HETATM   23  C   UNL     1       8.547  28.438  57.198  1.00  0.00     0.038 C 
HETATM   24  C   UNL     1       8.761  29.070  55.826  1.00  0.00     0.007 C 
ENDBRANCH  15  23
ENDBRANCH  13  14
ENDBRANCH   1  13
BRANCH   8  25
HETATM   25  C   UNL     1       7.147  25.565  52.337  1.00  0.00     0.274 C 
BRANCH  25  26
HETATM   26  C   UNL     1       7.694  24.470  53.211  1.00  0.00    -0.029 A 
HETATM   27  C   UNL     1       7.952  23.193  52.687  1.00  0.00     0.054 A 
HETATM   28  C   UNL     1       8.448  22.185  53.513  1.00  0.00     0.155 A 
HETATM   29  F   UNL     1       8.686  20.977  52.988  1.00  0.00    -0.203 F 
HETATM   30  C   UNL     1       8.690  22.428  54.858  1.00  0.00     0.154 A 
HETATM   31  F   UNL     1       9.163  21.458  55.649  1.00  0.00    -0.203 F 
HETATM   32  C   UNL     1       8.438  23.685  55.395  1.00  0.00     0.046 A 
HETATM   33  C   UNL     1       7.941  24.704  54.577  1.00  0.00     0.012 A 
ENDBRANCH  25  26
ENDBRANCH   8  25
TORSDOF 5
ENDMDL
MODEL 4
REMARK VINA RESULT:      -9.7      3.336      6.788
REMARK  5 active torsions:
REMARK  status: ('A' for Active; 'I' for Inactive)
REMARK    1  A    between atoms: C_2  and  C_3 
REMARK    2  A    between atoms: N_4  and  C_6 
REMARK    3  A    between atoms: C_6  and  C_7 
REMARK    4  A    between atoms: N_14  and  C_16 
REMARK    5  A    between atoms: C_16  and  C_17 
ROOT
HETATM    1  C   UNL     1       4.939  28.681  52.936  1.00  0.00    -0.032 A 
HETATM    2  C   UNL     1       6.094  27.999  53.379  1.00  0.00     0.020 A 
HETATM    3  C   UNL     1       6.239  27.590  54.723  1.00  0.00     0.002 A 
HETATM    4  C   UNL     1       5.211  27.889  55.619  1.00  0.00     0.076 A 
HETATM    5  O   UNL     1       5.315  27.573  56.943  1.00  0.00    -0.349 OA
HETATM    6  C   UNL     1       5.192  26.163  57.165  1.00  0.00     0.203 C 
HETATM    7  C   UNL     1       6.561  25.484  57.133  1.00  0.00     0.262 C 
HETATM    8  N   UNL     1       7.189  25.458  55.743  1.00  0.00    -0.061 N 
HETATM    9  H   UNL     1       8.116  25.041  55.895  1.00  0.00     0.280 HD
HETATM   10  C   UNL     1       7.462  26.848  55.200  1.00  0.00     0.276 C 
HETATM   11  C   UNL     1       4.069  28.566  55.205  1.00  0.00     0.038 A 
HETATM   12  C   UNL     1       3.921  28.934  53.868  1.00  0.00     0.011 A 
ENDROOT
BRANCH   1  13
HETATM   13  C   UNL     1       4.774  29.082  51.484  1.00  0.00     0.274 C 
BRANCH  13  14
HETATM   14  N   UNL     1       3.812  28.279  50.635  1.00  0.00    -0.053 N 
HETATM   15  C   UNL     1       4.450  27.364  49.563  1.00  0.00     0.279 C 
HETATM   16  C   UNL     1       3.420  26.662  48.636  1.00  0.00     0.248 C 
HETATM   17  N   UNL     1       2.172  27.215  48.530  1.00  0.00    -0.358 N 
HETATM   18  O   UNL     1       3.710  25.687  47.951  1.00  0.00    -0.271 OA
HETATM   19  C   UNL     1       1.625  28.184  49.454  1.00  0.00     0.150 C 
HETATM   20  H   UNL     1       1.537  26.691  47.928  1.00  0.00     0.162 HD
HETATM   21  C   UNL     1       2.698  29.118  50.018  1.00  0.00     0.256 C 
HETATM   22  H   UNL     1       3.330  27.643  51.283  1.00  0.00     0.281 HD
BRANCH  15  23
HETATM   23  C   UNL     1       5.380  26.316  50.204  1.00  0.00     0.038 C 
HETATM   24  C   UNL     1       4.713  25.422  51.244  1.00  0.00     0.007 C 
ENDBRANCH  15  23
ENDBRANCH  13  14
ENDBRANCH   1  13
BRANCH   8  25
HETATM   25  C   UNL     1       6.507  24.562  54.733  1.00  0.00     0.274 C 
BRANCH  25  26
HETATM   26  C   UNL     1       7.194  23.245  54.494  1.00  0.00    -0.029 A 
HETATM   27  C   UNL     1       7.509  22.394  55.565  1.00  0.00     0.054 A 
HETATM   28  C   UNL     1       8.157  21.181  55.328  1.00  0.00     0.155 A 
HETATM   29  F   UNL     1       8.444  20.388  56.367  1.00  0.00    -0.203 F 
HETATM   30  C   UNL     1       8.499  20.803  54.037  1.00  0.00     0.154 A 
HETATM   31  F   UNL     1       9.122  19.641  53.813  1.00  0.00    -0.203 F 
HETATM   32  C   UNL     1       8.197  21.635  52.964  1.00  0.00     0.046 A 
HETATM   33  C   UNL     1       7.548  22.852  53.190  1.00  0.00     0.012 A 
ENDBRANCH  25  26
ENDBRANCH   8  25
TORSDOF 5
ENDMDL
MODEL 5
REMARK VINA RESULT:      -9.4      3.398      6.568
REMARK  5 active torsions:
REMARK  status: ('A' for Active; 'I' for Inactive)
REMARK    1  A    between atoms: C_2  and  C_3 
REMARK    2  A    between atoms: N_4  and  C_6 
REMARK    3  A    between atoms: C_6  and  C_7 
REMARK    4  A    between atoms: N_14  and  C_16 
REMARK    5  A    between atoms: C_16  and  C_17 
ROOT
HETATM    1  C   UNL     1       5.410  28.765  52.661  1.00  0.00    -0.032 A 
HETATM    2  C   UNL     1       6.462  28.049  53.273  1.00  0.00     0.020 A 
HETATM    3  C   UNL     1       6.366  27.591  54.605  1.00  0.00     0.002 A 
HETATM    4  C   UNL     1       5.200  27.876  55.318  1.00  0.00     0.076 A 
HETATM    5  O   UNL     1       5.067  27.512  56.627  1.00  0.00    -0.349 OA
HETATM    6  C   UNL     1       4.892  26.097  56.772  1.00  0.00     0.203 C 
HETATM    7  C   UNL     1       6.239  25.397  56.954  1.00  0.00     0.262 C 
HETATM    8  N   UNL     1       7.100  25.409  55.695  1.00  0.00    -0.061 N 
HETATM    9  H   UNL     1       7.982  24.971  55.991  1.00  0.00     0.280 HD
HETATM   10  C   UNL     1       7.478  26.813  55.260  1.00  0.00     0.276 C 
HETATM   11  C   UNL     1       4.155  28.586  54.737  1.00  0.00     0.038 A 
HETATM   12  C   UNL     1       4.248  29.003  53.409  1.00  0.00     0.011 A 
ENDROOT
BRANCH   1  13
HETATM   13  C   UNL     1       5.506  29.220  51.218  1.00  0.00     0.274 C 
BRANCH  13  14
HETATM   14  N   UNL     1       4.698  28.465  50.185  1.00  0.00    -0.053 N 
HETATM   15  C   UNL     1       3.212  28.875  50.051  1.00  0.00     0.279 C 
HETATM   16  C   UNL     1       2.396  27.987  49.072  1.00  0.00     0.248 C 
HETATM   17  N   UNL     1       2.877  26.735  48.790  1.00  0.00    -0.358 N 
HETATM   18  O   UNL     1       1.316  28.338  48.611  1.00  0.00    -0.271 OA
HETATM   19  C   UNL     1       4.232  26.301  49.050  1.00  0.00     0.150 C 
HETATM   20  H   UNL     1       2.309  26.215  48.122  1.00  0.00     0.162 HD
HETATM   21  C   UNL     1       4.819  26.949  50.306  1.00  0.00     0.256 C 
HETATM   22  H   UNL     1       5.125  28.688  49.277  1.00  0.00     0.281 HD
BRANCH  15  23
HETATM   23  C   UNL     1       3.075  30.357  49.653  1.00  0.00     0.038 C 
HETATM   24  C   UNL     1       2.200  31.190  50.584  1.00  0.00     0.007 C 
ENDBRANCH  15  23
ENDBRANCH  13  14
ENDBRANCH   1  13
BRANCH   8  25
HETATM   25  C   UNL     1       6.596  24.560  54.549  1.00  0.00     0.274 C 
BRANCH  25  26
HETATM   26  C   UNL     1       7.264  23.219  54.418  1.00  0.00    -0.029 A 
HETATM   27  C   UNL     1       7.533  22.436  55.552  1.00  0.00     0.054 A 
HETATM   28  C   UNL     1       8.163  21.199  55.414  1.00  0.00     0.155 A 
HETATM   29  F   UNL     1       8.407  20.473  56.511  1.00  0.00    -0.203 F 
HETATM   30  C   UNL     1       8.532  20.729  54.161  1.00  0.00     0.154 A 
HETATM   31  F   UNL     1       9.138  19.543  54.033  1.00  0.00    -0.203 F 
HETATM   32  C   UNL     1       8.275  21.492  53.028  1.00  0.00     0.046 A 
HETATM   33  C   UNL     1       7.644  22.733  53.153  1.00  0.00     0.012 A 
ENDBRANCH  25  26
ENDBRANCH   8  25
TORSDOF 5
ENDMDL
MODEL 6
REMARK VINA RESULT:      -9.4      3.848      7.912
REMARK  5 active torsions:
REMARK  status: ('A' for Active; 'I' for Inactive)
REMARK    1  A    between atoms: C_2  and  C_3 
REMARK    2  A    between atoms: N_4  and  C_6 
REMARK    3  A    between atoms: C_6  and  C_7 
REMARK    4  A    between atoms: N_14  and  C_16 
REMARK    5  A    between atoms: C_16  and  C_17 
ROOT
HETATM    1  C   UNL     1       5.731  24.705  52.965  1.00  0.00    -0.032 A 
HETATM    2  C   UNL     1       5.498  25.259  54.244  1.00  0.00     0.020 A 
HETATM    3  C   UNL     1       6.238  24.845  55.372  1.00  0.00     0.002 A 
HETATM    4  C   UNL     1       7.208  23.855  55.199  1.00  0.00     0.076 A 
HETATM    5  O   UNL     1       7.917  23.370  56.260  1.00  0.00    -0.349 OA
HETATM    6  C   UNL     1       8.875  24.322  56.741  1.00  0.00     0.203 C 
HETATM    7  C   UNL     1       8.271  25.195  57.840  1.00  0.00     0.262 C 
HETATM    8  N   UNL     1       7.206  26.159  57.328  1.00  0.00    -0.061 N 
HETATM    9  H   UNL     1       6.853  26.617  58.179  1.00  0.00     0.280 HD
HETATM   10  C   UNL     1       6.006  25.441  56.737  1.00  0.00     0.276 C 
HETATM   11  C   UNL     1       7.448  23.292  53.951  1.00  0.00     0.038 A 
HETATM   12  C   UNL     1       6.734  23.734  52.837  1.00  0.00     0.011 A 
ENDROOT
BRANCH   1  13
HETATM   13  C   UNL     1       4.958  25.183  51.752  1.00  0.00     0.274 C 
BRANCH  13  14
HETATM   14  N   UNL     1       4.938  26.670  51.469  1.00  0.00    -0.053 N 
HETATM   15  C   UNL     1       4.983  27.080  49.977  1.00  0.00     0.279 C 
HETATM   16  C   UNL     1       5.089  28.612  49.746  1.00  0.00     0.248 C 
HETATM   17  N   UNL     1       5.570  29.383  50.770  1.00  0.00    -0.358 N 
HETATM   18  O   UNL     1       4.831  29.133  48.666  1.00  0.00    -0.271 OA
HETATM   19  C   UNL     1       5.665  28.950  52.146  1.00  0.00     0.150 C 
HETATM   20  H   UNL     1       5.590  30.382  50.562  1.00  0.00     0.162 HD
HETATM   21  C   UNL     1       5.974  27.456  52.265  1.00  0.00     0.256 C 
HETATM   22  H   UNL     1       4.031  27.009  51.816  1.00  0.00     0.281 HD
BRANCH  15  23
HETATM   23  C   UNL     1       3.777  26.515  49.205  1.00  0.00     0.038 C 
HETATM   24  C   UNL     1       4.109  25.940  47.831  1.00  0.00     0.007 C 
ENDBRANCH  15  23
ENDBRANCH  13  14
ENDBRANCH   1  13
BRANCH   8  25
HETATM   25  C   UNL     1       7.706  27.281  56.446  1.00  0.00     0.274 C 
BRANCH  25  26
HETATM   26  C   UNL     1       8.338  28.429  57.185  1.00  0.00    -0.029 A 
HETATM   27  C   UNL     1       9.639  28.854  56.876  1.00  0.00     0.054 A 
HETATM   28  C   UNL     1      10.215  29.913  57.578  1.00  0.00     0.155 A 
HETATM   29  F   UNL     1      11.457  30.299  57.263  1.00  0.00    -0.203 F 
HETATM   30  C   UNL     1       9.512  30.556  58.588  1.00  0.00     0.154 A 
HETATM   31  F   UNL     1      10.068  31.569  59.262  1.00  0.00    -0.203 F 
HETATM   32  C   UNL     1       8.223  30.146  58.910  1.00  0.00     0.046 A 
HETATM   33  C   UNL     1       7.636  29.087  58.213  1.00  0.00     0.012 A 
ENDBRANCH  25  26
ENDBRANCH   8  25
TORSDOF 5
ENDMDL
MODEL 7
REMARK VINA RESULT:      -9.3      3.858      6.945
REMARK  5 active torsions:
REMARK  status: ('A' for Active; 'I' for Inactive)
REMARK    1  A    between atoms: C_2  and  C_3 
REMARK    2  A    between atoms: N_4  and  C_6 
REMARK    3  A    between atoms: C_6  and  C_7 
REMARK    4  A    between atoms: N_14  and  C_16 
REMARK    5  A    between atoms: C_16  and  C_17 
ROOT
HETATM    1  C   UNL     1       7.651  31.630  61.438  1.00  0.00    -0.032 A 
HETATM    2  C   UNL     1       7.191  31.285  60.148  1.00  0.00     0.020 A 
HETATM    3  C   UNL     1       8.056  31.287  59.032  1.00  0.00     0.002 A 
HETATM    4  C   UNL     1       9.389  31.656  59.230  1.00  0.00     0.076 A 
HETATM    5  O   UNL     1      10.261  31.734  58.183  1.00  0.00    -0.349 OA
HETATM    6  C   UNL     1      10.621  30.438  57.690  1.00  0.00     0.203 C 
HETATM    7  C   UNL     1       9.678  29.999  56.570  1.00  0.00     0.262 C 
HETATM    8  N   UNL     1       8.265  29.691  57.058  1.00  0.00    -0.061 N 
HETATM    9  H   UNL     1       7.744  29.482  56.196  1.00  0.00     0.280 HD
HETATM   10  C   UNL     1       7.578  30.905  57.654  1.00  0.00     0.276 C 
HETATM   11  C   UNL     1       9.860  32.007  60.490  1.00  0.00     0.038 A 
HETATM   12  C   UNL     1       9.004  31.967  61.591  1.00  0.00     0.011 A 
ENDROOT
BRANCH   1  13
HETATM   13  C   UNL     1       6.725  31.588  62.637  1.00  0.00     0.274 C 
BRANCH  13  14
HETATM   14  N   UNL     1       5.539  32.528  62.646  1.00  0.00    -0.053 N 
HETATM   15  C   UNL     1       5.268  33.270  63.977  1.00  0.00     0.279 C 
HETATM   16  C   UNL     1       3.970  34.122  63.974  1.00  0.00     0.248 C 
HETATM   17  N   UNL     1       3.002  33.811  63.056  1.00  0.00    -0.358 N 
HETATM   18  O   UNL     1       3.758  35.000  64.803  1.00  0.00    -0.271 OA
HETATM   19  C   UNL     1       3.218  32.994  61.883  1.00  0.00     0.150 C 
HETATM   20  H   UNL     1       2.187  34.424  63.090  1.00  0.00     0.162 HD
HETATM   21  C   UNL     1       4.254  31.894  62.124  1.00  0.00     0.256 C 
HETATM   22  H   UNL     1       5.761  33.265  61.965  1.00  0.00     0.281 HD
BRANCH  15  23
HETATM   23  C   UNL     1       6.469  34.145  64.384  1.00  0.00     0.038 C 
HETATM   24  C   UNL     1       7.084  33.798  65.736  1.00  0.00     0.007 C 
ENDBRANCH  15  23
ENDBRANCH  13  14
ENDBRANCH   1  13
BRANCH   8  25
HETATM   25  C   UNL     1       8.124  28.458  57.921  1.00  0.00     0.274 C 
BRANCH  25  26
HETATM   26  C   UNL     1       7.697  27.219  57.184  1.00  0.00    -0.029 A 
HETATM   27  C   UNL     1       8.414  26.020  57.318  1.00  0.00     0.054 A 
HETATM   28  C   UNL     1       8.012  24.882  56.618  1.00  0.00     0.155 A 
HETATM   29  F   UNL     1       8.713  23.752  56.763  1.00  0.00    -0.203 F 
HETATM   30  C   UNL     1       6.903  24.920  55.784  1.00  0.00     0.154 A 
HETATM   31  F   UNL     1       6.521  23.828  55.112  1.00  0.00    -0.203 F 
HETATM   32  C   UNL     1       6.181  26.099  55.637  1.00  0.00     0.046 A 
HETATM   33  C   UNL     1       6.575  27.246  56.334  1.00  0.00     0.012 A 
ENDBRANCH  25  26
ENDBRANCH   8  25
TORSDOF 5
ENDMDL
MODEL 8
REMARK VINA RESULT:      -9.2      4.117      8.624
REMARK  5 active torsions:
REMARK  status: ('A' for Active; 'I' for Inactive)
REMARK    1  A    between atoms: C_2  and  C_3 
REMARK    2  A    between atoms: N_4  and  C_6 
REMARK    3  A    between atoms: C_6  and  C_7 
REMARK    4  A    between atoms: N_14  and  C_16 
REMARK    5  A    between atoms: C_16  and  C_17 
ROOT
HETATM    1  C   UNL     1       5.548  26.850  51.821  1.00  0.00    -0.032 A 
HETATM    2  C   UNL     1       5.351  27.247  53.162  1.00  0.00     0.020 A 
HETATM    3  C   UNL     1       5.629  26.374  54.237  1.00  0.00     0.002 A 
HETATM    4  C   UNL     1       6.096  25.091  53.942  1.00  0.00     0.076 A 
HETATM    5  O   UNL     1       6.328  24.181  54.933  1.00  0.00    -0.349 OA
HETATM    6  C   UNL     1       7.498  24.507  55.693  1.00  0.00     0.203 C 
HETATM    7  C   UNL     1       7.141  25.380  56.896  1.00  0.00     0.262 C 
HETATM    8  N   UNL     1       6.701  26.789  56.510  1.00  0.00    -0.061 N 
HETATM    9  H   UNL     1       6.434  27.221  57.404  1.00  0.00     0.280 HD
HETATM   10  C   UNL     1       5.436  26.795  55.672  1.00  0.00     0.276 C 
HETATM   11  C   UNL     1       6.289  24.679  52.629  1.00  0.00     0.038 A 
HETATM   12  C   UNL     1       6.045  25.561  51.577  1.00  0.00     0.011 A 
ENDROOT
BRANCH   1  13
HETATM   13  C   UNL     1       5.284  27.806  50.674  1.00  0.00     0.274 C 
BRANCH  13  14
HETATM   14  N   UNL     1       3.870  27.897  50.143  1.00  0.00    -0.053 N 
HETATM   15  C   UNL     1       3.714  27.820  48.606  1.00  0.00     0.279 C 
HETATM   16  C   UNL     1       2.260  28.046  48.106  1.00  0.00     0.248 C 
HETATM   17  N   UNL     1       1.393  28.707  48.934  1.00  0.00    -0.358 N 
HETATM   18  O   UNL     1       1.895  27.723  46.980  1.00  0.00    -0.271 OA
HETATM   19  C   UNL     1       1.606  28.907  50.351  1.00  0.00     0.150 C 
HETATM   20  H   UNL     1       0.450  28.799  48.557  1.00  0.00     0.162 HD
HETATM   21  C   UNL     1       3.087  29.084  50.695  1.00  0.00     0.256 C 
HETATM   22  H   UNL     1       3.380  27.070  50.508  1.00  0.00     0.281 HD
BRANCH  15  23
HETATM   23  C   UNL     1       4.257  26.489  48.054  1.00  0.00     0.038 C 
HETATM   24  C   UNL     1       3.472  25.252  48.480  1.00  0.00     0.007 C 
ENDBRANCH  15  23
ENDBRANCH  13  14
ENDBRANCH   1  13
BRANCH   8  25
HETATM   25  C   UNL     1       7.782  27.680  55.941  1.00  0.00     0.274 C 
BRANCH  25  26
HETATM   26  C   UNL     1       8.351  28.678  56.912  1.00  0.00    -0.029 A 
HETATM   27  C   UNL     1       9.643  29.198  56.733  1.00  0.00     0.054 A 
HETATM   28  C   UNL     1      10.160  30.114  57.649  1.00  0.00     0.155 A 
HETATM   29  F   UNL     1      11.394  30.595  57.455  1.00  0.00    -0.203 F 
HETATM   30  C   UNL     1       9.410  30.520  58.744  1.00  0.00     0.154 A 
HETATM   31  F   UNL     1       9.911  31.397  59.622  1.00  0.00    -0.203 F 
HETATM   32  C   UNL     1       8.130  30.014  58.938  1.00  0.00     0.046 A 
HETATM   33  C   UNL     1       7.600  29.095  58.027  1.00  0.00     0.012 A 
ENDBRANCH  25  26
ENDBRANCH   8  25
TORSDOF 5
ENDMDL
MODEL 9
REMARK VINA RESULT:      -8.7      4.179      7.979
REMARK  5 active torsions:
REMARK  status: ('A' for Active; 'I' for Inactive)
REMARK    1  A    between atoms: C_2  and  C_3 
REMARK    2  A    between atoms: N_4  and  C_6 
REMARK    3  A    between atoms: C_6  and  C_7 
REMARK    4  A    between atoms: N_14  and  C_16 
REMARK    5  A    between atoms: C_16  and  C_17 
ROOT
HETATM    1  C   UNL     1       6.597  25.617  52.413  1.00  0.00    -0.032 A 
HETATM    2  C   UNL     1       6.211  25.663  53.771  1.00  0.00     0.020 A 
HETATM    3  C   UNL     1       6.603  24.659  54.683  1.00  0.00     0.002 A 
HETATM    4  C   UNL     1       7.378  23.600  54.206  1.00  0.00     0.076 A 
HETATM    5  O   UNL     1       7.741  22.569  55.024  1.00  0.00    -0.349 OA
HETATM    6  C   UNL     1       8.741  22.965  55.971  1.00  0.00     0.203 C 
HETATM    7  C   UNL     1       8.099  23.460  57.266  1.00  0.00     0.262 C 
HETATM    8  N   UNL     1       7.371  24.792  57.108  1.00  0.00    -0.061 N 
HETATM    9  H   UNL     1       6.942  24.953  58.029  1.00  0.00     0.280 HD
HETATM   10  C   UNL     1       6.208  24.708  56.137  1.00  0.00     0.276 C 
HETATM   11  C   UNL     1       7.763  23.532  52.872  1.00  0.00     0.038 A 
HETATM   12  C   UNL     1       7.399  24.548  51.988  1.00  0.00     0.011 A 
ENDROOT
BRANCH   1  13
HETATM   13  C   UNL     1       6.204  26.719  51.449  1.00  0.00     0.274 C 
BRANCH  13  14
HETATM   14  N   UNL     1       4.787  27.246  51.520  1.00  0.00    -0.053 N 
HETATM   15  C   UNL     1       4.153  27.677  50.176  1.00  0.00     0.279 C 
HETATM   16  C   UNL     1       2.750  28.328  50.319  1.00  0.00     0.248 C 
HETATM   17  N   UNL     1       2.410  28.860  51.534  1.00  0.00    -0.358 N 
HETATM   18  O   UNL     1       1.980  28.445  49.371  1.00  0.00    -0.271 OA
HETATM   19  C   UNL     1       3.095  28.570  52.775  1.00  0.00     0.150 C 
HETATM   20  H   UNL     1       1.467  29.248  51.567  1.00  0.00     0.162 HD
HETATM   21  C   UNL     1       4.594  28.336  52.569  1.00  0.00     0.256 C 
HETATM   22  H   UNL     1       4.212  26.461  51.853  1.00  0.00     0.281 HD
BRANCH  15  23
HETATM   23  C   UNL     1       4.087  26.499  49.186  1.00  0.00     0.038 C 
HETATM   24  C   UNL     1       4.730  26.768  47.829  1.00  0.00     0.007 C 
ENDBRANCH  15  23
ENDBRANCH  13  14
ENDBRANCH   1  13
BRANCH   8  25
HETATM   25  C   UNL     1       8.253  25.995  56.860  1.00  0.00     0.274 C 
BRANCH  25  26
HETATM   26  C   UNL     1       7.607  27.321  57.156  1.00  0.00    -0.029 A 
HETATM   27  C   UNL     1       8.380  28.426  57.544  1.00  0.00     0.054 A 
HETATM   28  C   UNL     1       7.764  29.646  57.826  1.00  0.00     0.155 A 
HETATM   29  F   UNL     1       8.525  30.684  58.193  1.00  0.00    -0.203 F 
HETATM   30  C   UNL     1       6.386  29.782  57.728  1.00  0.00     0.154 A 
HETATM   31  F   UNL     1       5.799  30.952  58.002  1.00  0.00    -0.203 F 
HETATM   32  C   UNL     1       5.604  28.697  57.348  1.00  0.00     0.046 A 
HETATM   33  C   UNL     1       6.210  27.470  57.063  1.00  0.00     0.012 A 
ENDBRANCH  25  26
ENDBRANCH   8  25
TORSDOF 5
ENDMDL
MODEL 10
REMARK VINA RESULT:      -8.6      1.865      2.659
REMARK  5 active torsions:
REMARK  status: ('A' for Active; 'I' for Inactive)
REMARK    1  A    between atoms: C_2  and  C_3 
REMARK    2  A    between atoms: N_4  and  C_6 
REMARK    3  A    between atoms: C_6  and  C_7 
REMARK    4  A    between atoms: N_14  and  C_16 
REMARK    5  A    between atoms: C_16  and  C_17 
ROOT
HETATM    1  C   UNL     1       5.587  29.501  56.559  1.00  0.00    -0.032 A 
HETATM    2  C   UNL     1       5.072  28.467  55.746  1.00  0.00     0.020 A 
HETATM    3  C   UNL     1       4.366  28.747  54.556  1.00  0.00     0.002 A 
HETATM    4  C   UNL     1       4.173  30.084  54.202  1.00  0.00     0.076 A 
HETATM    5  O   UNL     1       3.449  30.423  53.095  1.00  0.00    -0.349 OA
HETATM    6  C   UNL     1       4.160  30.133  51.884  1.00  0.00     0.203 C 
HETATM    7  C   UNL     1       3.832  28.726  51.384  1.00  0.00     0.262 C 
HETATM    8  N   UNL     1       4.401  27.623  52.271  1.00  0.00    -0.061 N 
HETATM    9  H   UNL     1       4.045  26.755  51.850  1.00  0.00     0.280 HD
HETATM   10  C   UNL     1       3.827  27.650  53.675  1.00  0.00     0.276 C 
HETATM   11  C   UNL     1       4.665  31.117  54.992  1.00  0.00     0.038 A 
HETATM   12  C   UNL     1       5.391  30.828  56.147  1.00  0.00     0.011 A 
ENDROOT
BRANCH   1  13
HETATM   13  C   UNL     1       6.377  29.191  57.815  1.00  0.00     0.274 C 
BRANCH  13  14
HETATM   14  N   UNL     1       7.851  29.536  57.824  1.00  0.00    -0.053 N 
HETATM   15  C   UNL     1       8.214  30.960  58.310  1.00  0.00     0.279 C 
HETATM   16  C   UNL     1       9.722  31.307  58.180  1.00  0.00     0.248 C 
HETATM   17  N   UNL     1      10.472  30.584  57.291  1.00  0.00    -0.358 N 
HETATM   18  O   UNL     1      10.235  32.243  58.784  1.00  0.00    -0.271 OA
HETATM   19  C   UNL     1      10.069  29.317  56.721  1.00  0.00     0.150 C 
HETATM   20  H   UNL     1      11.458  30.844  57.273  1.00  0.00     0.162 HD
HETATM   21  C   UNL     1       8.557  29.231  56.507  1.00  0.00     0.256 C 
HETATM   22  H   UNL     1       8.284  28.898  58.504  1.00  0.00     0.281 HD
BRANCH  15  23
HETATM   23  C   UNL     1       7.745  31.193  59.759  1.00  0.00     0.038 C 
HETATM   24  C   UNL     1       6.691  32.284  59.922  1.00  0.00     0.007 C 
ENDBRANCH  15  23
ENDBRANCH  13  14
ENDBRANCH   1  13
BRANCH   8  25
HETATM   25  C   UNL     1       5.907  27.485  52.260  1.00  0.00     0.274 C 
BRANCH  25  26
HETATM   26  C   UNL     1       6.429  26.236  52.916  1.00  0.00    -0.029 A 
HETATM   27  C   UNL     1       7.131  26.301  54.130  1.00  0.00     0.054 A 
HETATM   28  C   UNL     1       7.618  25.135  54.720  1.00  0.00     0.155 A 
HETATM   29  F   UNL     1       8.283  25.225  55.878  1.00  0.00    -0.203 F 
HETATM   30  C   UNL     1       7.419  23.901  54.116  1.00  0.00     0.154 A 
HETATM   31  F   UNL     1       7.891  22.784  54.683  1.00  0.00    -0.203 F 
HETATM   32  C   UNL     1       6.729  23.817  52.913  1.00  0.00     0.046 A 
HETATM   33  C   UNL     1       6.235  24.979  52.312  1.00  0.00     0.012 A 
ENDBRANCH  25  26
ENDBRANCH   8  25
TORSDOF 5
ENDMDL
