MODEL 1
REMARK VINA RESULT:      -9.6      0.000      0.000
REMARK  2 active torsions:
REMARK  status: ('A' for Active; 'I' for Inactive)
REMARK    1  A    between atoms: C_2  and  C_3 
REMARK    2  A    between atoms: C_7  and  C_8 
REMARK       I    between atoms: C_8  and  N_9 
ROOT
HETATM    1  C   UNL     1       9.222  30.358  57.934  1.00  0.00     0.271 C 
HETATM    2  N   UNL     1       8.355  29.428  57.346  1.00  0.00    -0.347 N 
HETATM    3  C   UNL     1       7.609  28.442  58.121  1.00  0.00     0.128 C 
HETATM    4  C   UNL     1       6.283  28.125  57.443  1.00  0.00     0.055 C 
HETATM    5  C   UNL     1       6.485  27.640  55.992  1.00  0.00     0.100 C 
HETATM    6  N   UNL     1       7.137  26.295  56.030  1.00  0.00    -0.273 NA
HETATM    7  C   UNL     1       7.021  25.564  54.821  1.00  0.00     0.036 A 
HETATM    8  C   UNL     1       5.949  25.760  53.933  1.00  0.00     0.056 A 
HETATM    9  N   UNL     1       5.000  26.750  54.204  1.00  0.00    -0.324 N 
HETATM   10  C   UNL     1       5.105  27.599  55.276  1.00  0.00     0.245 C 
HETATM   11  O   UNL     1       4.167  28.345  55.559  1.00  0.00    -0.271 OA
HETATM   12  C   UNL     1       7.894  24.497  54.596  1.00  0.00     0.026 A 
HETATM   13  C   UNL     1       7.740  23.679  53.475  1.00  0.00     0.002 A 
HETATM   14  C   UNL     1       6.691  23.904  52.584  1.00  0.00     0.002 A 
HETATM   15  C   UNL     1       5.787  24.941  52.815  1.00  0.00     0.031 A 
HETATM   16  C   UNL     1       7.381  28.638  55.224  1.00  0.00     0.055 C 
HETATM   17  C   UNL     1       8.653  28.999  55.983  1.00  0.00     0.128 C 
HETATM   18  O   UNL     1      10.269  30.694  57.380  1.00  0.00    -0.266 OA
HETATM   19  H   UNL     1       6.693  25.713  56.745  1.00  0.00     0.129 HD
HETATM   20  H   UNL     1       4.146  26.802  53.665  1.00  0.00     0.169 HD
ENDROOT
BRANCH   1  21
HETATM   21  C   UNL     1       8.853  30.950  59.197  1.00  0.00     0.119 A 
HETATM   22  N   UNL     1       9.431  30.538  60.368  1.00  0.00    -0.273 N 
HETATM   23  N   UNL     1       8.970  31.165  61.463  1.00  0.00    -0.179 NA
HETATM   24  H   UNL     1      10.141  29.819  60.474  1.00  0.00     0.189 HD
HETATM   25  C   UNL     1       8.107  32.065  60.980  1.00  0.00     0.060 A 
HETATM   26  C   UNL     1       8.037  32.001  59.567  1.00  0.00     0.066 A 
BRANCH  25  27
HETATM   27  C   UNL     1       7.358  33.003  61.886  1.00  0.00     0.031 C 
HETATM   28  C   UNL     1       7.746  32.794  63.350  1.00  0.00     0.016 C 
HETATM   29  C   UNL     1       5.839  32.905  61.714  1.00  0.00     0.016 C 
ENDBRANCH  25  27
ENDBRANCH   1  21
TORSDOF 2
ENDMDL
MODEL 2
REMARK VINA RESULT:      -9.5      2.407      3.779
REMARK  2 active torsions:
REMARK  status: ('A' for Active; 'I' for Inactive)
REMARK    1  A    between atoms: C_2  and  C_3 
REMARK    2  A    between atoms: C_7  and  C_8 
REMARK       I    between atoms: C_8  and  N_9 
ROOT
HETATM    1  C   UNL     1       5.629  28.941  57.155  1.00  0.00     0.271 C 
HETATM    2  N   UNL     1       6.399  27.791  56.942  1.00  0.00    -0.347 N 
HETATM    3  C   UNL     1       7.806  27.841  56.557  1.00  0.00     0.128 C 
HETATM    4  C   UNL     1       8.552  26.637  57.112  1.00  0.00     0.055 C 
HETATM    5  C   UNL     1       7.910  25.308  56.661  1.00  0.00     0.100 C 
HETATM    6  N   UNL     1       8.131  25.152  55.189  1.00  0.00    -0.273 NA
HETATM    7  C   UNL     1       7.957  23.827  54.719  1.00  0.00     0.036 A 
HETATM    8  C   UNL     1       8.165  22.709  55.545  1.00  0.00     0.056 A 
HETATM    9  N   UNL     1       8.486  22.898  56.892  1.00  0.00    -0.324 N 
HETATM   10  C   UNL     1       8.540  24.140  57.471  1.00  0.00     0.245 C 
HETATM   11  O   UNL     1       8.979  24.263  58.615  1.00  0.00    -0.271 OA
HETATM   12  C   UNL     1       7.751  23.623  53.351  1.00  0.00     0.026 A 
HETATM   13  C   UNL     1       7.691  22.330  52.829  1.00  0.00     0.002 A 
HETATM   14  C   UNL     1       7.868  21.228  53.666  1.00  0.00     0.002 A 
HETATM   15  C   UNL     1       8.113  21.415  55.026  1.00  0.00     0.031 A 
HETATM   16  C   UNL     1       6.395  25.326  56.966  1.00  0.00     0.055 C 
HETATM   17  C   UNL     1       5.706  26.594  56.474  1.00  0.00     0.128 C 
HETATM   18  O   UNL     1       4.442  28.985  56.829  1.00  0.00    -0.266 OA
HETATM   19  H   UNL     1       9.095  25.402  54.955  1.00  0.00     0.129 HD
HETATM   20  H   UNL     1       8.789  22.118  57.461  1.00  0.00     0.169 HD
ENDROOT
BRANCH   1  21
HETATM   21  C   UNL     1       6.241  30.078  57.799  1.00  0.00     0.119 A 
HETATM   22  N   UNL     1       5.711  31.335  57.672  1.00  0.00    -0.273 N 
HETATM   23  N   UNL     1       6.402  32.294  58.309  1.00  0.00    -0.179 NA
HETATM   24  H   UNL     1       4.879  31.592  57.148  1.00  0.00     0.189 HD
HETATM   25  C   UNL     1       7.383  31.628  58.927  1.00  0.00     0.060 A 
HETATM   26  C   UNL     1       7.295  30.237  58.678  1.00  0.00     0.066 A 
BRANCH  25  27
HETATM   27  C   UNL     1       8.401  32.336  59.777  1.00  0.00     0.031 C 
HETATM   28  C   UNL     1       9.825  31.932  59.395  1.00  0.00     0.016 C 
HETATM   29  C   UNL     1       8.169  32.127  61.276  1.00  0.00     0.016 C 
ENDBRANCH  25  27
ENDBRANCH   1  21
TORSDOF 2
ENDMDL
MODEL 3
REMARK VINA RESULT:      -9.2      2.788      8.428
REMARK  2 active torsions:
REMARK  status: ('A' for Active; 'I' for Inactive)
REMARK    1  A    between atoms: C_2  and  C_3 
REMARK    2  A    between atoms: C_7  and  C_8 
REMARK       I    between atoms: C_8  and  N_9 
ROOT
HETATM    1  C   UNL     1       7.277  25.841  53.833  1.00  0.00     0.271 C 
HETATM    2  N   UNL     1       7.002  26.730  54.879  1.00  0.00    -0.347 N 
HETATM    3  C   UNL     1       6.253  26.342  56.070  1.00  0.00     0.128 C 
HETATM    4  C   UNL     1       6.725  27.139  57.278  1.00  0.00     0.055 C 
HETATM    5  C   UNL     1       6.618  28.659  57.037  1.00  0.00     0.100 C 
HETATM    6  N   UNL     1       5.170  29.028  56.976  1.00  0.00    -0.273 NA
HETATM    7  C   UNL     1       4.919  30.410  57.160  1.00  0.00     0.036 A 
HETATM    8  C   UNL     1       5.784  31.232  57.903  1.00  0.00     0.056 A 
HETATM    9  N   UNL     1       6.966  30.697  58.423  1.00  0.00    -0.324 N 
HETATM   10  C   UNL     1       7.362  29.406  58.180  1.00  0.00     0.245 C 
HETATM   11  O   UNL     1       8.325  28.937  58.788  1.00  0.00    -0.271 OA
HETATM   12  C   UNL     1       3.690  30.930  56.746  1.00  0.00     0.026 A 
HETATM   13  C   UNL     1       3.356  32.259  57.013  1.00  0.00     0.002 A 
HETATM   14  C   UNL     1       4.237  33.073  57.724  1.00  0.00     0.002 A 
HETATM   15  C   UNL     1       5.452  32.558  58.178  1.00  0.00     0.031 A 
HETATM   16  C   UNL     1       7.312  29.031  55.707  1.00  0.00     0.055 C 
HETATM   17  C   UNL     1       6.878  28.146  54.544  1.00  0.00     0.128 C 
HETATM   18  O   UNL     1       7.277  26.215  52.660  1.00  0.00    -0.266 OA
HETATM   19  H   UNL     1       4.659  28.555  57.727  1.00  0.00     0.129 HD
HETATM   20  H   UNL     1       7.520  31.225  59.085  1.00  0.00     0.169 HD
ENDROOT
BRANCH   1  21
HETATM   21  C   UNL     1       7.599  24.471  54.151  1.00  0.00     0.119 A 
HETATM   22  N   UNL     1       8.385  24.159  55.229  1.00  0.00    -0.273 N 
HETATM   23  N   UNL     1       8.615  22.845  55.384  1.00  0.00    -0.179 NA
HETATM   24  H   UNL     1       8.800  24.814  55.886  1.00  0.00     0.189 HD
HETATM   25  C   UNL     1       7.899  22.274  54.409  1.00  0.00     0.060 A 
HETATM   26  C   UNL     1       7.210  23.246  53.644  1.00  0.00     0.066 A 
BRANCH  25  27
HETATM   27  C   UNL     1       7.867  20.783  54.226  1.00  0.00     0.031 C 
HETATM   28  C   UNL     1       8.652  20.068  55.326  1.00  0.00     0.016 C 
HETATM   29  C   UNL     1       8.363  20.346  52.844  1.00  0.00     0.016 C 
ENDBRANCH  25  27
ENDBRANCH   1  21
TORSDOF 2
ENDMDL
MODEL 4
REMARK VINA RESULT:      -9.0      5.894      7.974
REMARK  2 active torsions:
REMARK  status: ('A' for Active; 'I' for Inactive)
REMARK    1  A    between atoms: C_2  and  C_3 
REMARK    2  A    between atoms: C_7  and  C_8 
REMARK       I    between atoms: C_8  and  N_9 
ROOT
HETATM    1  C   UNL     1       5.093  26.490  50.773  1.00  0.00     0.271 C 
HETATM    2  N   UNL     1       5.831  25.925  51.821  1.00  0.00    -0.347 N 
HETATM    3  C   UNL     1       7.247  26.205  52.033  1.00  0.00     0.128 C 
HETATM    4  C   UNL     1       7.588  26.138  53.514  1.00  0.00     0.055 C 
HETATM    5  C   UNL     1       7.203  24.776  54.129  1.00  0.00     0.100 C 
HETATM    6  N   UNL     1       8.108  23.729  53.561  1.00  0.00    -0.273 NA
HETATM    7  C   UNL     1       8.142  22.528  54.312  1.00  0.00     0.036 A 
HETATM    8  C   UNL     1       7.883  22.506  55.693  1.00  0.00     0.056 A 
HETATM    9  N   UNL     1       7.512  23.685  56.345  1.00  0.00    -0.324 N 
HETATM   10  C   UNL     1       7.318  24.868  55.676  1.00  0.00     0.245 C 
HETATM   11  O   UNL     1       7.148  25.908  56.312  1.00  0.00    -0.271 OA
HETATM   12  C   UNL     1       8.622  21.367  53.699  1.00  0.00     0.026 A 
HETATM   13  C   UNL     1       8.782  20.192  54.435  1.00  0.00     0.002 A 
HETATM   14  C   UNL     1       8.491  20.175  55.799  1.00  0.00     0.002 A 
HETATM   15  C   UNL     1       8.048  21.335  56.434  1.00  0.00     0.031 A 
HETATM   16  C   UNL     1       5.733  24.442  53.788  1.00  0.00     0.055 C 
HETATM   17  C   UNL     1       5.414  24.613  52.306  1.00  0.00     0.128 C 
HETATM   18  O   UNL     1       4.219  25.850  50.190  1.00  0.00    -0.266 OA
HETATM   19  H   UNL     1       9.072  24.072  53.549  1.00  0.00     0.129 HD
HETATM   20  H   UNL     1       7.473  23.723  57.354  1.00  0.00     0.169 HD
ENDROOT
BRANCH   1  21
HETATM   21  C   UNL     1       5.351  27.860  50.401  1.00  0.00     0.119 A 
HETATM   22  N   UNL     1       5.719  28.190  49.124  1.00  0.00    -0.273 N 
HETATM   23  N   UNL     1       5.947  29.501  48.935  1.00  0.00    -0.179 NA
HETATM   24  H   UNL     1       5.840  27.551  48.343  1.00  0.00     0.189 HD
HETATM   25  C   UNL     1       5.653  30.053  50.117  1.00  0.00     0.060 A 
HETATM   26  C   UNL     1       5.230  29.074  51.049  1.00  0.00     0.066 A 
BRANCH  25  27
HETATM   27  C   UNL     1       5.765  31.535  50.343  1.00  0.00     0.031 C 
HETATM   28  C   UNL     1       4.485  32.105  50.953  1.00  0.00     0.016 C 
HETATM   29  C   UNL     1       6.140  32.301  49.070  1.00  0.00     0.016 C 
ENDBRANCH  25  27
ENDBRANCH   1  21
TORSDOF 2
ENDMDL
MODEL 5
REMARK VINA RESULT:      -8.7      2.524      3.512
REMARK  2 active torsions:
REMARK  status: ('A' for Active; 'I' for Inactive)
REMARK    1  A    between atoms: C_2  and  C_3 
REMARK    2  A    between atoms: C_7  and  C_8 
REMARK       I    between atoms: C_8  and  N_9 
ROOT
HETATM    1  C   UNL     1       4.252  30.105  57.113  1.00  0.00     0.271 C 
HETATM    2  N   UNL     1       5.195  29.106  56.839  1.00  0.00    -0.347 N 
HETATM    3  C   UNL     1       6.615  29.389  56.655  1.00  0.00     0.128 C 
HETATM    4  C   UNL     1       7.457  28.211  57.124  1.00  0.00     0.055 C 
HETATM    5  C   UNL     1       7.063  26.904  56.405  1.00  0.00     0.100 C 
HETATM    6  N   UNL     1       7.467  27.014  54.969  1.00  0.00    -0.273 NA
HETATM    7  C   UNL     1       7.535  25.771  54.293  1.00  0.00     0.036 A 
HETATM    8  C   UNL     1       7.804  24.569  54.969  1.00  0.00     0.056 A 
HETATM    9  N   UNL     1       7.943  24.576  56.360  1.00  0.00    -0.324 N 
HETATM   10  C   UNL     1       7.757  25.707  57.114  1.00  0.00     0.245 C 
HETATM   11  O   UNL     1       8.044  25.697  58.312  1.00  0.00    -0.271 OA
HETATM   12  C   UNL     1       7.514  25.765  52.895  1.00  0.00     0.026 A 
HETATM   13  C   UNL     1       7.696  24.575  52.189  1.00  0.00     0.002 A 
HETATM   14  C   UNL     1       7.931  23.384  52.873  1.00  0.00     0.002 A 
HETATM   15  C   UNL     1       7.994  23.379  54.267  1.00  0.00     0.031 A 
HETATM   16  C   UNL     1       5.536  26.688  56.507  1.00  0.00     0.055 C 
HETATM   17  C   UNL     1       4.734  27.925  56.117  1.00  0.00     0.128 C 
HETATM   18  O   UNL     1       3.115  30.055  56.643  1.00  0.00    -0.266 OA
HETATM   19  H   UNL     1       8.406  27.414  54.902  1.00  0.00     0.129 HD
HETATM   20  H   UNL     1       8.288  23.758  56.845  1.00  0.00     0.169 HD
ENDROOT
BRANCH   1  21
HETATM   21  C   UNL     1       4.622  31.190  57.990  1.00  0.00     0.119 A 
HETATM   22  N   UNL     1       5.438  32.202  57.559  1.00  0.00    -0.273 N 
HETATM   23  N   UNL     1       5.712  33.127  58.493  1.00  0.00    -0.179 NA
HETATM   24  H   UNL     1       5.845  32.300  56.633  1.00  0.00     0.189 HD
HETATM   25  C   UNL     1       4.995  32.738  59.553  1.00  0.00     0.060 A 
HETATM   26  C   UNL     1       4.261  31.560  59.270  1.00  0.00     0.066 A 
BRANCH  25  27
HETATM   27  C   UNL     1       5.006  33.515  60.839  1.00  0.00     0.031 C 
HETATM   28  C   UNL     1       6.339  33.363  61.573  1.00  0.00     0.016 C 
HETATM   29  C   UNL     1       3.841  33.147  61.763  1.00  0.00     0.016 C 
ENDBRANCH  25  27
ENDBRANCH   1  21
TORSDOF 2
ENDMDL
MODEL 6
REMARK VINA RESULT:      -8.6      2.071      2.389
REMARK  2 active torsions:
REMARK  status: ('A' for Active; 'I' for Inactive)
REMARK    1  A    between atoms: C_2  and  C_3 
REMARK    2  A    between atoms: C_7  and  C_8 
REMARK       I    between atoms: C_8  and  N_9 
ROOT
HETATM    1  C   UNL     1       6.056  31.429  57.601  1.00  0.00     0.271 C 
HETATM    2  N   UNL     1       6.113  30.093  57.185  1.00  0.00    -0.347 N 
HETATM    3  C   UNL     1       7.197  29.192  57.562  1.00  0.00     0.128 C 
HETATM    4  C   UNL     1       6.690  27.761  57.662  1.00  0.00     0.055 C 
HETATM    5  C   UNL     1       6.026  27.297  56.348  1.00  0.00     0.100 C 
HETATM    6  N   UNL     1       7.087  27.171  55.301  1.00  0.00    -0.273 NA
HETATM    7  C   UNL     1       6.704  26.387  54.185  1.00  0.00     0.036 A 
HETATM    8  C   UNL     1       5.745  25.365  54.286  1.00  0.00     0.056 A 
HETATM    9  N   UNL     1       5.091  25.150  55.503  1.00  0.00    -0.324 N 
HETATM   10  C   UNL     1       5.294  25.948  56.601  1.00  0.00     0.245 C 
HETATM   11  O   UNL     1       4.817  25.624  57.689  1.00  0.00    -0.271 OA
HETATM   12  C   UNL     1       7.429  26.513  52.997  1.00  0.00     0.026 A 
HETATM   13  C   UNL     1       7.161  25.677  51.911  1.00  0.00     0.002 A 
HETATM   14  C   UNL     1       6.184  24.687  52.015  1.00  0.00     0.002 A 
HETATM   15  C   UNL     1       5.478  24.523  53.207  1.00  0.00     0.031 A 
HETATM   16  C   UNL     1       4.966  28.328  55.902  1.00  0.00     0.055 C 
HETATM   17  C   UNL     1       5.491  29.760  55.907  1.00  0.00     0.128 C 
HETATM   18  O   UNL     1       5.626  32.312  56.859  1.00  0.00    -0.266 OA
HETATM   19  H   UNL     1       7.909  26.705  55.694  1.00  0.00     0.129 HD
HETATM   20  H   UNL     1       4.517  24.329  55.639  1.00  0.00     0.169 HD
ENDROOT
BRANCH   1  21
HETATM   21  C   UNL     1       6.483  31.760  58.939  1.00  0.00     0.119 A 
HETATM   22  N   UNL     1       5.578  31.895  59.958  1.00  0.00    -0.273 N 
HETATM   23  N   UNL     1       6.123  32.226  61.141  1.00  0.00    -0.179 NA
HETATM   24  H   UNL     1       4.571  31.782  59.894  1.00  0.00     0.189 HD
HETATM   25  C   UNL     1       7.438  32.244  60.897  1.00  0.00     0.060 A 
HETATM   26  C   UNL     1       7.713  31.911  59.549  1.00  0.00     0.066 A 
BRANCH  25  27
HETATM   27  C   UNL     1       8.434  32.566  61.976  1.00  0.00     0.031 C 
HETATM   28  C   UNL     1       9.738  31.793  61.781  1.00  0.00     0.016 C 
HETATM   29  C   UNL     1       7.878  32.334  63.384  1.00  0.00     0.016 C 
ENDBRANCH  25  27
ENDBRANCH   1  21
TORSDOF 2
ENDMDL
MODEL 7
REMARK VINA RESULT:      -8.3      5.734      8.426
REMARK  2 active torsions:
REMARK  status: ('A' for Active; 'I' for Inactive)
REMARK    1  A    between atoms: C_2  and  C_3 
REMARK    2  A    between atoms: C_7  and  C_8 
REMARK       I    between atoms: C_8  and  N_9 
ROOT
HETATM    1  C   UNL     1       6.200  25.720  54.965  1.00  0.00     0.271 C 
HETATM    2  N   UNL     1       5.929  26.217  53.684  1.00  0.00    -0.347 N 
HETATM    3  C   UNL     1       6.899  26.167  52.594  1.00  0.00     0.128 C 
HETATM    4  C   UNL     1       6.189  26.034  51.255  1.00  0.00     0.055 C 
HETATM    5  C   UNL     1       5.174  27.175  51.030  1.00  0.00     0.100 C 
HETATM    6  N   UNL     1       5.931  28.452  50.848  1.00  0.00    -0.273 NA
HETATM    7  C   UNL     1       5.176  29.488  50.246  1.00  0.00     0.036 A 
HETATM    8  C   UNL     1       4.103  29.221  49.379  1.00  0.00     0.056 A 
HETATM    9  N   UNL     1       3.715  27.898  49.147  1.00  0.00    -0.324 N 
HETATM   10  C   UNL     1       4.297  26.835  49.792  1.00  0.00     0.245 C 
HETATM   11  O   UNL     1       4.031  25.686  49.439  1.00  0.00    -0.271 OA
HETATM   12  C   UNL     1       5.623  30.806  50.376  1.00  0.00     0.026 A 
HETATM   13  C   UNL     1       4.975  31.843  49.703  1.00  0.00     0.002 A 
HETATM   14  C   UNL     1       3.892  31.568  48.869  1.00  0.00     0.002 A 
HETATM   15  C   UNL     1       3.457  30.253  48.698  1.00  0.00     0.031 A 
HETATM   16  C   UNL     1       4.234  27.290  52.252  1.00  0.00     0.055 C 
HETATM   17  C   UNL     1       4.986  27.326  53.578  1.00  0.00     0.128 C 
HETATM   18  O   UNL     1       5.771  26.283  55.972  1.00  0.00    -0.266 OA
HETATM   19  H   UNL     1       6.728  28.297  50.225  1.00  0.00     0.129 HD
HETATM   20  H   UNL     1       3.055  27.678  48.414  1.00  0.00     0.169 HD
ENDROOT
BRANCH   1  21
HETATM   21  C   UNL     1       6.970  24.506  55.091  1.00  0.00     0.119 A 
HETATM   22  N   UNL     1       7.753  24.275  56.191  1.00  0.00    -0.273 N 
HETATM   23  N   UNL     1       8.427  23.114  56.156  1.00  0.00    -0.179 NA
HETATM   24  H   UNL     1       7.869  24.889  56.992  1.00  0.00     0.189 HD
HETATM   25  C   UNL     1       8.019  22.537  55.021  1.00  0.00     0.060 A 
HETATM   26  C   UNL     1       7.073  23.347  54.347  1.00  0.00     0.066 A 
BRANCH  25  27
HETATM   27  C   UNL     1       8.531  21.191  54.593  1.00  0.00     0.031 C 
HETATM   28  C   UNL     1       7.946  20.773  53.244  1.00  0.00     0.016 C 
HETATM   29  C   UNL     1       8.286  20.103  55.643  1.00  0.00     0.016 C 
ENDBRANCH  25  27
ENDBRANCH   1  21
TORSDOF 2
ENDMDL
MODEL 8
REMARK VINA RESULT:      -8.2      4.174      5.416
REMARK  2 active torsions:
REMARK  status: ('A' for Active; 'I' for Inactive)
REMARK    1  A    between atoms: C_2  and  C_3 
REMARK    2  A    between atoms: C_7  and  C_8 
REMARK       I    between atoms: C_8  and  N_9 
ROOT
HETATM    1  C   UNL     1       4.293  28.497  54.121  1.00  0.00     0.271 C 
HETATM    2  N   UNL     1       5.265  27.622  54.622  1.00  0.00    -0.347 N 
HETATM    3  C   UNL     1       6.688  27.944  54.636  1.00  0.00     0.128 C 
HETATM    4  C   UNL     1       7.374  27.278  55.820  1.00  0.00     0.055 C 
HETATM    5  C   UNL     1       7.161  25.750  55.818  1.00  0.00     0.100 C 
HETATM    6  N   UNL     1       7.915  25.169  54.664  1.00  0.00    -0.273 NA
HETATM    7  C   UNL     1       8.139  23.774  54.766  1.00  0.00     0.036 A 
HETATM    8  C   UNL     1       8.217  23.121  56.008  1.00  0.00     0.056 A 
HETATM    9  N   UNL     1       8.001  23.846  57.184  1.00  0.00    -0.324 N 
HETATM   10  C   UNL     1       7.641  25.170  57.178  1.00  0.00     0.245 C 
HETATM   11  O   UNL     1       7.617  25.801  58.235  1.00  0.00    -0.271 OA
HETATM   12  C   UNL     1       8.471  23.062  53.610  1.00  0.00     0.026 A 
HETATM   13  C   UNL     1       8.813  21.710  53.685  1.00  0.00     0.002 A 
HETATM   14  C   UNL     1       8.857  21.066  54.921  1.00  0.00     0.002 A 
HETATM   15  C   UNL     1       8.567  21.773  56.088  1.00  0.00     0.031 A 
HETATM   16  C   UNL     1       5.655  25.429  55.678  1.00  0.00     0.055 C 
HETATM   17  C   UNL     1       4.990  26.190  54.537  1.00  0.00     0.128 C 
HETATM   18  O   UNL     1       3.311  28.078  53.509  1.00  0.00    -0.266 OA
HETATM   19  H   UNL     1       8.844  25.593  54.608  1.00  0.00     0.129 HD
HETATM   20  H   UNL     1       8.204  23.434  58.085  1.00  0.00     0.169 HD
ENDROOT
BRANCH   1  21
HETATM   21  C   UNL     1       4.441  29.912  54.364  1.00  0.00     0.119 A 
HETATM   22  N   UNL     1       4.405  30.814  53.334  1.00  0.00    -0.273 N 
HETATM   23  N   UNL     1       4.578  32.092  53.712  1.00  0.00    -0.179 NA
HETATM   24  H   UNL     1       4.274  30.605  52.348  1.00  0.00     0.189 HD
HETATM   25  C   UNL     1       4.666  32.025  55.044  1.00  0.00     0.060 A 
HETATM   26  C   UNL     1       4.537  30.691  55.500  1.00  0.00     0.066 A 
BRANCH  25  27
HETATM   27  C   UNL     1       4.859  33.257  55.883  1.00  0.00     0.031 C 
HETATM   28  C   UNL     1       3.790  33.367  56.970  1.00  0.00     0.016 C 
HETATM   29  C   UNL     1       4.908  34.540  55.048  1.00  0.00     0.016 C 
ENDBRANCH  25  27
ENDBRANCH   1  21
TORSDOF 2
ENDMDL
MODEL 9
REMARK VINA RESULT:      -8.2      3.005      4.672
REMARK  2 active torsions:
REMARK  status: ('A' for Active; 'I' for Inactive)
REMARK    1  A    between atoms: C_2  and  C_3 
REMARK    2  A    between atoms: C_7  and  C_8 
REMARK       I    between atoms: C_8  and  N_9 
ROOT
HETATM    1  C   UNL     1       5.402  29.748  55.943  1.00  0.00     0.271 C 
HETATM    2  N   UNL     1       5.487  28.908  54.827  1.00  0.00    -0.347 N 
HETATM    3  C   UNL     1       6.753  28.577  54.180  1.00  0.00     0.128 C 
HETATM    4  C   UNL     1       6.694  27.181  53.577  1.00  0.00     0.055 C 
HETATM    5  C   UNL     1       5.521  27.035  52.586  1.00  0.00     0.100 C 
HETATM    6  N   UNL     1       5.811  27.873  51.382  1.00  0.00    -0.273 NA
HETATM    7  C   UNL     1       5.038  27.534  50.244  1.00  0.00     0.036 A 
HETATM    8  C   UNL     1       4.534  26.238  50.046  1.00  0.00     0.056 A 
HETATM    9  N   UNL     1       4.735  25.261  51.026  1.00  0.00    -0.324 N 
HETATM   10  C   UNL     1       5.350  25.533  52.222  1.00  0.00     0.245 C 
HETATM   11  O   UNL     1       5.643  24.609  52.982  1.00  0.00    -0.271 OA
HETATM   12  C   UNL     1       4.929  28.464  49.207  1.00  0.00     0.026 A 
HETATM   13  C   UNL     1       4.276  28.127  48.020  1.00  0.00     0.002 A 
HETATM   14  C   UNL     1       3.752  26.847  47.848  1.00  0.00     0.002 A 
HETATM   15  C   UNL     1       3.887  25.894  48.858  1.00  0.00     0.031 A 
HETATM   16  C   UNL     1       4.208  27.507  53.253  1.00  0.00     0.055 C 
HETATM   17  C   UNL     1       4.341  28.869  53.924  1.00  0.00     0.128 C 
HETATM   18  O   UNL     1       4.461  30.528  56.085  1.00  0.00    -0.266 OA
HETATM   19  H   UNL     1       6.786  27.748  51.099  1.00  0.00     0.129 HD
HETATM   20  H   UNL     1       4.518  24.292  50.836  1.00  0.00     0.169 HD
ENDROOT
BRANCH   1  21
HETATM   21  C   UNL     1       6.428  29.666  56.955  1.00  0.00     0.119 A 
HETATM   22  N   UNL     1       6.906  28.456  57.383  1.00  0.00    -0.273 N 
HETATM   23  N   UNL     1       7.840  28.539  58.344  1.00  0.00    -0.179 NA
HETATM   24  H   UNL     1       6.615  27.539  57.055  1.00  0.00     0.189 HD
HETATM   25  C   UNL     1       8.025  29.854  58.503  1.00  0.00     0.060 A 
HETATM   26  C   UNL     1       7.200  30.597  57.623  1.00  0.00     0.066 A 
BRANCH  25  27
HETATM   27  C   UNL     1       9.014  30.396  59.496  1.00  0.00     0.031 C 
HETATM   28  C   UNL     1       8.326  30.823  60.793  1.00  0.00     0.016 C 
HETATM   29  C   UNL     1       9.852  31.546  58.930  1.00  0.00     0.016 C 
ENDBRANCH  25  27
ENDBRANCH   1  21
TORSDOF 2
ENDMDL
MODEL 10
REMARK VINA RESULT:      -8.1      4.496      7.032
REMARK  2 active torsions:
REMARK  status: ('A' for Active; 'I' for Inactive)
REMARK    1  A    between atoms: C_2  and  C_3 
REMARK    2  A    between atoms: C_7  and  C_8 
REMARK       I    between atoms: C_8  and  N_9 
ROOT
HETATM    1  C   UNL     1       5.989  25.763  53.715  1.00  0.00     0.271 C 
HETATM    2  N   UNL     1       5.513  26.679  52.769  1.00  0.00    -0.347 N 
HETATM    3  C   UNL     1       4.773  27.882  53.135  1.00  0.00     0.128 C 
HETATM    4  C   UNL     1       5.040  28.997  52.134  1.00  0.00     0.055 C 
HETATM    5  C   UNL     1       4.699  28.564  50.692  1.00  0.00     0.100 C 
HETATM    6  N   UNL     1       3.215  28.406  50.585  1.00  0.00    -0.273 NA
HETATM    7  C   UNL     1       2.731  28.406  49.253  1.00  0.00     0.036 A 
HETATM    8  C   UNL     1       3.407  29.069  48.215  1.00  0.00     0.056 A 
HETATM    9  N   UNL     1       4.630  29.695  48.476  1.00  0.00    -0.324 N 
HETATM   10  C   UNL     1       5.245  29.630  49.701  1.00  0.00     0.245 C 
HETATM   11  O   UNL     1       6.236  30.325  49.925  1.00  0.00    -0.271 OA
HETATM   12  C   UNL     1       1.458  27.887  49.002  1.00  0.00     0.026 A 
HETATM   13  C   UNL     1       0.897  27.973  47.727  1.00  0.00     0.002 A 
HETATM   14  C   UNL     1       1.591  28.606  46.698  1.00  0.00     0.002 A 
HETATM   15  C   UNL     1       2.846  29.165  46.941  1.00  0.00     0.031 A 
HETATM   16  C   UNL     1       5.395  27.223  50.368  1.00  0.00     0.055 C 
HETATM   17  C   UNL     1       5.178  26.165  51.445  1.00  0.00     0.128 C 
HETATM   18  O   UNL     1       5.993  24.553  53.488  1.00  0.00    -0.266 OA
HETATM   19  H   UNL     1       2.748  29.191  51.046  1.00  0.00     0.129 HD
HETATM   20  H   UNL     1       5.051  30.304  47.788  1.00  0.00     0.169 HD
ENDROOT
BRANCH   1  21
HETATM   21  C   UNL     1       6.513  26.262  54.964  1.00  0.00     0.119 A 
HETATM   22  N   UNL     1       6.292  25.597  56.141  1.00  0.00    -0.273 N 
HETATM   23  N   UNL     1       6.822  26.194  57.222  1.00  0.00    -0.179 NA
HETATM   24  H   UNL     1       5.773  24.732  56.261  1.00  0.00     0.189 HD
HETATM   25  C   UNL     1       7.467  27.254  56.721  1.00  0.00     0.060 A 
HETATM   26  C   UNL     1       7.342  27.311  55.312  1.00  0.00     0.066 A 
BRANCH  25  27
HETATM   27  C   UNL     1       8.220  28.207  57.606  1.00  0.00     0.031 C 
HETATM   28  C   UNL     1       7.335  29.369  58.058  1.00  0.00     0.016 C 
HETATM   29  C   UNL     1       9.502  28.732  56.954  1.00  0.00     0.016 C 
ENDBRANCH  25  27
ENDBRANCH   1  21
TORSDOF 2
ENDMDL
