MODEL 1
REMARK VINA RESULT:      -9.1      0.000      0.000
REMARK  5 active torsions:
REMARK  status: ('A' for Active; 'I' for Inactive)
REMARK    1  A    between atoms: C_4  and  O_5 
REMARK    2  A    between atoms: O_5  and  C_6 
REMARK    3  A    between atoms: C_6  and  C_7 
REMARK       I    between atoms: C_7  and  N_8 
REMARK    4  A    between atoms: N_8  and  C_9 
REMARK    5  A    between atoms: C_15  and  C_16 
ROOT
HETATM    1  C   UNL     1       6.960  25.445  56.805  1.00  0.00     0.137 A 
HETATM    2  N   UNL     1       7.712  24.799  57.753  1.00  0.00    -0.262 N 
HETATM    3  H   UNL     1       7.697  24.933  58.760  1.00  0.00     0.191 HD
HETATM    4  N   UNL     1       8.517  23.846  57.256  1.00  0.00    -0.177 NA
HETATM    5  C   UNL     1       8.246  23.843  55.945  1.00  0.00     0.065 A 
HETATM    6  C   UNL     1       8.971  22.916  55.040  1.00  0.00     0.073 C 
HETATM    7  C   UNL     1       7.253  24.808  55.611  1.00  0.00     0.046 A 
ENDROOT
BRANCH   1   8
HETATM    8  N   UNL     1       6.048  26.454  57.047  1.00  0.00    -0.309 N 
HETATM    9  C   UNL     1       6.249  27.808  57.086  1.00  0.00     0.247 C 
HETATM   10  O   UNL     1       5.307  28.534  57.419  1.00  0.00    -0.271 OA
HETATM   11  H   UNL     1       5.077  26.182  57.175  1.00  0.00     0.170 HD
BRANCH   9  12
HETATM   12  C   UNL     1       7.571  28.411  56.627  1.00  0.00     0.278 C 
BRANCH  12  13
HETATM   13  O   UNL     1       8.563  28.346  57.649  1.00  0.00    -0.342 OA
BRANCH  13  14
HETATM   14  C   UNL     1       8.861  29.569  58.196  1.00  0.00     0.075 A 
HETATM   15  C   UNL     1       8.062  30.152  59.186  1.00  0.00     0.044 A 
HETATM   16  C   UNL     1       8.384  31.410  59.712  1.00  0.00    -0.059 A 
HETATM   17  C   UNL     1       7.527  32.037  60.771  1.00  0.00     0.048 C 
HETATM   18  C   UNL     1       9.550  32.047  59.277  1.00  0.00     0.007 A 
HETATM   19  C   UNL     1      10.372  31.446  58.321  1.00  0.00     0.010 A 
HETATM   20  C   UNL     1      10.037  30.202  57.769  1.00  0.00    -0.029 A 
HETATM   21  C   UNL     1      10.943  29.560  56.758  1.00  0.00     0.051 C 
ENDBRANCH  13  14
ENDBRANCH  12  13
ENDBRANCH   9  12
ENDBRANCH   1   8
BRANCH   7  22
HETATM   22  C   UNL     1       6.692  25.161  54.318  1.00  0.00    -0.020 A 
HETATM   23  C   UNL     1       5.420  24.705  53.953  1.00  0.00     0.014 A 
HETATM   24  C   UNL     1       4.883  25.037  52.706  1.00  0.00     0.020 A 
HETATM   25  C   UNL     1       5.616  25.828  51.823  1.00  0.00     0.011 A 
HETATM   26 BR   UNL     1       4.888  26.281  50.139  1.00  0.00    -0.051 Br
HETATM   27  C   UNL     1       6.885  26.287  52.172  1.00  0.00     0.020 A 
HETATM   28  C   UNL     1       7.422  25.949  53.417  1.00  0.00     0.014 A 
ENDBRANCH   7  22
TORSDOF 5
ENDMDL
MODEL 2
REMARK VINA RESULT:      -8.8      3.486      7.837
REMARK  5 active torsions:
REMARK  status: ('A' for Active; 'I' for Inactive)
REMARK    1  A    between atoms: C_4  and  O_5 
REMARK    2  A    between atoms: O_5  and  C_6 
REMARK    3  A    between atoms: C_6  and  C_7 
REMARK       I    between atoms: C_7  and  N_8 
REMARK    4  A    between atoms: N_8  and  C_9 
REMARK    5  A    between atoms: C_15  and  C_16 
ROOT
HETATM    1  C   UNL     1       4.713  28.404  56.202  1.00  0.00     0.137 A 
HETATM    2  N   UNL     1       3.849  28.464  55.138  1.00  0.00    -0.262 N 
HETATM    3  H   UNL     1       3.251  27.726  54.777  1.00  0.00     0.191 HD
HETATM    4  N   UNL     1       3.775  29.674  54.561  1.00  0.00    -0.177 NA
HETATM    5  C   UNL     1       4.586  30.438  55.304  1.00  0.00     0.065 A 
HETATM    6  C   UNL     1       4.784  31.867  54.955  1.00  0.00     0.073 C 
HETATM    7  C   UNL     1       5.179  29.698  56.366  1.00  0.00     0.046 A 
ENDROOT
BRANCH   1   8
HETATM    8  N   UNL     1       4.967  27.287  56.975  1.00  0.00    -0.309 N 
HETATM    9  C   UNL     1       5.375  26.040  56.582  1.00  0.00     0.247 C 
HETATM   10  O   UNL     1       5.450  25.149  57.433  1.00  0.00    -0.271 OA
HETATM   11  H   UNL     1       4.889  27.392  57.982  1.00  0.00     0.170 HD
BRANCH   9  12
HETATM   12  C   UNL     1       5.826  25.786  55.148  1.00  0.00     0.278 C 
BRANCH  12  13
HETATM   13  O   UNL     1       7.220  25.497  55.079  1.00  0.00    -0.342 OA
BRANCH  13  14
HETATM   14  C   UNL     1       7.491  24.225  54.639  1.00  0.00     0.075 A 
HETATM   15  C   UNL     1       7.433  23.118  55.494  1.00  0.00     0.044 A 
HETATM   16  C   UNL     1       7.731  21.834  55.019  1.00  0.00    -0.059 A 
HETATM   17  C   UNL     1       7.672  20.649  55.936  1.00  0.00     0.048 C 
HETATM   18  C   UNL     1       8.029  21.667  53.663  1.00  0.00     0.007 A 
HETATM   19  C   UNL     1       8.043  22.765  52.800  1.00  0.00     0.010 A 
HETATM   20  C   UNL     1       7.776  24.055  53.277  1.00  0.00    -0.029 A 
HETATM   21  C   UNL     1       7.775  25.221  52.331  1.00  0.00     0.051 C 
ENDBRANCH  13  14
ENDBRANCH  12  13
ENDBRANCH   9  12
ENDBRANCH   1   8
BRANCH   7  22
HETATM   22  C   UNL     1       6.134  30.117  57.377  1.00  0.00    -0.020 A 
HETATM   23  C   UNL     1       7.351  29.441  57.521  1.00  0.00     0.014 A 
HETATM   24  C   UNL     1       8.267  29.839  58.500  1.00  0.00     0.020 A 
HETATM   25  C   UNL     1       7.967  30.914  59.336  1.00  0.00     0.011 A 
HETATM   26 BR   UNL     1       9.206  31.453  60.656  1.00  0.00    -0.051 Br
HETATM   27  C   UNL     1       6.757  31.593  59.206  1.00  0.00     0.020 A 
HETATM   28  C   UNL     1       5.841  31.191  58.230  1.00  0.00     0.014 A 
ENDBRANCH   7  22
TORSDOF 5
ENDMDL
MODEL 3
REMARK VINA RESULT:      -8.6      8.003     11.494
REMARK  5 active torsions:
REMARK  status: ('A' for Active; 'I' for Inactive)
REMARK    1  A    between atoms: C_4  and  O_5 
REMARK    2  A    between atoms: O_5  and  C_6 
REMARK    3  A    between atoms: C_6  and  C_7 
REMARK       I    between atoms: C_7  and  N_8 
REMARK    4  A    between atoms: N_8  and  C_9 
REMARK    5  A    between atoms: C_15  and  C_16 
ROOT
HETATM    1  C   UNL     1       2.825  34.780  63.041  1.00  0.00     0.137 A 
HETATM    2  N   UNL     1       2.510  33.964  64.097  1.00  0.00    -0.262 N 
HETATM    3  H   UNL     1       1.959  33.110  64.083  1.00  0.00     0.191 HD
HETATM    4  N   UNL     1       3.057  34.343  65.263  1.00  0.00    -0.177 NA
HETATM    5  C   UNL     1       3.788  35.418  64.944  1.00  0.00     0.065 A 
HETATM    6  C   UNL     1       4.539  36.142  66.000  1.00  0.00     0.073 C 
HETATM    7  C   UNL     1       3.702  35.720  63.556  1.00  0.00     0.046 A 
ENDROOT
BRANCH   1   8
HETATM    8  N   UNL     1       2.405  34.611  61.735  1.00  0.00    -0.309 N 
HETATM    9  C   UNL     1       2.886  33.760  60.777  1.00  0.00     0.247 C 
HETATM   10  O   UNL     1       2.426  33.839  59.633  1.00  0.00    -0.271 OA
HETATM   11  H   UNL     1       1.601  35.153  61.432  1.00  0.00     0.170 HD
BRANCH   9  12
HETATM   12  C   UNL     1       3.888  32.669  61.139  1.00  0.00     0.278 C 
BRANCH  12  13
HETATM   13  O   UNL     1       5.160  32.903  60.540  1.00  0.00    -0.342 OA
BRANCH  13  14
HETATM   14  C   UNL     1       6.207  32.778  61.419  1.00  0.00     0.075 A 
HETATM   15  C   UNL     1       6.122  33.232  62.741  1.00  0.00     0.044 A 
HETATM   16  C   UNL     1       7.214  33.105  63.608  1.00  0.00    -0.059 A 
HETATM   17  C   UNL     1       7.125  33.593  65.024  1.00  0.00     0.048 C 
HETATM   18  C   UNL     1       8.370  32.464  63.153  1.00  0.00     0.007 A 
HETATM   19  C   UNL     1       8.440  31.972  61.847  1.00  0.00     0.010 A 
HETATM   20  C   UNL     1       7.361  32.124  60.966  1.00  0.00    -0.029 A 
HETATM   21  C   UNL     1       7.445  31.570  59.573  1.00  0.00     0.051 C 
ENDBRANCH  13  14
ENDBRANCH  12  13
ENDBRANCH   9  12
ENDBRANCH   1   8
BRANCH   7  22
HETATM   22  C   UNL     1       4.300  36.805  62.797  1.00  0.00    -0.020 A 
HETATM   23  C   UNL     1       3.492  37.793  62.223  1.00  0.00     0.014 A 
HETATM   24  C   UNL     1       4.067  38.833  61.485  1.00  0.00     0.020 A 
HETATM   25  C   UNL     1       5.450  38.887  61.322  1.00  0.00     0.011 A 
HETATM   26 BR   UNL     1       6.227  40.294  60.329  1.00  0.00    -0.051 Br
HETATM   27  C   UNL     1       6.266  37.907  61.886  1.00  0.00     0.020 A 
HETATM   28  C   UNL     1       5.689  36.866  62.618  1.00  0.00     0.014 A 
ENDBRANCH   7  22
TORSDOF 5
ENDMDL
MODEL 4
REMARK VINA RESULT:      -8.6      3.348      7.962
REMARK  5 active torsions:
REMARK  status: ('A' for Active; 'I' for Inactive)
REMARK    1  A    between atoms: C_4  and  O_5 
REMARK    2  A    between atoms: O_5  and  C_6 
REMARK    3  A    between atoms: C_6  and  C_7 
REMARK       I    between atoms: C_7  and  N_8 
REMARK    4  A    between atoms: N_8  and  C_9 
REMARK    5  A    between atoms: C_15  and  C_16 
ROOT
HETATM    1  C   UNL     1       7.958  28.867  57.128  1.00  0.00     0.137 A 
HETATM    2  N   UNL     1       8.890  28.484  56.197  1.00  0.00    -0.262 N 
HETATM    3  H   UNL     1       8.786  27.799  55.454  1.00  0.00     0.191 HD
HETATM    4  N   UNL     1      10.050  29.155  56.276  1.00  0.00    -0.177 NA
HETATM    5  C   UNL     1       9.849  30.035  57.265  1.00  0.00     0.065 A 
HETATM    6  C   UNL     1      10.938  30.959  57.668  1.00  0.00     0.073 C 
HETATM    7  C   UNL     1       8.541  29.917  57.816  1.00  0.00     0.046 A 
ENDROOT
BRANCH   1   8
HETATM    8  N   UNL     1       6.684  28.346  57.258  1.00  0.00    -0.309 N 
HETATM    9  C   UNL     1       6.233  27.086  56.969  1.00  0.00     0.247 C 
HETATM   10  O   UNL     1       5.024  26.856  57.068  1.00  0.00    -0.271 OA
HETATM   11  H   UNL     1       5.975  28.951  57.662  1.00  0.00     0.170 HD
BRANCH   9  12
HETATM   12  C   UNL     1       7.214  25.967  56.636  1.00  0.00     0.278 C 
BRANCH  12  13
HETATM   13  O   UNL     1       7.471  25.892  55.236  1.00  0.00    -0.342 OA
BRANCH  13  14
HETATM   14  C   UNL     1       7.614  24.605  54.778  1.00  0.00     0.075 A 
HETATM   15  C   UNL     1       7.593  23.505  55.642  1.00  0.00     0.044 A 
HETATM   16  C   UNL     1       7.760  22.206  55.145  1.00  0.00    -0.059 A 
HETATM   17  C   UNL     1       7.740  21.026  56.072  1.00  0.00     0.048 C 
HETATM   18  C   UNL     1       7.886  22.020  53.766  1.00  0.00     0.007 A 
HETATM   19  C   UNL     1       7.862  23.114  52.898  1.00  0.00     0.010 A 
HETATM   20  C   UNL     1       7.727  24.418  53.393  1.00  0.00    -0.029 A 
HETATM   21  C   UNL     1       7.683  25.581  52.444  1.00  0.00     0.051 C 
ENDBRANCH  13  14
ENDBRANCH  12  13
ENDBRANCH   9  12
ENDBRANCH   1   8
BRANCH   7  22
HETATM   22  C   UNL     1       7.921  30.641  58.912  1.00  0.00    -0.020 A 
HETATM   23  C   UNL     1       6.817  31.468  58.677  1.00  0.00     0.014 A 
HETATM   24  C   UNL     1       6.225  32.172  59.730  1.00  0.00     0.020 A 
HETATM   25  C   UNL     1       6.735  32.048  61.021  1.00  0.00     0.011 A 
HETATM   26 BR   UNL     1       5.934  32.996  62.445  1.00  0.00    -0.051 Br
HETATM   27  C   UNL     1       7.837  31.231  61.269  1.00  0.00     0.020 A 
HETATM   28  C   UNL     1       8.430  30.532  60.214  1.00  0.00     0.014 A 
ENDBRANCH   7  22
TORSDOF 5
ENDMDL
MODEL 5
REMARK VINA RESULT:      -8.5      2.660      4.173
REMARK  5 active torsions:
REMARK  status: ('A' for Active; 'I' for Inactive)
REMARK    1  A    between atoms: C_4  and  O_5 
REMARK    2  A    between atoms: O_5  and  C_6 
REMARK    3  A    between atoms: C_6  and  C_7 
REMARK       I    between atoms: C_7  and  N_8 
REMARK    4  A    between atoms: N_8  and  C_9 
REMARK    5  A    between atoms: C_15  and  C_16 
ROOT
HETATM    1  C   UNL     1       7.238  27.386  54.443  1.00  0.00     0.137 A 
HETATM    2  N   UNL     1       6.752  28.526  53.855  1.00  0.00    -0.262 N 
HETATM    3  H   UNL     1       6.869  29.487  54.165  1.00  0.00     0.191 HD
HETATM    4  N   UNL     1       6.091  28.311  52.707  1.00  0.00    -0.177 NA
HETATM    5  C   UNL     1       6.190  26.989  52.519  1.00  0.00     0.065 A 
HETATM    6  C   UNL     1       5.549  26.359  51.337  1.00  0.00     0.073 C 
HETATM    7  C   UNL     1       6.925  26.362  53.565  1.00  0.00     0.046 A 
ENDROOT
BRANCH   1   8
HETATM    8  N   UNL     1       7.960  27.327  55.620  1.00  0.00    -0.309 N 
HETATM    9  C   UNL     1       7.647  27.839  56.850  1.00  0.00     0.247 C 
HETATM   10  O   UNL     1       8.486  27.758  57.753  1.00  0.00    -0.271 OA
HETATM   11  H   UNL     1       8.828  26.800  55.606  1.00  0.00     0.170 HD
BRANCH   9  12
HETATM   12  C   UNL     1       6.258  28.401  57.128  1.00  0.00     0.278 C 
BRANCH  12  13
HETATM   13  O   UNL     1       6.148  29.761  56.717  1.00  0.00    -0.342 OA
BRANCH  13  14
HETATM   14  C   UNL     1       6.123  30.647  57.766  1.00  0.00     0.075 A 
HETATM   15  C   UNL     1       7.292  31.049  58.422  1.00  0.00     0.044 A 
HETATM   16  C   UNL     1       7.232  31.942  59.501  1.00  0.00    -0.059 A 
HETATM   17  C   UNL     1       8.484  32.371  60.206  1.00  0.00     0.048 C 
HETATM   18  C   UNL     1       5.993  32.471  59.873  1.00  0.00     0.007 A 
HETATM   19  C   UNL     1       4.831  32.104  59.190  1.00  0.00     0.010 A 
HETATM   20  C   UNL     1       4.883  31.188  58.130  1.00  0.00    -0.029 A 
HETATM   21  C   UNL     1       3.627  30.821  57.394  1.00  0.00     0.051 C 
ENDBRANCH  13  14
ENDBRANCH  12  13
ENDBRANCH   9  12
ENDBRANCH   1   8
BRANCH   7  22
HETATM   22  C   UNL     1       7.238  24.959  53.775  1.00  0.00    -0.020 A 
HETATM   23  C   UNL     1       6.879  24.328  54.972  1.00  0.00     0.014 A 
HETATM   24  C   UNL     1       7.189  22.980  55.178  1.00  0.00     0.020 A 
HETATM   25  C   UNL     1       7.856  22.261  54.187  1.00  0.00     0.011 A 
HETATM   26 BR   UNL     1       8.271  20.439  54.465  1.00  0.00    -0.051 Br
HETATM   27  C   UNL     1       8.222  22.878  52.993  1.00  0.00     0.020 A 
HETATM   28  C   UNL     1       7.917  24.227  52.790  1.00  0.00     0.014 A 
ENDBRANCH   7  22
TORSDOF 5
ENDMDL
MODEL 6
REMARK VINA RESULT:      -8.5      2.643      4.204
REMARK  5 active torsions:
REMARK  status: ('A' for Active; 'I' for Inactive)
REMARK    1  A    between atoms: C_4  and  O_5 
REMARK    2  A    between atoms: O_5  and  C_6 
REMARK    3  A    between atoms: C_6  and  C_7 
REMARK       I    between atoms: C_7  and  N_8 
REMARK    4  A    between atoms: N_8  and  C_9 
REMARK    5  A    between atoms: C_15  and  C_16 
ROOT
HETATM    1  C   UNL     1       7.227  28.971  55.558  1.00  0.00     0.137 A 
HETATM    2  N   UNL     1       6.410  30.070  55.631  1.00  0.00    -0.262 N 
HETATM    3  H   UNL     1       6.635  30.991  55.997  1.00  0.00     0.191 HD
HETATM    4  N   UNL     1       5.191  29.882  55.101  1.00  0.00    -0.177 NA
HETATM    5  C   UNL     1       5.233  28.631  54.626  1.00  0.00     0.065 A 
HETATM    6  C   UNL     1       4.036  28.046  53.972  1.00  0.00     0.073 C 
HETATM    7  C   UNL     1       6.499  28.022  54.860  1.00  0.00     0.046 A 
ENDROOT
BRANCH   1   8
HETATM    8  N   UNL     1       8.529  28.898  56.017  1.00  0.00    -0.309 N 
HETATM    9  C   UNL     1       9.038  29.276  57.230  1.00  0.00     0.247 C 
HETATM   10  O   UNL     1      10.259  29.215  57.402  1.00  0.00    -0.271 OA
HETATM   11  H   UNL     1       9.214  28.469  55.402  1.00  0.00     0.170 HD
BRANCH   9  12
HETATM   12  C   UNL     1       8.109  29.662  58.376  1.00  0.00     0.278 C 
BRANCH  12  13
HETATM   13  O   UNL     1       8.840  30.064  59.532  1.00  0.00    -0.342 OA
BRANCH  13  14
HETATM   14  C   UNL     1       8.152  30.944  60.332  1.00  0.00     0.075 A 
HETATM   15  C   UNL     1       7.056  31.673  59.857  1.00  0.00     0.044 A 
HETATM   16  C   UNL     1       6.385  32.576  60.693  1.00  0.00    -0.059 A 
HETATM   17  C   UNL     1       5.212  33.360  60.184  1.00  0.00     0.048 C 
HETATM   18  C   UNL     1       6.790  32.692  62.026  1.00  0.00     0.007 A 
HETATM   19  C   UNL     1       7.855  31.932  62.513  1.00  0.00     0.010 A 
HETATM   20  C   UNL     1       8.549  31.050  61.672  1.00  0.00    -0.029 A 
HETATM   21  C   UNL     1       9.679  30.225  62.217  1.00  0.00     0.051 C 
ENDBRANCH  13  14
ENDBRANCH  12  13
ENDBRANCH   9  12
ENDBRANCH   1   8
BRANCH   7  22
HETATM   22  C   UNL     1       6.962  26.681  54.546  1.00  0.00    -0.020 A 
HETATM   23  C   UNL     1       7.429  26.380  53.261  1.00  0.00     0.014 A 
HETATM   24  C   UNL     1       7.868  25.087  52.956  1.00  0.00     0.020 A 
HETATM   25  C   UNL     1       7.841  24.095  53.935  1.00  0.00     0.011 A 
HETATM   26 BR   UNL     1       8.436  22.350  53.523  1.00  0.00    -0.051 Br
HETATM   27  C   UNL     1       7.374  24.382  55.217  1.00  0.00     0.020 A 
HETATM   28  C   UNL     1       6.932  25.672  55.519  1.00  0.00     0.014 A 
ENDBRANCH   7  22
TORSDOF 5
ENDMDL
MODEL 7
REMARK VINA RESULT:      -8.5      3.435      7.235
REMARK  5 active torsions:
REMARK  status: ('A' for Active; 'I' for Inactive)
REMARK    1  A    between atoms: C_4  and  O_5 
REMARK    2  A    between atoms: O_5  and  C_6 
REMARK    3  A    between atoms: C_6  and  C_7 
REMARK       I    between atoms: C_7  and  N_8 
REMARK    4  A    between atoms: N_8  and  C_9 
REMARK    5  A    between atoms: C_15  and  C_16 
ROOT
HETATM    1  C   UNL     1       5.565  28.279  55.444  1.00  0.00     0.137 A 
HETATM    2  N   UNL     1       5.715  29.424  56.183  1.00  0.00    -0.262 N 
HETATM    3  H   UNL     1       5.035  30.164  56.332  1.00  0.00     0.191 HD
HETATM    4  N   UNL     1       6.897  29.519  56.811  1.00  0.00    -0.177 NA
HETATM    5  C   UNL     1       7.520  28.374  56.505  1.00  0.00     0.065 A 
HETATM    6  C   UNL     1       8.892  28.119  57.011  1.00  0.00     0.073 C 
HETATM    7  C   UNL     1       6.717  27.545  55.672  1.00  0.00     0.046 A 
ENDROOT
BRANCH   1   8
HETATM    8  N   UNL     1       4.446  27.929  54.711  1.00  0.00    -0.309 N 
HETATM    9  C   UNL     1       4.072  28.337  53.459  1.00  0.00     0.247 C 
HETATM   10  O   UNL     1       2.974  27.976  53.025  1.00  0.00    -0.271 OA
HETATM   11  H   UNL     1       3.820  27.242  55.120  1.00  0.00     0.170 HD
BRANCH   9  12
HETATM   12  C   UNL     1       5.033  29.131  52.581  1.00  0.00     0.278 C 
BRANCH  12  13
HETATM   13  O   UNL     1       5.841  28.275  51.778  1.00  0.00    -0.342 OA
BRANCH  13  14
HETATM   14  C   UNL     1       5.333  28.070  50.519  1.00  0.00     0.075 A 
HETATM   15  C   UNL     1       5.235  29.107  49.583  1.00  0.00     0.044 A 
HETATM   16  C   UNL     1       4.695  28.870  48.312  1.00  0.00    -0.059 A 
HETATM   17  C   UNL     1       4.588  29.980  47.310  1.00  0.00     0.048 C 
HETATM   18  C   UNL     1       4.312  27.569  47.971  1.00  0.00     0.007 A 
HETATM   19  C   UNL     1       4.450  26.526  48.889  1.00  0.00     0.010 A 
HETATM   20  C   UNL     1       4.961  26.764  50.173  1.00  0.00    -0.029 A 
HETATM   21  C   UNL     1       5.122  25.627  51.140  1.00  0.00     0.051 C 
ENDBRANCH  13  14
ENDBRANCH  12  13
ENDBRANCH   9  12
ENDBRANCH   1   8
BRANCH   7  22
HETATM   22  C   UNL     1       7.009  26.249  55.084  1.00  0.00    -0.020 A 
HETATM   23  C   UNL     1       7.599  26.166  53.817  1.00  0.00     0.014 A 
HETATM   24  C   UNL     1       7.873  24.919  53.247  1.00  0.00     0.020 A 
HETATM   25  C   UNL     1       7.559  23.753  53.943  1.00  0.00     0.011 A 
HETATM   26 BR   UNL     1       7.931  22.068  53.175  1.00  0.00    -0.051 Br
HETATM   27  C   UNL     1       6.967  23.821  55.204  1.00  0.00     0.020 A 
HETATM   28  C   UNL     1       6.690  25.068  55.770  1.00  0.00     0.014 A 
ENDBRANCH   7  22
TORSDOF 5
ENDMDL
MODEL 8
REMARK VINA RESULT:      -8.5      2.301      3.493
REMARK  5 active torsions:
REMARK  status: ('A' for Active; 'I' for Inactive)
REMARK    1  A    between atoms: C_4  and  O_5 
REMARK    2  A    between atoms: O_5  and  C_6 
REMARK    3  A    between atoms: C_6  and  C_7 
REMARK       I    between atoms: C_7  and  N_8 
REMARK    4  A    between atoms: N_8  and  C_9 
REMARK    5  A    between atoms: C_15  and  C_16 
ROOT
HETATM    1  C   UNL     1       6.928  27.386  54.830  1.00  0.00     0.137 A 
HETATM    2  N   UNL     1       6.462  28.613  54.433  1.00  0.00    -0.262 N 
HETATM    3  H   UNL     1       6.495  29.490  54.946  1.00  0.00     0.191 HD
HETATM    4  N   UNL     1       5.954  28.630  53.190  1.00  0.00    -0.177 NA
HETATM    5  C   UNL     1       6.137  27.379  52.748  1.00  0.00     0.065 A 
HETATM    6  C   UNL     1       5.674  26.998  51.391  1.00  0.00     0.073 C 
HETATM    7  C   UNL     1       6.771  26.563  53.727  1.00  0.00     0.046 A 
ENDROOT
BRANCH   1   8
HETATM    8  N   UNL     1       7.507  27.097  56.051  1.00  0.00    -0.309 N 
HETATM    9  C   UNL     1       7.510  27.839  57.202  1.00  0.00     0.247 C 
HETATM   10  O   UNL     1       8.176  27.437  58.161  1.00  0.00    -0.271 OA
HETATM   11  H   UNL     1       7.964  26.195  56.147  1.00  0.00     0.170 HD
BRANCH   9  12
HETATM   12  C   UNL     1       6.628  29.076  57.331  1.00  0.00     0.278 C 
BRANCH  12  13
HETATM   13  O   UNL     1       7.352  30.271  57.051  1.00  0.00    -0.342 OA
BRANCH  13  14
HETATM   14  C   UNL     1       7.724  30.959  58.179  1.00  0.00     0.075 A 
HETATM   15  C   UNL     1       6.782  31.529  59.043  1.00  0.00     0.044 A 
HETATM   16  C   UNL     1       7.194  32.240  60.178  1.00  0.00    -0.059 A 
HETATM   17  C   UNL     1       6.185  32.853  61.102  1.00  0.00     0.048 C 
HETATM   18  C   UNL     1       8.560  32.320  60.467  1.00  0.00     0.007 A 
HETATM   19  C   UNL     1       9.498  31.714  59.629  1.00  0.00     0.010 A 
HETATM   20  C   UNL     1       9.092  31.028  58.476  1.00  0.00    -0.029 A 
HETATM   21  C   UNL     1      10.114  30.365  57.598  1.00  0.00     0.051 C 
ENDBRANCH  13  14
ENDBRANCH  12  13
ENDBRANCH   9  12
ENDBRANCH   1   8
BRANCH   7  22
HETATM   22  C   UNL     1       7.124  25.154  53.682  1.00  0.00    -0.020 A 
HETATM   23  C   UNL     1       7.760  24.622  52.555  1.00  0.00     0.014 A 
HETATM   24  C   UNL     1       8.092  23.264  52.507  1.00  0.00     0.020 A 
HETATM   25  C   UNL     1       7.790  22.438  53.589  1.00  0.00     0.011 A 
HETATM   26 BR   UNL     1       8.242  20.604  53.527  1.00  0.00    -0.051 Br
HETATM   27  C   UNL     1       7.154  22.954  54.716  1.00  0.00     0.020 A 
HETATM   28  C   UNL     1       6.818  24.310  54.759  1.00  0.00     0.014 A 
ENDBRANCH   7  22
TORSDOF 5
ENDMDL
MODEL 9
REMARK VINA RESULT:      -8.3      4.366      7.202
REMARK  5 active torsions:
REMARK  status: ('A' for Active; 'I' for Inactive)
REMARK    1  A    between atoms: C_4  and  O_5 
REMARK    2  A    between atoms: O_5  and  C_6 
REMARK    3  A    between atoms: C_6  and  C_7 
REMARK       I    between atoms: C_7  and  N_8 
REMARK    4  A    between atoms: N_8  and  C_9 
REMARK    5  A    between atoms: C_15  and  C_16 
ROOT
HETATM    1  C   UNL     1       4.067  27.546  53.641  1.00  0.00     0.137 A 
HETATM    2  N   UNL     1       4.232  27.702  54.993  1.00  0.00    -0.262 N 
HETATM    3  H   UNL     1       4.352  26.977  55.695  1.00  0.00     0.191 HD
HETATM    4  N   UNL     1       4.288  28.982  55.394  1.00  0.00    -0.177 NA
HETATM    5  C   UNL     1       4.200  29.682  54.256  1.00  0.00     0.065 A 
HETATM    6  C   UNL     1       4.206  31.165  54.296  1.00  0.00     0.073 C 
HETATM    7  C   UNL     1       4.089  28.829  53.121  1.00  0.00     0.046 A 
ENDROOT
BRANCH   1   8
HETATM    8  N   UNL     1       3.989  26.340  52.969  1.00  0.00    -0.309 N 
HETATM    9  C   UNL     1       4.989  25.457  52.664  1.00  0.00     0.247 C 
HETATM   10  O   UNL     1       4.716  24.475  51.965  1.00  0.00    -0.271 OA
HETATM   11  H   UNL     1       3.065  26.023  52.690  1.00  0.00     0.170 HD
BRANCH   9  12
HETATM   12  C   UNL     1       6.382  25.623  53.260  1.00  0.00     0.278 C 
BRANCH  12  13
HETATM   13  O   UNL     1       6.438  25.158  54.606  1.00  0.00    -0.342 OA
BRANCH  13  14
HETATM   14  C   UNL     1       7.233  24.049  54.767  1.00  0.00     0.075 A 
HETATM   15  C   UNL     1       7.298  23.039  53.800  1.00  0.00     0.044 A 
HETATM   16  C   UNL     1       8.106  21.913  54.001  1.00  0.00    -0.059 A 
HETATM   17  C   UNL     1       8.175  20.829  52.967  1.00  0.00     0.048 C 
HETATM   18  C   UNL     1       8.892  21.841  55.155  1.00  0.00     0.007 A 
HETATM   19  C   UNL     1       8.861  22.869  56.099  1.00  0.00     0.010 A 
HETATM   20  C   UNL     1       8.031  23.984  55.917  1.00  0.00    -0.029 A 
HETATM   21  C   UNL     1       8.026  25.090  56.932  1.00  0.00     0.051 C 
ENDBRANCH  13  14
ENDBRANCH  12  13
ENDBRANCH   9  12
ENDBRANCH   1   8
BRANCH   7  22
HETATM   22  C   UNL     1       3.938  29.161  51.715  1.00  0.00    -0.020 A 
HETATM   23  C   UNL     1       5.065  29.439  50.931  1.00  0.00     0.014 A 
HETATM   24  C   UNL     1       4.920  29.767  49.580  1.00  0.00     0.020 A 
HETATM   25  C   UNL     1       3.649  29.816  49.009  1.00  0.00     0.011 A 
HETATM   26 BR   UNL     1       3.453  30.256  47.182  1.00  0.00    -0.051 Br
HETATM   27  C   UNL     1       2.519  29.545  49.779  1.00  0.00     0.020 A 
HETATM   28  C   UNL     1       2.665  29.222  51.130  1.00  0.00     0.014 A 
ENDBRANCH   7  22
TORSDOF 5
ENDMDL
MODEL 10
REMARK VINA RESULT:      -8.2      3.708      6.125
REMARK  5 active torsions:
REMARK  status: ('A' for Active; 'I' for Inactive)
REMARK    1  A    between atoms: C_4  and  O_5 
REMARK    2  A    between atoms: O_5  and  C_6 
REMARK    3  A    between atoms: C_6  and  C_7 
REMARK       I    between atoms: C_7  and  N_8 
REMARK    4  A    between atoms: N_8  and  C_9 
REMARK    5  A    between atoms: C_15  and  C_16 
ROOT
HETATM    1  C   UNL     1       6.984  31.353  58.590  1.00  0.00     0.137 A 
HETATM    2  N   UNL     1       7.808  32.277  59.180  1.00  0.00    -0.262 N 
HETATM    3  H   UNL     1       7.545  33.062  59.769  1.00  0.00     0.191 HD
HETATM    4  N   UNL     1       9.116  32.053  58.975  1.00  0.00    -0.177 NA
HETATM    5  C   UNL     1       9.143  30.919  58.263  1.00  0.00     0.065 A 
HETATM    6  C   UNL     1      10.442  30.355  57.819  1.00  0.00     0.073 C 
HETATM    7  C   UNL     1       7.832  30.421  58.017  1.00  0.00     0.046 A 
ENDROOT
BRANCH   1   8
HETATM    8  N   UNL     1       5.603  31.344  58.653  1.00  0.00    -0.309 N 
HETATM    9  C   UNL     1       4.782  31.814  59.642  1.00  0.00     0.247 C 
HETATM   10  O   UNL     1       3.566  31.617  59.542  1.00  0.00    -0.271 OA
HETATM   11  H   UNL     1       5.104  30.982  57.846  1.00  0.00     0.170 HD
BRANCH   9  12
HETATM   12  C   UNL     1       5.342  32.652  60.785  1.00  0.00     0.278 C 
BRANCH  12  13
HETATM   13  O   UNL     1       5.959  31.839  61.781  1.00  0.00    -0.342 OA
BRANCH  13  14
HETATM   14  C   UNL     1       6.167  32.497  62.968  1.00  0.00     0.075 A 
HETATM   15  C   UNL     1       5.105  32.935  63.768  1.00  0.00     0.044 A 
HETATM   16  C   UNL     1       5.351  33.618  64.966  1.00  0.00    -0.059 A 
HETATM   17  C   UNL     1       4.213  34.091  65.821  1.00  0.00     0.048 C 
HETATM   18  C   UNL     1       6.673  33.803  65.381  1.00  0.00     0.007 A 
HETATM   19  C   UNL     1       7.732  33.327  64.605  1.00  0.00     0.010 A 
HETATM   20  C   UNL     1       7.492  32.670  63.391  1.00  0.00    -0.029 A 
HETATM   21  C   UNL     1       8.642  32.146  62.580  1.00  0.00     0.051 C 
ENDBRANCH  13  14
ENDBRANCH  12  13
ENDBRANCH   9  12
ENDBRANCH   1   8
BRANCH   7  22
HETATM   22  C   UNL     1       7.403  29.252  57.268  1.00  0.00    -0.020 A 
HETATM   23  C   UNL     1       7.450  27.982  57.854  1.00  0.00     0.014 A 
HETATM   24  C   UNL     1       7.045  26.856  57.130  1.00  0.00     0.020 A 
HETATM   25  C   UNL     1       6.591  27.000  55.820  1.00  0.00     0.011 A 
HETATM   26 BR   UNL     1       6.040  25.479  54.843  1.00  0.00    -0.051 Br
HETATM   27  C   UNL     1       6.542  28.259  55.223  1.00  0.00     0.020 A 
HETATM   28  C   UNL     1       6.952  29.382  55.946  1.00  0.00     0.014 A 
ENDBRANCH   7  22
TORSDOF 5
ENDMDL
