MODEL 1
REMARK VINA RESULT:      -9.8      0.000      0.000
REMARK  7 active torsions:
REMARK  status: ('A' for Active; 'I' for Inactive)
REMARK    1  A    between atoms: C_2  and  O_3 
REMARK    2  A    between atoms: O_3  and  C_4 
REMARK       I    between atoms: C_4  and  N_5 
REMARK       I    between atoms: N_8  and  C_9 
REMARK    3  A    between atoms: C_9  and  C_10 
REMARK    4  A    between atoms: C_11  and  N_12 
REMARK       I    between atoms: N_12  and  C_13 
REMARK    5  A    between atoms: C_13  and  C_14 
REMARK    6  A    between atoms: N_16  and  C_17 
REMARK    7  A    between atoms: C_18  and  O_19 
ROOT
HETATM    1  C   UNL     1       7.034  31.962  59.999  1.00  0.00     0.059 A 
HETATM    2  C   UNL     1       7.208  30.857  59.134  1.00  0.00     0.050 A 
HETATM    3  C   UNL     1       8.513  30.486  58.799  1.00  0.00     0.030 A 
HETATM    4  C   UNL     1       9.613  31.192  59.301  1.00  0.00     0.002 A 
HETATM    5  C   UNL     1       9.428  32.300  60.123  1.00  0.00     0.001 A 
HETATM    6  C   UNL     1       8.138  32.695  60.461  1.00  0.00     0.019 A 
ENDROOT
BRANCH   2   7
HETATM    7  N   UNL     1       6.065  30.250  58.569  1.00  0.00    -0.326 N 
HETATM    8  C   UNL     1       5.844  29.443  57.494  1.00  0.00     0.228 C 
HETATM    9  O   UNL     1       4.679  29.294  57.116  1.00  0.00    -0.273 OA
HETATM   10  H   UNL     1       5.185  30.512  59.022  1.00  0.00     0.169 HD
BRANCH   8  11
HETATM   11  C   UNL     1       6.969  28.673  56.839  1.00  0.00     0.105 C 
HETATM   12  C   UNL     1       6.445  27.330  56.334  1.00  0.00     0.147 C 
HETATM   13  N   UNL     1       7.238  27.043  55.163  1.00  0.00    -0.315 N 
HETATM   14  C   UNL     1       7.884  28.187  54.691  1.00  0.00     0.225 C 
HETATM   15  O   UNL     1       8.695  28.299  53.784  1.00  0.00    -0.273 OA
HETATM   16  C   UNL     1       7.471  29.345  55.567  1.00  0.00     0.119 C 
BRANCH  13  17
HETATM   17  C   UNL     1       7.101  25.814  54.460  1.00  0.00     0.071 A 
HETATM   18  C   UNL     1       6.267  25.669  53.333  1.00  0.00     0.095 A 
HETATM   19  C   UNL     1       6.205  24.437  52.667  1.00  0.00     0.039 A 
HETATM   20  C   UNL     1       6.946  23.344  53.120  1.00  0.00     0.009 A 
HETATM   21  C   UNL     1       7.736  23.455  54.263  1.00  0.00    -0.060 A 
HETATM   22  C   UNL     1       8.529  22.286  54.769  1.00  0.00     0.048 C 
HETATM   23  C   UNL     1       7.811  24.691  54.921  1.00  0.00     0.039 A 
BRANCH  18  24
HETATM   24  O   UNL     1       5.412  26.701  53.034  1.00  0.00    -0.354 OA
HETATM   25  C   UNL     1       5.195  26.966  51.654  1.00  0.00     0.210 C 
ENDBRANCH  18  24
ENDBRANCH  13  17
ENDBRANCH   8  11
ENDBRANCH   2   7
BRANCH   1  26
HETATM   26  C   UNL     1       5.670  32.390  60.402  1.00  0.00     0.256 C 
HETATM   27  N   UNL     1       5.361  32.536  61.752  1.00  0.00    -0.345 N 
HETATM   28  C   UNL     1       6.081  31.903  62.865  1.00  0.00     0.146 C 
HETATM   29  C   UNL     1       4.019  32.998  62.113  1.00  0.00     0.146 C 
HETATM   30  C   UNL     1       6.171  32.849  64.066  1.00  0.00     0.148 C 
HETATM   31  N   UNL     1       4.873  33.416  64.433  1.00  0.00    -0.325 N 
HETATM   32  C   UNL     1       4.727  33.898  65.725  1.00  0.00     0.362 C 
HETATM   33  C   UNL     1       4.052  33.933  63.331  1.00  0.00     0.148 C 
HETATM   34  O   UNL     1       5.552  33.720  66.614  1.00  0.00    -0.238 OA
HETATM   35  O   UNL     1       4.858  32.599  59.502  1.00  0.00    -0.267 OA
BRANCH  32  36
HETATM   36  O   UNL     1       3.571  34.594  65.891  1.00  0.00    -0.304 OA
BRANCH  36  37
HETATM   37  C   UNL     1       3.687  35.882  66.511  1.00  0.00     0.176 C 
HETATM   38  C   UNL     1       4.562  36.784  65.661  1.00  0.00     0.034 C 
ENDBRANCH  36  37
ENDBRANCH  32  36
ENDBRANCH   1  26
TORSDOF 7
ENDMDL
MODEL 2
REMARK VINA RESULT:      -9.7      4.321      8.284
REMARK  7 active torsions:
REMARK  status: ('A' for Active; 'I' for Inactive)
REMARK    1  A    between atoms: C_2  and  O_3 
REMARK    2  A    between atoms: O_3  and  C_4 
REMARK       I    between atoms: C_4  and  N_5 
REMARK       I    between atoms: N_8  and  C_9 
REMARK    3  A    between atoms: C_9  and  C_10 
REMARK    4  A    between atoms: C_11  and  N_12 
REMARK       I    between atoms: N_12  and  C_13 
REMARK    5  A    between atoms: C_13  and  C_14 
REMARK    6  A    between atoms: N_16  and  C_17 
REMARK    7  A    between atoms: C_18  and  O_19 
ROOT
HETATM    1  C   UNL     1       6.729  26.252  54.676  1.00  0.00     0.059 A 
HETATM    2  C   UNL     1       6.500  26.658  53.341  1.00  0.00     0.050 A 
HETATM    3  C   UNL     1       7.003  25.854  52.315  1.00  0.00     0.030 A 
HETATM    4  C   UNL     1       7.719  24.685  52.603  1.00  0.00     0.002 A 
HETATM    5  C   UNL     1       7.969  24.314  53.921  1.00  0.00     0.001 A 
HETATM    6  C   UNL     1       7.487  25.105  54.959  1.00  0.00     0.019 A 
ENDROOT
BRANCH   2   7
HETATM    7  N   UNL     1       5.870  27.900  53.107  1.00  0.00    -0.326 N 
HETATM    8  C   UNL     1       5.461  28.571  51.994  1.00  0.00     0.228 C 
HETATM    9  O   UNL     1       5.176  29.765  52.115  1.00  0.00    -0.273 OA
HETATM   10  H   UNL     1       5.736  28.467  53.951  1.00  0.00     0.169 HD
BRANCH   8  11
HETATM   11  C   UNL     1       5.265  27.863  50.673  1.00  0.00     0.105 C 
HETATM   12  C   UNL     1       3.806  27.981  50.240  1.00  0.00     0.147 C 
HETATM   13  N   UNL     1       3.851  28.005  48.797  1.00  0.00    -0.315 N 
HETATM   14  C   UNL     1       5.134  28.299  48.333  1.00  0.00     0.225 C 
HETATM   15  O   UNL     1       5.556  28.317  47.186  1.00  0.00    -0.273 OA
HETATM   16  C   UNL     1       6.016  28.539  49.533  1.00  0.00     0.119 C 
BRANCH  13  17
HETATM   17  C   UNL     1       2.661  28.017  48.020  1.00  0.00     0.071 A 
HETATM   18  C   UNL     1       2.244  26.915  47.245  1.00  0.00     0.095 A 
HETATM   19  C   UNL     1       1.041  26.982  46.528  1.00  0.00     0.039 A 
HETATM   20  C   UNL     1       0.259  28.138  46.556  1.00  0.00     0.009 A 
HETATM   21  C   UNL     1       0.681  29.256  47.274  1.00  0.00    -0.060 A 
HETATM   22  C   UNL     1      -0.143  30.510  47.303  1.00  0.00     0.048 C 
HETATM   23  C   UNL     1       1.876  29.184  48.005  1.00  0.00     0.039 A 
BRANCH  18  24
HETATM   24  O   UNL     1       3.127  25.875  47.089  1.00  0.00    -0.354 OA
HETATM   25  C   UNL     1       2.976  24.775  47.977  1.00  0.00     0.210 C 
ENDBRANCH  18  24
ENDBRANCH  13  17
ENDBRANCH   8  11
ENDBRANCH   2   7
BRANCH   1  26
HETATM   26  C   UNL     1       6.203  27.059  55.805  1.00  0.00     0.256 C 
HETATM   27  N   UNL     1       7.067  27.871  56.536  1.00  0.00    -0.345 N 
HETATM   28  C   UNL     1       8.525  27.711  56.618  1.00  0.00     0.146 C 
HETATM   29  C   UNL     1       6.509  28.685  57.619  1.00  0.00     0.146 C 
HETATM   30  C   UNL     1       9.224  29.074  56.647  1.00  0.00     0.148 C 
HETATM   31  N   UNL     1       8.659  29.973  57.654  1.00  0.00    -0.325 N 
HETATM   32  C   UNL     1       9.455  31.019  58.096  1.00  0.00     0.362 C 
HETATM   33  C   UNL     1       7.194  30.055  57.707  1.00  0.00     0.148 C 
HETATM   34  O   UNL     1      10.645  31.129  57.825  1.00  0.00    -0.238 OA
HETATM   35  O   UNL     1       5.001  26.968  56.050  1.00  0.00    -0.267 OA
BRANCH  32  36
HETATM   36  O   UNL     1       8.764  31.910  58.856  1.00  0.00    -0.304 OA
BRANCH  36  37
HETATM   37  C   UNL     1       9.287  32.169  60.166  1.00  0.00     0.176 C 
HETATM   38  C   UNL     1       9.144  30.929  61.030  1.00  0.00     0.034 C 
ENDBRANCH  36  37
ENDBRANCH  32  36
ENDBRANCH   1  26
TORSDOF 7
ENDMDL
MODEL 3
REMARK VINA RESULT:      -9.6      1.899      3.126
REMARK  7 active torsions:
REMARK  status: ('A' for Active; 'I' for Inactive)
REMARK    1  A    between atoms: C_2  and  O_3 
REMARK    2  A    between atoms: O_3  and  C_4 
REMARK       I    between atoms: C_4  and  N_5 
REMARK       I    between atoms: N_8  and  C_9 
REMARK    3  A    between atoms: C_9  and  C_10 
REMARK    4  A    between atoms: C_11  and  N_12 
REMARK       I    between atoms: N_12  and  C_13 
REMARK    5  A    between atoms: C_13  and  C_14 
REMARK    6  A    between atoms: N_16  and  C_17 
REMARK    7  A    between atoms: C_18  and  O_19 
ROOT
HETATM    1  C   UNL     1       6.188  31.472  57.854  1.00  0.00     0.059 A 
HETATM    2  C   UNL     1       6.261  30.208  57.225  1.00  0.00     0.050 A 
HETATM    3  C   UNL     1       5.529  30.017  56.050  1.00  0.00     0.030 A 
HETATM    4  C   UNL     1       4.744  31.047  55.517  1.00  0.00     0.002 A 
HETATM    5  C   UNL     1       4.651  32.275  56.164  1.00  0.00     0.001 A 
HETATM    6  C   UNL     1       5.362  32.485  57.341  1.00  0.00     0.019 A 
ENDROOT
BRANCH   2   7
HETATM    7  N   UNL     1       6.977  29.172  57.863  1.00  0.00    -0.326 N 
HETATM    8  C   UNL     1       7.200  27.856  57.591  1.00  0.00     0.228 C 
HETATM    9  O   UNL     1       7.662  27.153  58.494  1.00  0.00    -0.273 OA
HETATM   10  H   UNL     1       7.379  29.436  58.768  1.00  0.00     0.169 HD
BRANCH   8  11
HETATM   11  C   UNL     1       6.986  27.287  56.207  1.00  0.00     0.105 C 
HETATM   12  C   UNL     1       7.814  26.014  56.042  1.00  0.00     0.147 C 
HETATM   13  N   UNL     1       7.044  25.189  55.142  1.00  0.00    -0.315 N 
HETATM   14  C   UNL     1       5.721  25.626  55.056  1.00  0.00     0.225 C 
HETATM   15  O   UNL     1       4.819  25.225  54.334  1.00  0.00    -0.273 OA
HETATM   16  C   UNL     1       5.559  26.798  55.993  1.00  0.00     0.119 C 
BRANCH  13  17
HETATM   17  C   UNL     1       7.542  23.943  54.672  1.00  0.00     0.071 A 
HETATM   18  C   UNL     1       8.203  23.803  53.434  1.00  0.00     0.095 A 
HETATM   19  C   UNL     1       8.699  22.551  53.047  1.00  0.00     0.039 A 
HETATM   20  C   UNL     1       8.528  21.433  53.866  1.00  0.00     0.009 A 
HETATM   21  C   UNL     1       7.831  21.541  55.069  1.00  0.00    -0.060 A 
HETATM   22  C   UNL     1       7.629  20.346  55.953  1.00  0.00     0.048 C 
HETATM   23  C   UNL     1       7.349  22.797  55.464  1.00  0.00     0.039 A 
BRANCH  18  24
HETATM   24  O   UNL     1       8.183  24.874  52.576  1.00  0.00    -0.354 OA
HETATM   25  C   UNL     1       7.051  24.983  51.722  1.00  0.00     0.210 C 
ENDBRANCH  18  24
ENDBRANCH  13  17
ENDBRANCH   8  11
ENDBRANCH   2   7
BRANCH   1  26
HETATM   26  C   UNL     1       6.957  31.736  59.097  1.00  0.00     0.256 C 
HETATM   27  N   UNL     1       6.324  32.321  60.190  1.00  0.00    -0.345 N 
HETATM   28  C   UNL     1       5.091  33.117  60.138  1.00  0.00     0.146 C 
HETATM   29  C   UNL     1       7.102  32.532  61.414  1.00  0.00     0.146 C 
HETATM   30  C   UNL     1       4.209  32.840  61.359  1.00  0.00     0.148 C 
HETATM   31  N   UNL     1       4.943  32.951  62.619  1.00  0.00    -0.325 N 
HETATM   32  C   UNL     1       4.207  33.178  63.772  1.00  0.00     0.362 C 
HETATM   33  C   UNL     1       6.254  32.290  62.671  1.00  0.00     0.148 C 
HETATM   34  O   UNL     1       3.015  33.460  63.772  1.00  0.00    -0.238 OA
HETATM   35  O   UNL     1       8.146  31.420  59.100  1.00  0.00    -0.267 OA
BRANCH  32  36
HETATM   36  O   UNL     1       4.956  33.046  64.899  1.00  0.00    -0.304 OA
BRANCH  36  37
HETATM   37  C   UNL     1       5.194  34.245  65.649  1.00  0.00     0.176 C 
HETATM   38  C   UNL     1       4.582  34.116  67.031  1.00  0.00     0.034 C 
ENDBRANCH  36  37
ENDBRANCH  32  36
ENDBRANCH   1  26
TORSDOF 7
ENDMDL
MODEL 4
REMARK VINA RESULT:      -9.5      1.967      3.132
REMARK  7 active torsions:
REMARK  status: ('A' for Active; 'I' for Inactive)
REMARK    1  A    between atoms: C_2  and  O_3 
REMARK    2  A    between atoms: O_3  and  C_4 
REMARK       I    between atoms: C_4  and  N_5 
REMARK       I    between atoms: N_8  and  C_9 
REMARK    3  A    between atoms: C_9  and  C_10 
REMARK    4  A    between atoms: C_11  and  N_12 
REMARK       I    between atoms: N_12  and  C_13 
REMARK    5  A    between atoms: C_13  and  C_14 
REMARK    6  A    between atoms: N_16  and  C_17 
REMARK    7  A    between atoms: C_18  and  O_19 
ROOT
HETATM    1  C   UNL     1       8.332  30.876  58.080  1.00  0.00     0.059 A 
HETATM    2  C   UNL     1       8.284  29.731  57.252  1.00  0.00     0.050 A 
HETATM    3  C   UNL     1       9.495  29.189  56.812  1.00  0.00     0.030 A 
HETATM    4  C   UNL     1      10.717  29.769  57.176  1.00  0.00     0.002 A 
HETATM    5  C   UNL     1      10.750  30.917  57.962  1.00  0.00     0.001 A 
HETATM    6  C   UNL     1       9.557  31.481  58.403  1.00  0.00     0.019 A 
ENDROOT
BRANCH   2   7
HETATM    7  N   UNL     1       7.027  29.253  56.824  1.00  0.00    -0.326 N 
HETATM    8  C   UNL     1       6.598  28.487  55.782  1.00  0.00     0.228 C 
HETATM    9  O   UNL     1       5.387  28.466  55.545  1.00  0.00    -0.273 OA
HETATM   10  H   UNL     1       6.237  29.600  57.378  1.00  0.00     0.169 HD
BRANCH   8  11
HETATM   11  C   UNL     1       7.552  27.614  54.999  1.00  0.00     0.105 C 
HETATM   12  C   UNL     1       7.644  26.239  55.657  1.00  0.00     0.147 C 
HETATM   13  N   UNL     1       7.882  25.325  54.566  1.00  0.00    -0.315 N 
HETATM   14  C   UNL     1       7.567  25.906  53.336  1.00  0.00     0.225 C 
HETATM   15  O   UNL     1       7.724  25.462  52.208  1.00  0.00    -0.273 OA
HETATM   16  C   UNL     1       7.034  27.292  53.604  1.00  0.00     0.119 C 
BRANCH  13  17
HETATM   17  C   UNL     1       8.118  23.942  54.797  1.00  0.00     0.071 A 
HETATM   18  C   UNL     1       8.654  23.451  56.006  1.00  0.00     0.095 A 
HETATM   19  C   UNL     1       8.830  22.071  56.180  1.00  0.00     0.039 A 
HETATM   20  C   UNL     1       8.500  21.176  55.161  1.00  0.00     0.009 A 
HETATM   21  C   UNL     1       8.018  21.647  53.940  1.00  0.00    -0.060 A 
HETATM   22  C   UNL     1       7.670  20.698  52.831  1.00  0.00     0.048 C 
HETATM   23  C   UNL     1       7.826  23.026  53.771  1.00  0.00     0.039 A 
BRANCH  18  24
HETATM   24  O   UNL     1       9.144  24.366  56.905  1.00  0.00    -0.354 OA
HETATM   25  C   UNL     1       8.820  24.149  58.272  1.00  0.00     0.210 C 
ENDBRANCH  18  24
ENDBRANCH  13  17
ENDBRANCH   8  11
ENDBRANCH   2   7
BRANCH   1  26
HETATM   26  C   UNL     1       7.077  31.484  58.590  1.00  0.00     0.256 C 
HETATM   27  N   UNL     1       6.943  31.756  59.949  1.00  0.00    -0.345 N 
HETATM   28  C   UNL     1       7.714  31.122  61.027  1.00  0.00     0.146 C 
HETATM   29  C   UNL     1       5.708  32.393  60.413  1.00  0.00     0.146 C 
HETATM   30  C   UNL     1       8.042  32.131  62.131  1.00  0.00     0.148 C 
HETATM   31  N   UNL     1       6.863  32.867  62.588  1.00  0.00    -0.325 N 
HETATM   32  C   UNL     1       6.918  33.449  63.845  1.00  0.00     0.362 C 
HETATM   33  C   UNL     1       5.980  33.398  61.541  1.00  0.00     0.148 C 
HETATM   34  O   UNL     1       7.816  33.240  64.652  1.00  0.00    -0.238 OA
HETATM   35  O   UNL     1       6.193  31.723  57.768  1.00  0.00    -0.267 OA
BRANCH  32  36
HETATM   36  O   UNL     1       5.869  34.283  64.076  1.00  0.00    -0.304 OA
BRANCH  36  37
HETATM   37  C   UNL     1       4.795  33.750  64.863  1.00  0.00     0.176 C 
HETATM   38  C   UNL     1       5.005  34.101  66.324  1.00  0.00     0.034 C 
ENDBRANCH  36  37
ENDBRANCH  32  36
ENDBRANCH   1  26
TORSDOF 7
ENDMDL
MODEL 5
REMARK VINA RESULT:      -9.5      4.018      8.877
REMARK  7 active torsions:
REMARK  status: ('A' for Active; 'I' for Inactive)
REMARK    1  A    between atoms: C_2  and  O_3 
REMARK    2  A    between atoms: O_3  and  C_4 
REMARK       I    between atoms: C_4  and  N_5 
REMARK       I    between atoms: N_8  and  C_9 
REMARK    3  A    between atoms: C_9  and  C_10 
REMARK    4  A    between atoms: C_11  and  N_12 
REMARK       I    between atoms: N_12  and  C_13 
REMARK    5  A    between atoms: C_13  and  C_14 
REMARK    6  A    between atoms: N_16  and  C_17 
REMARK    7  A    between atoms: C_18  and  O_19 
ROOT
HETATM    1  C   UNL     1       6.248  25.078  54.695  1.00  0.00     0.059 A 
HETATM    2  C   UNL     1       7.411  24.468  55.220  1.00  0.00     0.050 A 
HETATM    3  C   UNL     1       8.180  23.677  54.362  1.00  0.00     0.030 A 
HETATM    4  C   UNL     1       7.805  23.492  53.025  1.00  0.00     0.002 A 
HETATM    5  C   UNL     1       6.640  24.068  52.529  1.00  0.00     0.001 A 
HETATM    6  C   UNL     1       5.852  24.850  53.368  1.00  0.00     0.019 A 
ENDROOT
BRANCH   2   7
HETATM    7  N   UNL     1       7.682  24.597  56.599  1.00  0.00    -0.326 N 
HETATM    8  C   UNL     1       8.136  25.606  57.394  1.00  0.00     0.228 C 
HETATM    9  O   UNL     1       8.515  25.315  58.532  1.00  0.00    -0.273 OA
HETATM   10  H   UNL     1       7.577  23.727  57.130  1.00  0.00     0.169 HD
BRANCH   8  11
HETATM   11  C   UNL     1       8.089  27.049  56.944  1.00  0.00     0.105 C 
HETATM   12  C   UNL     1       7.560  27.922  58.080  1.00  0.00     0.147 C 
HETATM   13  N   UNL     1       8.223  29.192  57.906  1.00  0.00    -0.315 N 
HETATM   14  C   UNL     1       9.336  29.076  57.073  1.00  0.00     0.225 C 
HETATM   15  O   UNL     1      10.073  29.950  56.640  1.00  0.00    -0.273 OA
HETATM   16  C   UNL     1       9.475  27.624  56.688  1.00  0.00     0.119 C 
BRANCH  13  17
HETATM   17  C   UNL     1       7.913  30.308  58.732  1.00  0.00     0.071 A 
HETATM   18  C   UNL     1       6.838  31.181  58.463  1.00  0.00     0.095 A 
HETATM   19  C   UNL     1       6.568  32.242  59.338  1.00  0.00     0.039 A 
HETATM   20  C   UNL     1       7.365  32.458  60.464  1.00  0.00     0.009 A 
HETATM   21  C   UNL     1       8.463  31.636  60.717  1.00  0.00    -0.060 A 
HETATM   22  C   UNL     1       9.335  31.863  61.917  1.00  0.00     0.048 C 
HETATM   23  C   UNL     1       8.724  30.564  59.851  1.00  0.00     0.039 A 
BRANCH  18  24
HETATM   24  O   UNL     1       6.201  31.055  57.254  1.00  0.00    -0.354 OA
HETATM   25  C   UNL     1       4.983  31.772  57.101  1.00  0.00     0.210 C 
ENDBRANCH  18  24
ENDBRANCH  13  17
ENDBRANCH   8  11
ENDBRANCH   2   7
BRANCH   1  26
HETATM   26  C   UNL     1       5.402  25.942  55.557  1.00  0.00     0.256 C 
HETATM   27  N   UNL     1       5.186  27.272  55.203  1.00  0.00    -0.345 N 
HETATM   28  C   UNL     1       6.039  28.067  54.310  1.00  0.00     0.146 C 
HETATM   29  C   UNL     1       4.313  28.085  56.054  1.00  0.00     0.146 C 
HETATM   30  C   UNL     1       5.195  29.000  53.436  1.00  0.00     0.148 C 
HETATM   31  N   UNL     1       4.239  29.787  54.214  1.00  0.00    -0.325 N 
HETATM   32  C   UNL     1       3.758  30.957  53.644  1.00  0.00     0.362 C 
HETATM   33  C   UNL     1       3.463  29.058  55.224  1.00  0.00     0.148 C 
HETATM   34  O   UNL     1       4.212  31.449  52.618  1.00  0.00    -0.238 OA
HETATM   35  O   UNL     1       4.922  25.431  56.567  1.00  0.00    -0.267 OA
BRANCH  32  36
HETATM   36  O   UNL     1       2.723  31.488  54.348  1.00  0.00    -0.304 OA
BRANCH  36  37
HETATM   37  C   UNL     1       2.256  32.775  53.919  1.00  0.00     0.176 C 
HETATM   38  C   UNL     1       2.684  33.834  54.918  1.00  0.00     0.034 C 
ENDBRANCH  36  37
ENDBRANCH  32  36
ENDBRANCH   1  26
TORSDOF 7
ENDMDL
MODEL 6
REMARK VINA RESULT:      -9.4      2.552     11.218
REMARK  7 active torsions:
REMARK  status: ('A' for Active; 'I' for Inactive)
REMARK    1  A    between atoms: C_2  and  O_3 
REMARK    2  A    between atoms: O_3  and  C_4 
REMARK       I    between atoms: C_4  and  N_5 
REMARK       I    between atoms: N_8  and  C_9 
REMARK    3  A    between atoms: C_9  and  C_10 
REMARK    4  A    between atoms: C_11  and  N_12 
REMARK       I    between atoms: N_12  and  C_13 
REMARK    5  A    between atoms: C_13  and  C_14 
REMARK    6  A    between atoms: N_16  and  C_17 
REMARK    7  A    between atoms: C_18  and  O_19 
ROOT
HETATM    1  C   UNL     1       7.672  31.828  59.870  1.00  0.00     0.059 A 
HETATM    2  C   UNL     1       7.112  31.958  61.162  1.00  0.00     0.050 A 
HETATM    3  C   UNL     1       7.986  32.078  62.246  1.00  0.00     0.030 A 
HETATM    4  C   UNL     1       9.374  32.064  62.056  1.00  0.00     0.002 A 
HETATM    5  C   UNL     1       9.913  31.900  60.784  1.00  0.00     0.001 A 
HETATM    6  C   UNL     1       9.063  31.766  59.691  1.00  0.00     0.019 A 
ENDROOT
BRANCH   2   7
HETATM    7  N   UNL     1       5.712  31.855  61.309  1.00  0.00    -0.326 N 
HETATM    8  C   UNL     1       4.808  32.326  62.213  1.00  0.00     0.228 C 
HETATM    9  O   UNL     1       3.676  31.836  62.203  1.00  0.00    -0.273 OA
HETATM   10  H   UNL     1       5.263  31.240  60.623  1.00  0.00     0.169 HD
BRANCH   8  11
HETATM   11  C   UNL     1       5.140  33.478  63.135  1.00  0.00     0.105 C 
HETATM   12  C   UNL     1       5.295  34.759  62.319  1.00  0.00     0.147 C 
HETATM   13  N   UNL     1       4.854  35.812  63.201  1.00  0.00    -0.315 N 
HETATM   14  C   UNL     1       4.112  35.305  64.270  1.00  0.00     0.225 C 
HETATM   15  O   UNL     1       3.661  35.889  65.244  1.00  0.00    -0.273 OA
HETATM   16  C   UNL     1       3.996  33.812  64.084  1.00  0.00     0.119 C 
BRANCH  13  17
HETATM   17  C   UNL     1       4.939  37.180  62.821  1.00  0.00     0.071 A 
HETATM   18  C   UNL     1       3.968  37.810  62.015  1.00  0.00     0.095 A 
HETATM   19  C   UNL     1       4.096  39.171  61.705  1.00  0.00     0.039 A 
HETATM   20  C   UNL     1       5.187  39.908  62.170  1.00  0.00     0.009 A 
HETATM   21  C   UNL     1       6.184  39.290  62.925  1.00  0.00    -0.060 A 
HETATM   22  C   UNL     1       7.368  40.066  63.421  1.00  0.00     0.048 C 
HETATM   23  C   UNL     1       6.048  37.932  63.249  1.00  0.00     0.039 A 
BRANCH  18  24
HETATM   24  O   UNL     1       3.019  37.015  61.420  1.00  0.00    -0.354 OA
HETATM   25  C   UNL     1       3.105  36.871  60.009  1.00  0.00     0.210 C 
ENDBRANCH  18  24
ENDBRANCH  13  17
ENDBRANCH   8  11
ENDBRANCH   2   7
BRANCH   1  26
HETATM   26  C   UNL     1       6.791  31.712  58.680  1.00  0.00     0.256 C 
HETATM   27  N   UNL     1       6.821  30.554  57.908  1.00  0.00    -0.345 N 
HETATM   28  C   UNL     1       7.928  29.589  57.858  1.00  0.00     0.146 C 
HETATM   29  C   UNL     1       5.911  30.456  56.764  1.00  0.00     0.146 C 
HETATM   30  C   UNL     1       7.399  28.156  57.745  1.00  0.00     0.148 C 
HETATM   31  N   UNL     1       6.418  28.002  56.671  1.00  0.00    -0.325 N 
HETATM   32  C   UNL     1       6.212  26.726  56.169  1.00  0.00     0.362 C 
HETATM   33  C   UNL     1       5.371  29.029  56.592  1.00  0.00     0.148 C 
HETATM   34  O   UNL     1       6.918  25.764  56.448  1.00  0.00    -0.238 OA
HETATM   35  O   UNL     1       6.061  32.669  58.426  1.00  0.00    -0.267 OA
BRANCH  32  36
HETATM   36  O   UNL     1       5.136  26.663  55.339  1.00  0.00    -0.304 OA
BRANCH  36  37
HETATM   37  C   UNL     1       5.419  26.523  53.940  1.00  0.00     0.176 C 
HETATM   38  C   UNL     1       5.021  25.135  53.473  1.00  0.00     0.034 C 
ENDBRANCH  36  37
ENDBRANCH  32  36
ENDBRANCH   1  26
TORSDOF 7
ENDMDL
MODEL 7
REMARK VINA RESULT:      -9.4      3.790      6.020
REMARK  7 active torsions:
REMARK  status: ('A' for Active; 'I' for Inactive)
REMARK    1  A    between atoms: C_2  and  O_3 
REMARK    2  A    between atoms: O_3  and  C_4 
REMARK       I    between atoms: C_4  and  N_5 
REMARK       I    between atoms: N_8  and  C_9 
REMARK    3  A    between atoms: C_9  and  C_10 
REMARK    4  A    between atoms: C_11  and  N_12 
REMARK       I    between atoms: N_12  and  C_13 
REMARK    5  A    between atoms: C_13  and  C_14 
REMARK    6  A    between atoms: N_16  and  C_17 
REMARK    7  A    between atoms: C_18  and  O_19 
ROOT
HETATM    1  C   UNL     1       3.563  35.059  58.766  1.00  0.00     0.059 A 
HETATM    2  C   UNL     1       3.783  34.303  57.591  1.00  0.00     0.050 A 
HETATM    3  C   UNL     1       4.478  34.910  56.542  1.00  0.00     0.030 A 
HETATM    4  C   UNL     1       4.937  36.229  56.650  1.00  0.00     0.002 A 
HETATM    5  C   UNL     1       4.683  36.975  57.798  1.00  0.00     0.001 A 
HETATM    6  C   UNL     1       3.983  36.396  58.851  1.00  0.00     0.019 A 
ENDROOT
BRANCH   2   7
HETATM    7  N   UNL     1       3.205  33.019  57.491  1.00  0.00    -0.326 N 
HETATM    8  C   UNL     1       3.647  31.801  57.072  1.00  0.00     0.228 C 
HETATM    9  O   UNL     1       2.805  30.923  56.865  1.00  0.00    -0.273 OA
HETATM   10  H   UNL     1       2.208  32.990  57.726  1.00  0.00     0.169 HD
BRANCH   8  11
HETATM   11  C   UNL     1       5.124  31.494  56.957  1.00  0.00     0.105 C 
HETATM   12  C   UNL     1       5.860  32.056  58.171  1.00  0.00     0.147 C 
HETATM   13  N   UNL     1       6.961  31.148  58.386  1.00  0.00    -0.315 N 
HETATM   14  C   UNL     1       6.762  29.938  57.718  1.00  0.00     0.225 C 
HETATM   15  O   UNL     1       7.518  28.984  57.606  1.00  0.00    -0.273 OA
HETATM   16  C   UNL     1       5.416  30.001  57.040  1.00  0.00     0.119 C 
BRANCH  13  17
HETATM   17  C   UNL     1       7.940  31.396  59.388  1.00  0.00     0.071 A 
HETATM   18  C   UNL     1       9.304  31.591  59.090  1.00  0.00     0.095 A 
HETATM   19  C   UNL     1      10.210  31.864  60.124  1.00  0.00     0.039 A 
HETATM   20  C   UNL     1       9.780  31.925  61.451  1.00  0.00     0.009 A 
HETATM   21  C   UNL     1       8.444  31.684  61.770  1.00  0.00    -0.060 A 
HETATM   22  C   UNL     1       7.969  31.734  63.192  1.00  0.00     0.048 C 
HETATM   23  C   UNL     1       7.534  31.426  60.734  1.00  0.00     0.039 A 
BRANCH  18  24
HETATM   24  O   UNL     1       9.721  31.334  57.807  1.00  0.00    -0.354 OA
HETATM   25  C   UNL     1      10.740  30.355  57.655  1.00  0.00     0.210 C 
ENDBRANCH  18  24
ENDBRANCH  13  17
ENDBRANCH   8  11
ENDBRANCH   2   7
BRANCH   1  26
HETATM   26  C   UNL     1       2.844  34.460  59.918  1.00  0.00     0.256 C 
HETATM   27  N   UNL     1       3.546  34.132  61.076  1.00  0.00    -0.345 N 
HETATM   28  C   UNL     1       4.994  33.898  61.160  1.00  0.00     0.146 C 
HETATM   29  C   UNL     1       2.800  33.579  62.209  1.00  0.00     0.146 C 
HETATM   30  C   UNL     1       5.563  34.454  62.468  1.00  0.00     0.148 C 
HETATM   31  N   UNL     1       4.812  34.008  63.642  1.00  0.00    -0.325 N 
HETATM   32  C   UNL     1       5.458  34.047  64.869  1.00  0.00     0.362 C 
HETATM   33  C   UNL     1       3.349  34.087  63.549  1.00  0.00     0.148 C 
HETATM   34  O   UNL     1       6.656  34.266  64.998  1.00  0.00    -0.238 OA
HETATM   35  O   UNL     1       1.635  34.274  59.792  1.00  0.00    -0.267 OA
BRANCH  32  36
HETATM   36  O   UNL     1       4.610  33.823  65.908  1.00  0.00    -0.304 OA
BRANCH  36  37
HETATM   37  C   UNL     1       4.753  34.688  67.043  1.00  0.00     0.176 C 
HETATM   38  C   UNL     1       4.112  36.032  66.749  1.00  0.00     0.034 C 
ENDBRANCH  36  37
ENDBRANCH  32  36
ENDBRANCH   1  26
TORSDOF 7
ENDMDL
MODEL 8
REMARK VINA RESULT:      -9.3      6.461      9.515
REMARK  7 active torsions:
REMARK  status: ('A' for Active; 'I' for Inactive)
REMARK    1  A    between atoms: C_2  and  O_3 
REMARK    2  A    between atoms: O_3  and  C_4 
REMARK       I    between atoms: C_4  and  N_5 
REMARK       I    between atoms: N_8  and  C_9 
REMARK    3  A    between atoms: C_9  and  C_10 
REMARK    4  A    between atoms: C_11  and  N_12 
REMARK       I    between atoms: N_12  and  C_13 
REMARK    5  A    between atoms: C_13  and  C_14 
REMARK    6  A    between atoms: N_16  and  C_17 
REMARK    7  A    between atoms: C_18  and  O_19 
ROOT
HETATM    1  C   UNL     1       3.370  28.112  48.534  1.00  0.00     0.059 A 
HETATM    2  C   UNL     1       4.372  27.262  49.055  1.00  0.00     0.050 A 
HETATM    3  C   UNL     1       4.268  25.892  48.800  1.00  0.00     0.030 A 
HETATM    4  C   UNL     1       3.198  25.379  48.056  1.00  0.00     0.002 A 
HETATM    5  C   UNL     1       2.198  26.221  47.579  1.00  0.00     0.001 A 
HETATM    6  C   UNL     1       2.275  27.587  47.830  1.00  0.00     0.019 A 
ENDROOT
BRANCH   2   7
HETATM    7  N   UNL     1       5.367  27.817  49.890  1.00  0.00    -0.326 N 
HETATM    8  C   UNL     1       5.769  27.598  51.173  1.00  0.00     0.228 C 
HETATM    9  O   UNL     1       6.506  28.439  51.696  1.00  0.00    -0.273 OA
HETATM   10  H   UNL     1       5.872  28.605  49.473  1.00  0.00     0.169 HD
BRANCH   8  11
HETATM   11  C   UNL     1       5.412  26.325  51.907  1.00  0.00     0.105 C 
HETATM   12  C   UNL     1       6.668  25.479  52.105  1.00  0.00     0.147 C 
HETATM   13  N   UNL     1       6.448  24.781  53.349  1.00  0.00    -0.315 N 
HETATM   14  C   UNL     1       5.427  25.375  54.094  1.00  0.00     0.225 C 
HETATM   15  O   UNL     1       4.920  25.006  55.143  1.00  0.00    -0.273 OA
HETATM   16  C   UNL     1       4.947  26.587  53.334  1.00  0.00     0.119 C 
BRANCH  13  17
HETATM   17  C   UNL     1       7.374  23.814  53.829  1.00  0.00     0.071 A 
HETATM   18  C   UNL     1       8.167  24.020  54.977  1.00  0.00     0.095 A 
HETATM   19  C   UNL     1       9.035  23.009  55.413  1.00  0.00     0.039 A 
HETATM   20  C   UNL     1       9.140  21.807  54.711  1.00  0.00     0.009 A 
HETATM   21  C   UNL     1       8.403  21.607  53.545  1.00  0.00    -0.060 A 
HETATM   22  C   UNL     1       8.514  20.325  52.773  1.00  0.00     0.048 C 
HETATM   23  C   UNL     1       7.522  22.611  53.116  1.00  0.00     0.039 A 
BRANCH  18  24
HETATM   24  O   UNL     1       8.180  25.278  55.526  1.00  0.00    -0.354 OA
HETATM   25  C   UNL     1       8.027  25.356  56.937  1.00  0.00     0.210 C 
ENDBRANCH  18  24
ENDBRANCH  13  17
ENDBRANCH   8  11
ENDBRANCH   2   7
BRANCH   1  26
HETATM   26  C   UNL     1       3.439  29.578  48.760  1.00  0.00     0.256 C 
HETATM   27  N   UNL     1       3.214  30.092  50.035  1.00  0.00    -0.345 N 
HETATM   28  C   UNL     1       2.487  29.411  51.115  1.00  0.00     0.146 C 
HETATM   29  C   UNL     1       3.329  31.539  50.232  1.00  0.00     0.146 C 
HETATM   30  C   UNL     1       3.136  29.693  52.473  1.00  0.00     0.148 C 
HETATM   31  N   UNL     1       3.357  31.121  52.704  1.00  0.00    -0.325 N 
HETATM   32  C   UNL     1       3.497  31.543  54.018  1.00  0.00     0.362 C 
HETATM   33  C   UNL     1       3.952  31.876  51.594  1.00  0.00     0.148 C 
HETATM   34  O   UNL     1       3.276  30.829  54.988  1.00  0.00    -0.238 OA
HETATM   35  O   UNL     1       3.694  30.286  47.788  1.00  0.00    -0.267 OA
BRANCH  32  36
HETATM   36  O   UNL     1       3.914  32.835  54.105  1.00  0.00    -0.304 OA
BRANCH  36  37
HETATM   37  C   UNL     1       4.623  33.195  55.299  1.00  0.00     0.176 C 
HETATM   38  C   UNL     1       5.034  34.654  55.231  1.00  0.00     0.034 C 
ENDBRANCH  36  37
ENDBRANCH  32  36
ENDBRANCH   1  26
TORSDOF 7
ENDMDL
MODEL 9
REMARK VINA RESULT:      -9.2      3.212      3.936
REMARK  7 active torsions:
REMARK  status: ('A' for Active; 'I' for Inactive)
REMARK    1  A    between atoms: C_2  and  O_3 
REMARK    2  A    between atoms: O_3  and  C_4 
REMARK       I    between atoms: C_4  and  N_5 
REMARK       I    between atoms: N_8  and  C_9 
REMARK    3  A    between atoms: C_9  and  C_10 
REMARK    4  A    between atoms: C_11  and  N_12 
REMARK       I    between atoms: N_12  and  C_13 
REMARK    5  A    between atoms: C_13  and  C_14 
REMARK    6  A    between atoms: N_16  and  C_17 
REMARK    7  A    between atoms: C_18  and  O_19 
ROOT
HETATM    1  C   UNL     1       6.069  32.690  62.091  1.00  0.00     0.059 A 
HETATM    2  C   UNL     1       6.825  32.123  61.039  1.00  0.00     0.050 A 
HETATM    3  C   UNL     1       8.153  31.777  61.298  1.00  0.00     0.030 A 
HETATM    4  C   UNL     1       8.719  31.992  62.562  1.00  0.00     0.002 A 
HETATM    5  C   UNL     1       7.976  32.583  63.579  1.00  0.00     0.001 A 
HETATM    6  C   UNL     1       6.655  32.947  63.341  1.00  0.00     0.019 A 
ENDROOT
BRANCH   2   7
HETATM    7  N   UNL     1       6.241  32.031  59.756  1.00  0.00    -0.326 N 
HETATM    8  C   UNL     1       6.554  31.366  58.609  1.00  0.00     0.228 C 
HETATM    9  O   UNL     1       5.976  31.705  57.573  1.00  0.00    -0.273 OA
HETATM   10  H   UNL     1       5.430  32.642  59.620  1.00  0.00     0.169 HD
BRANCH   8  11
HETATM   11  C   UNL     1       7.502  30.189  58.611  1.00  0.00     0.105 C 
HETATM   12  C   UNL     1       6.903  29.047  57.793  1.00  0.00     0.147 C 
HETATM   13  N   UNL     1       8.040  28.366  57.224  1.00  0.00    -0.315 N 
HETATM   14  C   UNL     1       9.188  29.158  57.278  1.00  0.00     0.225 C 
HETATM   15  O   UNL     1      10.338  28.876  56.972  1.00  0.00    -0.273 OA
HETATM   16  C   UNL     1       8.804  30.487  57.879  1.00  0.00     0.119 C 
BRANCH  13  17
HETATM   17  C   UNL     1       7.885  27.175  56.462  1.00  0.00     0.071 A 
HETATM   18  C   UNL     1       7.452  27.180  55.119  1.00  0.00     0.095 A 
HETATM   19  C   UNL     1       7.353  25.972  54.416  1.00  0.00     0.039 A 
HETATM   20  C   UNL     1       7.657  24.759  55.036  1.00  0.00     0.009 A 
HETATM   21  C   UNL     1       8.036  24.730  56.377  1.00  0.00    -0.060 A 
HETATM   22  C   UNL     1       8.355  23.433  57.060  1.00  0.00     0.048 C 
HETATM   23  C   UNL     1       8.151  25.940  57.078  1.00  0.00     0.039 A 
BRANCH  18  24
HETATM   24  O   UNL     1       6.980  28.362  54.605  1.00  0.00    -0.354 OA
HETATM   25  C   UNL     1       5.623  28.374  54.183  1.00  0.00     0.210 C 
ENDBRANCH  18  24
ENDBRANCH  13  17
ENDBRANCH   8  11
ENDBRANCH   2   7
BRANCH   1  26
HETATM   26  C   UNL     1       4.648  33.062  61.876  1.00  0.00     0.256 C 
HETATM   27  N   UNL     1       4.280  34.405  61.857  1.00  0.00    -0.345 N 
HETATM   28  C   UNL     1       5.044  35.508  62.455  1.00  0.00     0.146 C 
HETATM   29  C   UNL     1       2.876  34.739  61.603  1.00  0.00     0.146 C 
HETATM   30  C   UNL     1       4.966  36.764  61.581  1.00  0.00     0.148 C 
HETATM   31  N   UNL     1       3.592  37.111  61.218  1.00  0.00    -0.325 N 
HETATM   32  C   UNL     1       3.341  38.422  60.841  1.00  0.00     0.362 C 
HETATM   33  C   UNL     1       2.743  36.008  60.750  1.00  0.00     0.148 C 
HETATM   34  O   UNL     1       4.154  39.331  60.960  1.00  0.00    -0.238 OA
HETATM   35  O   UNL     1       3.843  32.145  61.724  1.00  0.00    -0.267 OA
BRANCH  32  36
HETATM   36  O   UNL     1       2.096  38.581  60.319  1.00  0.00    -0.304 OA
BRANCH  36  37
HETATM   37  C   UNL     1       1.994  39.422  59.162  1.00  0.00     0.176 C 
HETATM   38  C   UNL     1       1.204  40.672  59.504  1.00  0.00     0.034 C 
ENDBRANCH  36  37
ENDBRANCH  32  36
ENDBRANCH   1  26
TORSDOF 7
ENDMDL
MODEL 10
REMARK VINA RESULT:      -9.2      7.883     11.886
REMARK  7 active torsions:
REMARK  status: ('A' for Active; 'I' for Inactive)
REMARK    1  A    between atoms: C_2  and  O_3 
REMARK    2  A    between atoms: O_3  and  C_4 
REMARK       I    between atoms: C_4  and  N_5 
REMARK       I    between atoms: N_8  and  C_9 
REMARK    3  A    between atoms: C_9  and  C_10 
REMARK    4  A    between atoms: C_11  and  N_12 
REMARK       I    between atoms: N_12  and  C_13 
REMARK    5  A    between atoms: C_13  and  C_14 
REMARK    6  A    between atoms: N_16  and  C_17 
REMARK    7  A    between atoms: C_18  and  O_19 
ROOT
HETATM    1  C   UNL     1       3.302  28.173  49.019  1.00  0.00     0.059 A 
HETATM    2  C   UNL     1       4.398  27.411  49.487  1.00  0.00     0.050 A 
HETATM    3  C   UNL     1       4.457  26.061  49.131  1.00  0.00     0.030 A 
HETATM    4  C   UNL     1       3.458  25.481  48.339  1.00  0.00     0.002 A 
HETATM    5  C   UNL     1       2.365  26.232  47.915  1.00  0.00     0.001 A 
HETATM    6  C   UNL     1       2.279  27.575  48.267  1.00  0.00     0.019 A 
ENDROOT
BRANCH   2   7
HETATM    7  N   UNL     1       5.318  28.015  50.371  1.00  0.00    -0.326 N 
HETATM    8  C   UNL     1       5.656  27.824  51.677  1.00  0.00     0.228 C 
HETATM    9  O   UNL     1       6.324  28.701  52.232  1.00  0.00    -0.273 OA
HETATM   10  H   UNL     1       5.810  28.822  49.976  1.00  0.00     0.169 HD
BRANCH   8  11
HETATM   11  C   UNL     1       5.315  26.541  52.402  1.00  0.00     0.105 C 
HETATM   12  C   UNL     1       6.558  25.657  52.488  1.00  0.00     0.147 C 
HETATM   13  N   UNL     1       6.406  24.931  53.726  1.00  0.00    -0.315 N 
HETATM   14  C   UNL     1       5.457  25.531  54.556  1.00  0.00     0.225 C 
HETATM   15  O   UNL     1       5.014  25.146  55.629  1.00  0.00    -0.273 OA
HETATM   16  C   UNL     1       4.960  26.776  53.864  1.00  0.00     0.119 C 
BRANCH  13  17
HETATM   17  C   UNL     1       7.335  23.926  54.114  1.00  0.00     0.071 A 
HETATM   18  C   UNL     1       8.175  24.057  55.239  1.00  0.00     0.095 A 
HETATM   19  C   UNL     1       9.045  23.013  55.584  1.00  0.00     0.039 A 
HETATM   20  C   UNL     1       9.105  21.851  54.812  1.00  0.00     0.009 A 
HETATM   21  C   UNL     1       8.320  21.726  53.666  1.00  0.00    -0.060 A 
HETATM   22  C   UNL     1       8.381  20.488  52.821  1.00  0.00     0.048 C 
HETATM   23  C   UNL     1       7.437  22.763  53.330  1.00  0.00     0.039 A 
BRANCH  18  24
HETATM   24  O   UNL     1       8.228  25.282  55.857  1.00  0.00    -0.354 OA
HETATM   25  C   UNL     1       8.174  25.280  57.277  1.00  0.00     0.210 C 
ENDBRANCH  18  24
ENDBRANCH  13  17
ENDBRANCH   8  11
ENDBRANCH   2   7
BRANCH   1  26
HETATM   26  C   UNL     1       3.196  29.615  49.354  1.00  0.00     0.256 C 
HETATM   27  N   UNL     1       3.674  30.570  48.460  1.00  0.00    -0.345 N 
HETATM   28  C   UNL     1       4.670  30.330  47.407  1.00  0.00     0.146 C 
HETATM   29  C   UNL     1       3.517  31.985  48.802  1.00  0.00     0.146 C 
HETATM   30  C   UNL     1       4.333  31.129  46.144  1.00  0.00     0.148 C 
HETATM   31  N   UNL     1       4.082  32.543  46.424  1.00  0.00    -0.325 N 
HETATM   32  C   UNL     1       4.221  33.438  45.374  1.00  0.00     0.362 C 
HETATM   33  C   UNL     1       3.203  32.836  47.563  1.00  0.00     0.148 C 
HETATM   34  O   UNL     1       4.702  33.141  44.287  1.00  0.00    -0.238 OA
HETATM   35  O   UNL     1       2.681  29.906  50.433  1.00  0.00    -0.267 OA
BRANCH  32  36
HETATM   36  O   UNL     1       3.755  34.677  45.685  1.00  0.00    -0.304 OA
BRANCH  36  37
HETATM   37  C   UNL     1       4.731  35.727  45.741  1.00  0.00     0.176 C 
HETATM   38  C   UNL     1       5.043  36.061  47.187  1.00  0.00     0.034 C 
ENDBRANCH  36  37
ENDBRANCH  32  36
ENDBRANCH   1  26
TORSDOF 7
ENDMDL
