MODEL 1
REMARK VINA RESULT:      -8.9      0.000      0.000
REMARK  6 active torsions:
REMARK  status: ('A' for Active; 'I' for Inactive)
REMARK    1  A    between atoms: C_2  and  N_3 
REMARK    2  A    between atoms: C_2  and  C_21 
REMARK       I    between atoms: N_3  and  C_4 
REMARK       I    between atoms: C_4  and  N_5 
REMARK    3  A    between atoms: N_5  and  C_6 
REMARK    4  A    between atoms: C_9  and  O_10 
REMARK    5  A    between atoms: O_10  and  C_11 
REMARK    6  A    between atoms: C_11  and  C_12 
ROOT
HETATM    1  C   UNL     1       7.877  27.947  55.996  1.00  0.00     0.036 A 
HETATM    2  C   UNL     1       7.905  28.129  54.612  1.00  0.00     0.032 A 
HETATM    3  C   UNL     1       7.563  27.082  53.745  1.00  0.00     0.039 A 
HETATM    4  C   UNL     1       7.177  25.845  54.255  1.00  0.00     0.068 A 
HETATM    5  C   UNL     1       7.186  25.645  55.635  1.00  0.00     0.039 A 
HETATM    6  C   UNL     1       7.531  26.688  56.500  1.00  0.00     0.032 A 
ENDROOT
BRANCH   1   7
HETATM    7  N   UNL     1       8.149  28.965  56.934  1.00  0.00    -0.309 N 
HETATM    8  C   UNL     1       7.319  29.974  57.338  1.00  0.00     0.321 C 
HETATM    9  N   UNL     1       7.766  30.731  58.374  1.00  0.00    -0.332 N 
HETATM   10  O   UNL     1       6.217  30.243  56.870  1.00  0.00    -0.247 OA
HETATM   11  H   UNL     1       7.111  31.455  58.653  1.00  0.00     0.165 HD
HETATM   12  H   UNL     1       9.065  28.939  57.344  1.00  0.00     0.170 HD
BRANCH   9  13
HETATM   13  C   UNL     1       8.988  30.652  59.168  1.00  0.00     0.155 C 
HETATM   14  C   UNL     1       9.957  31.761  58.769  1.00  0.00     0.041 C 
BRANCH  13  15
HETATM   15  C   UNL     1       8.620  30.741  60.623  1.00  0.00     0.169 A 
HETATM   16  N   UNL     1       9.281  30.083  61.587  1.00  0.00    -0.156 NA
HETATM   17  N   UNL     1       8.579  30.432  62.679  1.00  0.00    -0.270 N 
HETATM   18  H   UNL     1       8.853  30.066  63.585  1.00  0.00     0.190 HD
HETATM   19  C   UNL     1       7.556  31.267  62.363  1.00  0.00     0.227 A 
HETATM   20  N   UNL     1       7.552  31.488  61.070  1.00  0.00    -0.223 NA
ENDBRANCH  13  15
ENDBRANCH   9  13
ENDBRANCH   1   7
BRANCH   4  21
HETATM   21  O   UNL     1       6.782  24.766  53.514  1.00  0.00    -0.351 OA
BRANCH  21  22
HETATM   22  C   UNL     1       6.933  23.485  54.132  1.00  0.00     0.180 C 
BRANCH  22  23
HETATM   23  C   UNL     1       8.338  22.941  53.814  1.00  0.00     0.010 C 
HETATM   24  C   UNL     1       9.153  22.644  55.087  1.00  0.00     0.007 C 
HETATM   25  C   UNL     1       8.647  21.415  55.843  1.00  0.00     0.000 C 
HETATM   26  C   UNL     1       8.572  20.189  54.938  1.00  0.00     0.000 C 
HETATM   27  C   UNL     1       7.761  20.456  53.673  1.00  0.00     0.000 C 
HETATM   28  C   UNL     1       8.266  21.690  52.925  1.00  0.00     0.007 C 
ENDBRANCH  22  23
ENDBRANCH  21  22
ENDBRANCH   4  21
TORSDOF 6
ENDMDL
MODEL 2
REMARK VINA RESULT:      -8.7      1.991      3.253
REMARK  6 active torsions:
REMARK  status: ('A' for Active; 'I' for Inactive)
REMARK    1  A    between atoms: C_2  and  N_3 
REMARK    2  A    between atoms: C_2  and  C_21 
REMARK       I    between atoms: N_3  and  C_4 
REMARK       I    between atoms: C_4  and  N_5 
REMARK    3  A    between atoms: N_5  and  C_6 
REMARK    4  A    between atoms: C_9  and  O_10 
REMARK    5  A    between atoms: O_10  and  C_11 
REMARK    6  A    between atoms: C_11  and  C_12 
ROOT
HETATM    1  C   UNL     1       7.296  29.453  58.200  1.00  0.00     0.036 A 
HETATM    2  C   UNL     1       6.111  29.075  57.568  1.00  0.00     0.032 A 
HETATM    3  C   UNL     1       6.127  28.165  56.501  1.00  0.00     0.039 A 
HETATM    4  C   UNL     1       7.329  27.613  56.066  1.00  0.00     0.068 A 
HETATM    5  C   UNL     1       8.521  28.018  56.667  1.00  0.00     0.039 A 
HETATM    6  C   UNL     1       8.505  28.930  57.728  1.00  0.00     0.032 A 
ENDROOT
BRANCH   1   7
HETATM    7  N   UNL     1       7.358  30.316  59.314  1.00  0.00    -0.309 N 
HETATM    8  C   UNL     1       6.995  31.633  59.375  1.00  0.00     0.321 C 
HETATM    9  N   UNL     1       7.002  32.195  60.612  1.00  0.00    -0.332 N 
HETATM   10  O   UNL     1       6.650  32.337  58.431  1.00  0.00    -0.247 OA
HETATM   11  H   UNL     1       6.707  33.167  60.613  1.00  0.00     0.165 HD
HETATM   12  H   UNL     1       7.717  29.905  60.158  1.00  0.00     0.170 HD
BRANCH   9  13
HETATM   13  C   UNL     1       7.314  31.634  61.923  1.00  0.00     0.155 C 
HETATM   14  C   UNL     1       8.757  31.947  62.308  1.00  0.00     0.041 C 
BRANCH  13  15
HETATM   15  C   UNL     1       6.344  32.194  62.926  1.00  0.00     0.169 A 
HETATM   16  N   UNL     1       5.048  31.853  62.959  1.00  0.00    -0.156 NA
HETATM   17  N   UNL     1       4.594  32.620  63.966  1.00  0.00    -0.270 N 
HETATM   18  H   UNL     1       3.614  32.579  64.221  1.00  0.00     0.190 HD
HETATM   19  C   UNL     1       5.591  33.371  64.501  1.00  0.00     0.227 A 
HETATM   20  N   UNL     1       6.714  33.125  63.871  1.00  0.00    -0.223 NA
ENDBRANCH  13  15
ENDBRANCH   9  13
ENDBRANCH   1   7
BRANCH   4  21
HETATM   21  O   UNL     1       7.467  26.688  55.069  1.00  0.00    -0.351 OA
BRANCH  21  22
HETATM   22  C   UNL     1       7.891  25.383  55.473  1.00  0.00     0.180 C 
BRANCH  22  23
HETATM   23  C   UNL     1       6.827  24.357  55.041  1.00  0.00     0.010 C 
HETATM   24  C   UNL     1       6.441  24.504  53.557  1.00  0.00     0.007 C 
HETATM   25  C   UNL     1       7.544  24.037  52.607  1.00  0.00     0.000 C 
HETATM   26  C   UNL     1       7.991  22.613  52.921  1.00  0.00     0.000 C 
HETATM   27  C   UNL     1       8.388  22.444  54.384  1.00  0.00     0.000 C 
HETATM   28  C   UNL     1       7.285  22.920  55.330  1.00  0.00     0.007 C 
ENDBRANCH  22  23
ENDBRANCH  21  22
ENDBRANCH   4  21
TORSDOF 6
ENDMDL
MODEL 3
REMARK VINA RESULT:      -8.6      1.565      2.014
REMARK  6 active torsions:
REMARK  status: ('A' for Active; 'I' for Inactive)
REMARK    1  A    between atoms: C_2  and  N_3 
REMARK    2  A    between atoms: C_2  and  C_21 
REMARK       I    between atoms: N_3  and  C_4 
REMARK       I    between atoms: C_4  and  N_5 
REMARK    3  A    between atoms: N_5  and  C_6 
REMARK    4  A    between atoms: C_9  and  O_10 
REMARK    5  A    between atoms: O_10  and  C_11 
REMARK    6  A    between atoms: C_11  and  C_12 
ROOT
HETATM    1  C   UNL     1       7.995  27.927  56.979  1.00  0.00     0.036 A 
HETATM    2  C   UNL     1       7.644  28.233  55.664  1.00  0.00     0.032 A 
HETATM    3  C   UNL     1       7.221  27.227  54.783  1.00  0.00     0.039 A 
HETATM    4  C   UNL     1       7.132  25.907  55.215  1.00  0.00     0.068 A 
HETATM    5  C   UNL     1       7.520  25.589  56.516  1.00  0.00     0.039 A 
HETATM    6  C   UNL     1       7.946  26.591  57.393  1.00  0.00     0.032 A 
ENDROOT
BRANCH   1   7
HETATM    7  N   UNL     1       8.374  28.887  57.941  1.00  0.00    -0.309 N 
HETATM    8  C   UNL     1       9.302  29.883  57.810  1.00  0.00     0.321 C 
HETATM    9  N   UNL     1       9.364  30.775  58.832  1.00  0.00    -0.332 N 
HETATM   10  O   UNL     1      10.060  30.051  56.860  1.00  0.00    -0.247 OA
HETATM   11  H   UNL     1      10.052  31.507  58.685  1.00  0.00     0.165 HD
HETATM   12  H   UNL     1       7.902  28.820  58.826  1.00  0.00     0.170 HD
BRANCH   9  13
HETATM   13  C   UNL     1       8.590  30.883  60.066  1.00  0.00     0.155 C 
HETATM   14  C   UNL     1       9.415  31.558  61.157  1.00  0.00     0.041 C 
BRANCH  13  15
HETATM   15  C   UNL     1       7.331  31.650  59.774  1.00  0.00     0.169 A 
HETATM   16  N   UNL     1       6.910  31.921  58.530  1.00  0.00    -0.156 NA
HETATM   17  N   UNL     1       5.801  32.641  58.772  1.00  0.00    -0.270 N 
HETATM   18  H   UNL     1       5.260  33.001  57.993  1.00  0.00     0.190 HD
HETATM   19  C   UNL     1       5.582  32.775  60.106  1.00  0.00     0.227 A 
HETATM   20  N   UNL     1       6.527  32.158  60.772  1.00  0.00    -0.223 NA
ENDBRANCH  13  15
ENDBRANCH   9  13
ENDBRANCH   1   7
BRANCH   4  21
HETATM   21  O   UNL     1       6.694  24.851  54.465  1.00  0.00    -0.351 OA
BRANCH  21  22
HETATM   22  C   UNL     1       7.074  23.550  54.922  1.00  0.00     0.180 C 
BRANCH  22  23
HETATM   23  C   UNL     1       8.392  23.147  54.236  1.00  0.00     0.010 C 
HETATM   24  C   UNL     1       9.371  22.459  55.206  1.00  0.00     0.007 C 
HETATM   25  C   UNL     1       8.928  21.049  55.596  1.00  0.00     0.000 C 
HETATM   26  C   UNL     1       8.668  20.181  54.368  1.00  0.00     0.000 C 
HETATM   27  C   UNL     1       7.693  20.838  53.396  1.00  0.00     0.000 C 
HETATM   28  C   UNL     1       8.136  22.250  53.015  1.00  0.00     0.007 C 
ENDBRANCH  22  23
ENDBRANCH  21  22
ENDBRANCH   4  21
TORSDOF 6
ENDMDL
MODEL 4
REMARK VINA RESULT:      -8.6      6.032      8.893
REMARK  6 active torsions:
REMARK  status: ('A' for Active; 'I' for Inactive)
REMARK    1  A    between atoms: C_2  and  N_3 
REMARK    2  A    between atoms: C_2  and  C_21 
REMARK       I    between atoms: N_3  and  C_4 
REMARK       I    between atoms: C_4  and  N_5 
REMARK    3  A    between atoms: N_5  and  C_6 
REMARK    4  A    between atoms: C_9  and  O_10 
REMARK    5  A    between atoms: O_10  and  C_11 
REMARK    6  A    between atoms: C_11  and  C_12 
ROOT
HETATM    1  C   UNL     1       5.139  26.822  52.090  1.00  0.00     0.036 A 
HETATM    2  C   UNL     1       6.111  25.872  51.775  1.00  0.00     0.032 A 
HETATM    3  C   UNL     1       6.878  25.271  52.784  1.00  0.00     0.039 A 
HETATM    4  C   UNL     1       6.669  25.605  54.119  1.00  0.00     0.068 A 
HETATM    5  C   UNL     1       5.726  26.583  54.437  1.00  0.00     0.039 A 
HETATM    6  C   UNL     1       4.964  27.185  53.430  1.00  0.00     0.032 A 
ENDROOT
BRANCH   1   7
HETATM    7  N   UNL     1       4.288  27.427  51.142  1.00  0.00    -0.309 N 
HETATM    8  C   UNL     1       4.587  28.444  50.277  1.00  0.00     0.321 C 
HETATM    9  N   UNL     1       3.635  28.737  49.353  1.00  0.00    -0.332 N 
HETATM   10  O   UNL     1       5.628  29.092  50.248  1.00  0.00    -0.247 OA
HETATM   11  H   UNL     1       3.906  29.483  48.720  1.00  0.00     0.165 HD
HETATM   12  H   UNL     1       3.351  27.064  51.109  1.00  0.00     0.170 HD
BRANCH   9  13
HETATM   13  C   UNL     1       2.328  28.140  49.093  1.00  0.00     0.155 C 
HETATM   14  C   UNL     1       1.366  29.184  48.535  1.00  0.00     0.041 C 
BRANCH  13  15
HETATM   15  C   UNL     1       2.508  26.993  48.139  1.00  0.00     0.169 A 
HETATM   16  N   UNL     1       2.000  26.986  46.898  1.00  0.00    -0.156 NA
HETATM   17  N   UNL     1       2.374  25.772  46.461  1.00  0.00    -0.270 N 
HETATM   18  H   UNL     1       2.115  25.476  45.526  1.00  0.00     0.190 HD
HETATM   19  C   UNL     1       3.081  25.103  47.408  1.00  0.00     0.227 A 
HETATM   20  N   UNL     1       3.189  25.845  48.483  1.00  0.00    -0.223 NA
ENDBRANCH  13  15
ENDBRANCH   9  13
ENDBRANCH   1   7
BRANCH   4  21
HETATM   21  O   UNL     1       7.321  25.058  55.189  1.00  0.00    -0.351 OA
BRANCH  21  22
HETATM   22  C   UNL     1       7.131  23.655  55.394  1.00  0.00     0.180 C 
BRANCH  22  23
HETATM   23  C   UNL     1       8.506  22.963  55.406  1.00  0.00     0.010 C 
HETATM   24  C   UNL     1       8.541  21.746  56.350  1.00  0.00     0.007 C 
HETATM   25  C   UNL     1       7.742  20.557  55.817  1.00  0.00     0.000 C 
HETATM   26  C   UNL     1       8.178  20.172  54.407  1.00  0.00     0.000 C 
HETATM   27  C   UNL     1       8.143  21.360  53.450  1.00  0.00     0.000 C 
HETATM   28  C   UNL     1       8.937  22.549  53.991  1.00  0.00     0.007 C 
ENDBRANCH  22  23
ENDBRANCH  21  22
ENDBRANCH   4  21
TORSDOF 6
ENDMDL
MODEL 5
REMARK VINA RESULT:      -8.5      2.112      3.884
REMARK  6 active torsions:
REMARK  status: ('A' for Active; 'I' for Inactive)
REMARK    1  A    between atoms: C_2  and  N_3 
REMARK    2  A    between atoms: C_2  and  C_21 
REMARK       I    between atoms: N_3  and  C_4 
REMARK       I    between atoms: C_4  and  N_5 
REMARK    3  A    between atoms: N_5  and  C_6 
REMARK    4  A    between atoms: C_9  and  O_10 
REMARK    5  A    between atoms: O_10  and  C_11 
REMARK    6  A    between atoms: C_11  and  C_12 
ROOT
HETATM    1  C   UNL     1       7.485  29.895  58.380  1.00  0.00     0.036 A 
HETATM    2  C   UNL     1       8.441  29.029  57.849  1.00  0.00     0.032 A 
HETATM    3  C   UNL     1       8.260  28.453  56.583  1.00  0.00     0.039 A 
HETATM    4  C   UNL     1       7.126  28.749  55.832  1.00  0.00     0.068 A 
HETATM    5  C   UNL     1       6.148  29.581  56.375  1.00  0.00     0.039 A 
HETATM    6  C   UNL     1       6.326  30.153  57.639  1.00  0.00     0.032 A 
ENDROOT
BRANCH   1   7
HETATM    7  N   UNL     1       7.620  30.560  59.617  1.00  0.00    -0.309 N 
HETATM    8  C   UNL     1       8.206  31.772  59.857  1.00  0.00     0.321 C 
HETATM    9  N   UNL     1       8.063  32.263  61.116  1.00  0.00    -0.332 N 
HETATM   10  O   UNL     1       8.823  32.455  59.046  1.00  0.00    -0.247 OA
HETATM   11  H   UNL     1       8.495  33.172  61.243  1.00  0.00     0.165 HD
HETATM   12  H   UNL     1       7.242  30.074  60.412  1.00  0.00     0.170 HD
BRANCH   9  13
HETATM   13  C   UNL     1       7.365  31.732  62.283  1.00  0.00     0.155 C 
HETATM   14  C   UNL     1       7.908  32.362  63.562  1.00  0.00     0.041 C 
BRANCH  13  15
HETATM   15  C   UNL     1       5.894  31.995  62.122  1.00  0.00     0.169 A 
HETATM   16  N   UNL     1       4.986  31.674  63.056  1.00  0.00    -0.156 NA
HETATM   17  N   UNL     1       3.843  32.051  62.460  1.00  0.00    -0.270 N 
HETATM   18  H   UNL     1       2.961  31.918  62.942  1.00  0.00     0.190 HD
HETATM   19  C   UNL     1       4.078  32.580  61.231  1.00  0.00     0.227 A 
HETATM   20  N   UNL     1       5.365  32.564  60.984  1.00  0.00    -0.223 NA
ENDBRANCH  13  15
ENDBRANCH   9  13
ENDBRANCH   1   7
BRANCH   4  21
HETATM   21  O   UNL     1       6.860  28.284  54.574  1.00  0.00    -0.351 OA
BRANCH  21  22
HETATM   22  C   UNL     1       7.516  27.070  54.197  1.00  0.00     0.180 C 
BRANCH  22  23
HETATM   23  C   UNL     1       6.457  26.057  53.726  1.00  0.00     0.010 C 
HETATM   24  C   UNL     1       6.635  25.669  52.246  1.00  0.00     0.007 C 
HETATM   25  C   UNL     1       7.856  24.782  52.007  1.00  0.00     0.000 C 
HETATM   26  C   UNL     1       7.838  23.546  52.902  1.00  0.00     0.000 C 
HETATM   27  C   UNL     1       7.671  23.905  54.375  1.00  0.00     0.000 C 
HETATM   28  C   UNL     1       6.453  24.799  54.607  1.00  0.00     0.007 C 
ENDBRANCH  22  23
ENDBRANCH  21  22
ENDBRANCH   4  21
TORSDOF 6
ENDMDL
MODEL 6
REMARK VINA RESULT:      -8.0      6.613      9.316
REMARK  6 active torsions:
REMARK  status: ('A' for Active; 'I' for Inactive)
REMARK    1  A    between atoms: C_2  and  N_3 
REMARK    2  A    between atoms: C_2  and  C_21 
REMARK       I    between atoms: N_3  and  C_4 
REMARK       I    between atoms: C_4  and  N_5 
REMARK    3  A    between atoms: N_5  and  C_6 
REMARK    4  A    between atoms: C_9  and  O_10 
REMARK    5  A    between atoms: O_10  and  C_11 
REMARK    6  A    between atoms: C_11  and  C_12 
ROOT
HETATM    1  C   UNL     1       5.400  25.859  51.693  1.00  0.00     0.036 A 
HETATM    2  C   UNL     1       4.790  25.551  52.909  1.00  0.00     0.032 A 
HETATM    3  C   UNL     1       5.552  25.111  54.001  1.00  0.00     0.039 A 
HETATM    4  C   UNL     1       6.934  24.988  53.890  1.00  0.00     0.068 A 
HETATM    5  C   UNL     1       7.545  25.256  52.665  1.00  0.00     0.039 A 
HETATM    6  C   UNL     1       6.784  25.690  51.574  1.00  0.00     0.032 A 
ENDROOT
BRANCH   1   7
HETATM    7  N   UNL     1       4.713  26.362  50.568  1.00  0.00    -0.309 N 
HETATM    8  C   UNL     1       4.403  27.665  50.290  1.00  0.00     0.321 C 
HETATM    9  N   UNL     1       3.876  27.901  49.060  1.00  0.00    -0.332 N 
HETATM   10  O   UNL     1       4.572  28.627  51.031  1.00  0.00    -0.247 OA
HETATM   11  H   UNL     1       3.680  28.882  48.889  1.00  0.00     0.165 HD
HETATM   12  H   UNL     1       4.416  25.672  49.900  1.00  0.00     0.170 HD
BRANCH   9  13
HETATM   13  C   UNL     1       3.591  27.002  47.945  1.00  0.00     0.155 C 
HETATM   14  C   UNL     1       3.372  25.579  48.450  1.00  0.00     0.041 C 
BRANCH  13  15
HETATM   15  C   UNL     1       2.384  27.517  47.212  1.00  0.00     0.169 A 
HETATM   16  N   UNL     1       2.210  28.812  46.909  1.00  0.00    -0.156 NA
HETATM   17  N   UNL     1       1.005  28.788  46.313  1.00  0.00    -0.270 N 
HETATM   18  H   UNL     1       0.599  29.654  45.975  1.00  0.00     0.190 HD
HETATM   19  C   UNL     1       0.504  27.527  46.264  1.00  0.00     0.227 A 
HETATM   20  N   UNL     1       1.351  26.695  46.820  1.00  0.00    -0.223 NA
ENDBRANCH  13  15
ENDBRANCH   9  13
ENDBRANCH   1   7
BRANCH   4  21
HETATM   21  O   UNL     1       7.784  24.612  54.892  1.00  0.00    -0.351 OA
BRANCH  21  22
HETATM   22  C   UNL     1       8.514  23.401  54.680  1.00  0.00     0.180 C 
BRANCH  22  23
HETATM   23  C   UNL     1       7.523  22.223  54.635  1.00  0.00     0.010 C 
HETATM   24  C   UNL     1       7.611  21.435  53.315  1.00  0.00     0.007 C 
HETATM   25  C   UNL     1       8.889  20.604  53.203  1.00  0.00     0.000 C 
HETATM   26  C   UNL     1       9.070  19.684  54.407  1.00  0.00     0.000 C 
HETATM   27  C   UNL     1       8.996  20.444  55.727  1.00  0.00     0.000 C 
HETATM   28  C   UNL     1       7.720  21.280  55.831  1.00  0.00     0.007 C 
ENDBRANCH  22  23
ENDBRANCH  21  22
ENDBRANCH   4  21
TORSDOF 6
ENDMDL
MODEL 7
REMARK VINA RESULT:      -7.9      2.960      9.717
REMARK  6 active torsions:
REMARK  status: ('A' for Active; 'I' for Inactive)
REMARK    1  A    between atoms: C_2  and  N_3 
REMARK    2  A    between atoms: C_2  and  C_21 
REMARK       I    between atoms: N_3  and  C_4 
REMARK       I    between atoms: C_4  and  N_5 
REMARK    3  A    between atoms: N_5  and  C_6 
REMARK    4  A    between atoms: C_9  and  O_10 
REMARK    5  A    between atoms: O_10  and  C_11 
REMARK    6  A    between atoms: C_11  and  C_12 
ROOT
HETATM    1  C   UNL     1       7.009  29.137  57.220  1.00  0.00     0.036 A 
HETATM    2  C   UNL     1       6.172  30.250  57.308  1.00  0.00     0.032 A 
HETATM    3  C   UNL     1       6.420  31.259  58.250  1.00  0.00     0.039 A 
HETATM    4  C   UNL     1       7.516  31.170  59.104  1.00  0.00     0.068 A 
HETATM    5  C   UNL     1       8.331  30.040  59.048  1.00  0.00     0.039 A 
HETATM    6  C   UNL     1       8.082  29.032  58.112  1.00  0.00     0.032 A 
ENDROOT
BRANCH   1   7
HETATM    7  N   UNL     1       6.862  28.111  56.263  1.00  0.00    -0.309 N 
HETATM    8  C   UNL     1       7.607  27.906  55.135  1.00  0.00     0.321 C 
HETATM    9  N   UNL     1       7.363  26.750  54.464  1.00  0.00    -0.332 N 
HETATM   10  O   UNL     1       8.476  28.650  54.690  1.00  0.00    -0.247 OA
HETATM   11  H   UNL     1       7.952  26.629  53.645  1.00  0.00     0.165 HD
HETATM   12  H   UNL     1       6.115  27.462  56.438  1.00  0.00     0.170 HD
BRANCH   9  13
HETATM   13  C   UNL     1       6.444  25.650  54.742  1.00  0.00     0.155 C 
HETATM   14  C   UNL     1       5.195  25.765  53.875  1.00  0.00     0.041 C 
BRANCH  13  15
HETATM   15  C   UNL     1       7.164  24.352  54.499  1.00  0.00     0.169 A 
HETATM   16  N   UNL     1       7.143  23.330  55.367  1.00  0.00    -0.156 NA
HETATM   17  N   UNL     1       7.939  22.439  54.752  1.00  0.00    -0.270 N 
HETATM   18  H   UNL     1       8.120  21.543  55.193  1.00  0.00     0.190 HD
HETATM   19  C   UNL     1       8.398  22.922  53.568  1.00  0.00     0.227 A 
HETATM   20  N   UNL     1       7.925  24.129  53.373  1.00  0.00    -0.223 NA
ENDBRANCH  13  15
ENDBRANCH   9  13
ENDBRANCH   1   7
BRANCH   4  21
HETATM   21  O   UNL     1       7.882  32.106  60.030  1.00  0.00    -0.351 OA
BRANCH  21  22
HETATM   22  C   UNL     1       6.855  32.548  60.923  1.00  0.00     0.180 C 
BRANCH  22  23
HETATM   23  C   UNL     1       6.804  31.598  62.133  1.00  0.00     0.010 C 
HETATM   24  C   UNL     1       8.033  31.751  63.050  1.00  0.00     0.007 C 
HETATM   25  C   UNL     1       8.023  33.058  63.842  1.00  0.00     0.000 C 
HETATM   26  C   UNL     1       6.726  33.232  64.626  1.00  0.00     0.000 C 
HETATM   27  C   UNL     1       5.494  33.094  63.737  1.00  0.00     0.000 C 
HETATM   28  C   UNL     1       5.512  31.788  62.941  1.00  0.00     0.007 C 
ENDBRANCH  22  23
ENDBRANCH  21  22
ENDBRANCH   4  21
TORSDOF 6
ENDMDL
MODEL 8
REMARK VINA RESULT:      -7.9      3.387      9.367
REMARK  6 active torsions:
REMARK  status: ('A' for Active; 'I' for Inactive)
REMARK    1  A    between atoms: C_2  and  N_3 
REMARK    2  A    between atoms: C_2  and  C_21 
REMARK       I    between atoms: N_3  and  C_4 
REMARK       I    between atoms: C_4  and  N_5 
REMARK    3  A    between atoms: N_5  and  C_6 
REMARK    4  A    between atoms: C_9  and  O_10 
REMARK    5  A    between atoms: O_10  and  C_11 
REMARK    6  A    between atoms: C_11  and  C_12 
ROOT
HETATM    1  C   UNL     1       7.677  27.516  57.092  1.00  0.00     0.036 A 
HETATM    2  C   UNL     1       6.517  28.202  57.455  1.00  0.00     0.032 A 
HETATM    3  C   UNL     1       6.580  29.536  57.883  1.00  0.00     0.039 A 
HETATM    4  C   UNL     1       7.802  30.200  57.938  1.00  0.00     0.068 A 
HETATM    5  C   UNL     1       8.968  29.507  57.615  1.00  0.00     0.039 A 
HETATM    6  C   UNL     1       8.907  28.175  57.193  1.00  0.00     0.032 A 
ENDROOT
BRANCH   1   7
HETATM    7  N   UNL     1       7.692  26.195  56.597  1.00  0.00    -0.309 N 
HETATM    8  C   UNL     1       6.805  25.614  55.733  1.00  0.00     0.321 C 
HETATM    9  N   UNL     1       7.135  24.374  55.287  1.00  0.00    -0.332 N 
HETATM   10  O   UNL     1       5.763  26.111  55.317  1.00  0.00    -0.247 OA
HETATM   11  H   UNL     1       6.460  23.990  54.633  1.00  0.00     0.165 HD
HETATM   12  H   UNL     1       8.446  25.619  56.928  1.00  0.00     0.170 HD
BRANCH   9  13
HETATM   13  C   UNL     1       8.301  23.535  55.549  1.00  0.00     0.155 C 
HETATM   14  C   UNL     1       8.368  23.161  57.026  1.00  0.00     0.041 C 
BRANCH  13  15
HETATM   15  C   UNL     1       8.216  22.313  54.677  1.00  0.00     0.169 A 
HETATM   16  N   UNL     1       7.872  21.103  55.143  1.00  0.00    -0.156 NA
HETATM   17  N   UNL     1       7.975  20.349  54.035  1.00  0.00    -0.270 N 
HETATM   18  H   UNL     1       7.776  19.356  54.087  1.00  0.00     0.190 HD
HETATM   19  C   UNL     1       8.356  21.094  52.965  1.00  0.00     0.227 A 
HETATM   20  N   UNL     1       8.514  22.343  53.332  1.00  0.00    -0.223 NA
ENDBRANCH  13  15
ENDBRANCH   9  13
ENDBRANCH   1   7
BRANCH   4  21
HETATM   21  O   UNL     1       7.983  31.507  58.296  1.00  0.00    -0.351 OA
BRANCH  21  22
HETATM   22  C   UNL     1       7.192  31.977  59.392  1.00  0.00     0.180 C 
BRANCH  22  23
HETATM   23  C   UNL     1       8.117  32.663  60.414  1.00  0.00     0.010 C 
HETATM   24  C   UNL     1       7.432  32.865  61.779  1.00  0.00     0.007 C 
HETATM   25  C   UNL     1       7.245  31.558  62.549  1.00  0.00     0.000 C 
HETATM   26  C   UNL     1       8.561  30.800  62.700  1.00  0.00     0.000 C 
HETATM   27  C   UNL     1       9.254  30.579  61.358  1.00  0.00     0.000 C 
HETATM   28  C   UNL     1       9.431  31.889  60.589  1.00  0.00     0.007 C 
ENDBRANCH  22  23
ENDBRANCH  21  22
ENDBRANCH   4  21
TORSDOF 6
ENDMDL
MODEL 9
REMARK VINA RESULT:      -7.8      3.360      8.914
REMARK  6 active torsions:
REMARK  status: ('A' for Active; 'I' for Inactive)
REMARK    1  A    between atoms: C_2  and  N_3 
REMARK    2  A    between atoms: C_2  and  C_21 
REMARK       I    between atoms: N_3  and  C_4 
REMARK       I    between atoms: C_4  and  N_5 
REMARK    3  A    between atoms: N_5  and  C_6 
REMARK    4  A    between atoms: C_9  and  O_10 
REMARK    5  A    between atoms: O_10  and  C_11 
REMARK    6  A    between atoms: C_11  and  C_12 
ROOT
HETATM    1  C   UNL     1       6.213  29.011  56.208  1.00  0.00     0.036 A 
HETATM    2  C   UNL     1       5.403  30.131  56.016  1.00  0.00     0.032 A 
HETATM    3  C   UNL     1       5.528  31.255  56.845  1.00  0.00     0.039 A 
HETATM    4  C   UNL     1       6.474  31.274  57.866  1.00  0.00     0.068 A 
HETATM    5  C   UNL     1       7.258  30.142  58.088  1.00  0.00     0.039 A 
HETATM    6  C   UNL     1       7.131  29.019  57.264  1.00  0.00     0.032 A 
ENDROOT
BRANCH   1   7
HETATM    7  N   UNL     1       6.190  27.867  55.383  1.00  0.00    -0.309 N 
HETATM    8  C   UNL     1       7.039  27.558  54.356  1.00  0.00     0.321 C 
HETATM    9  N   UNL     1       6.899  26.317  53.822  1.00  0.00    -0.332 N 
HETATM   10  O   UNL     1       7.915  28.281  53.893  1.00  0.00    -0.247 OA
HETATM   11  H   UNL     1       7.561  26.123  53.077  1.00  0.00     0.165 HD
HETATM   12  H   UNL     1       5.455  27.209  55.578  1.00  0.00     0.170 HD
BRANCH   9  13
HETATM   13  C   UNL     1       6.000  25.217  54.163  1.00  0.00     0.155 C 
HETATM   14  C   UNL     1       5.223  24.762  52.932  1.00  0.00     0.041 C 
BRANCH  13  15
HETATM   15  C   UNL     1       6.816  24.096  54.744  1.00  0.00     0.169 A 
HETATM   16  N   UNL     1       7.220  23.037  54.026  1.00  0.00    -0.156 NA
HETATM   17  N   UNL     1       7.859  22.309  54.959  1.00  0.00    -0.270 N 
HETATM   18  H   UNL     1       8.275  21.421  54.699  1.00  0.00     0.190 HD
HETATM   19  C   UNL     1       7.835  22.926  56.168  1.00  0.00     0.227 A 
HETATM   20  N   UNL     1       7.186  24.062  56.070  1.00  0.00    -0.223 NA
ENDBRANCH  13  15
ENDBRANCH   9  13
ENDBRANCH   1   7
BRANCH   4  21
HETATM   21  O   UNL     1       6.717  32.323  58.708  1.00  0.00    -0.351 OA
BRANCH  21  22
HETATM   22  C   UNL     1       6.623  32.045  60.108  1.00  0.00     0.180 C 
BRANCH  22  23
HETATM   23  C   UNL     1       7.814  32.704  60.828  1.00  0.00     0.010 C 
HETATM   24  C   UNL     1       7.815  32.418  62.341  1.00  0.00     0.007 C 
HETATM   25  C   UNL     1       8.178  30.971  62.672  1.00  0.00     0.000 C 
HETATM   26  C   UNL     1       9.503  30.563  62.034  1.00  0.00     0.000 C 
HETATM   27  C   UNL     1       9.523  30.829  60.532  1.00  0.00     0.000 C 
HETATM   28  C   UNL     1       9.151  32.276  60.206  1.00  0.00     0.007 C 
ENDBRANCH  22  23
ENDBRANCH  21  22
ENDBRANCH   4  21
TORSDOF 6
ENDMDL
MODEL 10
REMARK VINA RESULT:      -7.8      6.168      8.147
REMARK  6 active torsions:
REMARK  status: ('A' for Active; 'I' for Inactive)
REMARK    1  A    between atoms: C_2  and  N_3 
REMARK    2  A    between atoms: C_2  and  C_21 
REMARK       I    between atoms: N_3  and  C_4 
REMARK       I    between atoms: C_4  and  N_5 
REMARK    3  A    between atoms: N_5  and  C_6 
REMARK    4  A    between atoms: C_9  and  O_10 
REMARK    5  A    between atoms: O_10  and  C_11 
REMARK    6  A    between atoms: C_11  and  C_12 
ROOT
HETATM    1  C   UNL     1       5.015  26.570  52.361  1.00  0.00     0.036 A 
HETATM    2  C   UNL     1       4.719  25.952  53.577  1.00  0.00     0.032 A 
HETATM    3  C   UNL     1       5.711  25.263  54.290  1.00  0.00     0.039 A 
HETATM    4  C   UNL     1       7.012  25.198  53.799  1.00  0.00     0.068 A 
HETATM    5  C   UNL     1       7.304  25.778  52.566  1.00  0.00     0.039 A 
HETATM    6  C   UNL     1       6.314  26.462  51.852  1.00  0.00     0.032 A 
ENDROOT
BRANCH   1   7
HETATM    7  N   UNL     1       4.090  27.329  51.614  1.00  0.00    -0.309 N 
HETATM    8  C   UNL     1       3.692  28.619  51.837  1.00  0.00     0.321 C 
HETATM    9  N   UNL     1       2.909  29.173  50.876  1.00  0.00    -0.332 N 
HETATM   10  O   UNL     1       3.988  29.315  52.803  1.00  0.00    -0.247 OA
HETATM   11  H   UNL     1       2.654  30.136  51.072  1.00  0.00     0.165 HD
HETATM   12  H   UNL     1       3.677  26.856  50.830  1.00  0.00     0.170 HD
BRANCH   9  13
HETATM   13  C   UNL     1       2.418  28.642  49.607  1.00  0.00     0.155 C 
HETATM   14  C   UNL     1       1.813  29.756  48.760  1.00  0.00     0.041 C 
BRANCH  13  15
HETATM   15  C   UNL     1       3.560  27.969  48.897  1.00  0.00     0.169 A 
HETATM   16  N   UNL     1       4.673  28.618  48.522  1.00  0.00    -0.156 NA
HETATM   17  N   UNL     1       5.359  27.640  47.907  1.00  0.00    -0.270 N 
HETATM   18  H   UNL     1       6.266  27.846  47.502  1.00  0.00     0.190 HD
HETATM   19  C   UNL     1       4.676  26.466  47.932  1.00  0.00     0.227 A 
HETATM   20  N   UNL     1       3.534  26.635  48.554  1.00  0.00    -0.223 NA
ENDBRANCH  13  15
ENDBRANCH   9  13
ENDBRANCH   1   7
BRANCH   4  21
HETATM   21  O   UNL     1       8.069  24.595  54.422  1.00  0.00    -0.351 OA
BRANCH  21  22
HETATM   22  C   UNL     1       8.547  23.385  53.827  1.00  0.00     0.180 C 
BRANCH  22  23
HETATM   23  C   UNL     1       7.527  22.262  54.094  1.00  0.00     0.010 C 
HETATM   24  C   UNL     1       7.701  21.072  53.131  1.00  0.00     0.007 C 
HETATM   25  C   UNL     1       8.958  20.252  53.421  1.00  0.00     0.000 C 
HETATM   26  C   UNL     1       9.008  19.795  54.876  1.00  0.00     0.000 C 
HETATM   27  C   UNL     1       8.847  20.958  55.850  1.00  0.00     0.000 C 
HETATM   28  C   UNL     1       7.593  21.780  55.551  1.00  0.00     0.007 C 
ENDBRANCH  22  23
ENDBRANCH  21  22
ENDBRANCH   4  21
TORSDOF 6
ENDMDL
