MODEL 1
REMARK VINA RESULT:      -9.3      0.000      0.000
REMARK  6 active torsions:
REMARK  status: ('A' for Active; 'I' for Inactive)
REMARK    1  A    between atoms: C_2  and  C_3 
REMARK       I    between atoms: C_3  and  N_4 
REMARK    2  A    between atoms: N_4  and  C_5 
REMARK    3  A    between atoms: C_8  and  N_9 
REMARK       I    between atoms: N_9  and  C_10 
REMARK    4  A    between atoms: C_10  and  C_11 
REMARK    5  A    between atoms: C_16  and  C_17 
REMARK    6  A    between atoms: C_23  and  C_24 
ROOT
HETATM    1  C   UNL     1       5.775  31.627  58.970  1.00  0.00     0.148 A 
HETATM    2  N   UNL     1       6.946  31.361  58.344  1.00  0.00    -0.165 NA
HETATM    3  N   UNL     1       6.605  30.429  57.435  1.00  0.00    -0.240 N 
HETATM    4  C   UNL     1       5.261  30.202  57.349  1.00  0.00     0.123 A 
HETATM    5  N   UNL     1       4.733  29.395  56.406  1.00  0.00    -0.364 N 
HETATM    6  C   UNL     1       5.563  28.567  55.531  1.00  0.00     0.143 C 
HETATM    7  C   UNL     1       6.947  29.212  55.333  1.00  0.00     0.068 C 
HETATM    8  C   UNL     1       7.594  29.746  56.623  1.00  0.00     0.221 C 
HETATM    9  C   UNL     1       4.695  30.932  58.359  1.00  0.00     0.089 A 
HETATM   10  H   UNL     1       3.749  29.131  56.440  1.00  0.00     0.162 HD
ENDROOT
BRANCH   1  11
HETATM   11  C   UNL     1       5.683  32.536  60.127  1.00  0.00     0.276 C 
HETATM   12  N   UNL     1       6.222  31.982  61.272  1.00  0.00    -0.322 N 
HETATM   13  H   UNL     1       6.663  31.078  61.121  1.00  0.00     0.169 HD
HETATM   14  O   UNL     1       5.200  33.657  60.015  1.00  0.00    -0.266 OA
BRANCH  12  15
HETATM   15  C   UNL     1       6.249  32.534  62.563  1.00  0.00     0.035 A 
HETATM   16  C   UNL     1       5.104  32.865  63.284  1.00  0.00     0.032 A 
HETATM   17  C   UNL     1       5.199  33.386  64.582  1.00  0.00     0.032 A 
HETATM   18  C   UNL     1       6.444  33.604  65.172  1.00  0.00     0.034 A 
HETATM   19  C   UNL     1       7.594  33.284  64.442  1.00  0.00     0.032 A 
HETATM   20  C   UNL     1       7.498  32.737  63.157  1.00  0.00     0.032 A 
BRANCH  18  21
HETATM   21  N   UNL     1       6.621  34.142  66.464  1.00  0.00    -0.327 N 
HETATM   22  C   UNL     1       5.675  34.241  67.469  1.00  0.00     0.221 C 
HETATM   23  O   UNL     1       4.514  33.845  67.418  1.00  0.00    -0.273 OA
HETATM   24  H   UNL     1       7.557  34.454  66.682  1.00  0.00     0.169 HD
BRANCH  22  25
HETATM   25  C   UNL     1       6.182  34.955  68.710  1.00  0.00     0.098 C 
HETATM   26  C   UNL     1       7.669  34.774  68.957  1.00  0.00     0.014 C 
ENDBRANCH  22  25
ENDBRANCH  18  21
ENDBRANCH  12  15
ENDBRANCH   1  11
BRANCH   8  27
HETATM   27  C   UNL     1       8.285  28.684  57.451  1.00  0.00     0.409 C 
HETATM   28  F   UNL     1       8.735  27.639  56.729  1.00  0.00    -0.169 F 
HETATM   29  F   UNL     1       9.352  29.213  58.101  1.00  0.00    -0.169 F 
HETATM   30  F   UNL     1       7.469  28.187  58.410  1.00  0.00    -0.169 F 
ENDBRANCH   8  27
BRANCH   6  31
HETATM   31  C   UNL     1       5.628  27.124  55.917  1.00  0.00     0.075 A 
HETATM   32  O   UNL     1       6.357  26.309  55.098  1.00  0.00    -0.325 OA
HETATM   33  C   UNL     1       6.256  25.050  55.597  1.00  0.00     0.142 A 
HETATM   34  C   UNL     1       5.469  25.040  56.724  1.00  0.00     0.027 A 
HETATM   35  C   UNL     1       5.057  26.378  56.929  1.00  0.00     0.037 A 
ENDBRANCH   6  31
TORSDOF 6
ENDMDL
MODEL 2
REMARK VINA RESULT:      -9.0      2.489      3.542
REMARK  6 active torsions:
REMARK  status: ('A' for Active; 'I' for Inactive)
REMARK    1  A    between atoms: C_2  and  C_3 
REMARK       I    between atoms: C_3  and  N_4 
REMARK    2  A    between atoms: N_4  and  C_5 
REMARK    3  A    between atoms: C_8  and  N_9 
REMARK       I    between atoms: N_9  and  C_10 
REMARK    4  A    between atoms: C_10  and  C_11 
REMARK    5  A    between atoms: C_16  and  C_17 
REMARK    6  A    between atoms: C_23  and  C_24 
ROOT
HETATM    1  C   UNL     1       8.344  29.562  57.984  1.00  0.00     0.148 A 
HETATM    2  N   UNL     1       7.872  28.294  58.037  1.00  0.00    -0.165 NA
HETATM    3  N   UNL     1       7.721  27.965  56.740  1.00  0.00    -0.240 N 
HETATM    4  C   UNL     1       8.213  28.897  55.871  1.00  0.00     0.123 A 
HETATM    5  N   UNL     1       8.260  28.676  54.541  1.00  0.00    -0.364 N 
HETATM    6  C   UNL     1       7.628  27.513  53.918  1.00  0.00     0.143 C 
HETATM    7  C   UNL     1       7.563  26.338  54.911  1.00  0.00     0.068 C 
HETATM    8  C   UNL     1       7.097  26.723  56.327  1.00  0.00     0.221 C 
HETATM    9  C   UNL     1       8.587  29.965  56.641  1.00  0.00     0.089 A 
HETATM   10  H   UNL     1       8.502  29.429  53.898  1.00  0.00     0.162 HD
ENDROOT
BRANCH   1  11
HETATM   11  C   UNL     1       8.568  30.376  59.191  1.00  0.00     0.276 C 
HETATM   12  N   UNL     1       7.394  30.638  59.872  1.00  0.00    -0.322 N 
HETATM   13  H   UNL     1       6.581  30.169  59.481  1.00  0.00     0.169 HD
HETATM   14  O   UNL     1       9.696  30.723  59.521  1.00  0.00    -0.266 OA
BRANCH  12  15
HETATM   15  C   UNL     1       7.225  31.430  61.020  1.00  0.00     0.035 A 
HETATM   16  C   UNL     1       8.009  31.306  62.164  1.00  0.00     0.032 A 
HETATM   17  C   UNL     1       7.808  32.148  63.267  1.00  0.00     0.032 A 
HETATM   18  C   UNL     1       6.803  33.114  63.250  1.00  0.00     0.034 A 
HETATM   19  C   UNL     1       6.005  33.229  62.106  1.00  0.00     0.032 A 
HETATM   20  C   UNL     1       6.225  32.407  60.994  1.00  0.00     0.032 A 
BRANCH  18  21
HETATM   21  N   UNL     1       6.526  33.984  64.325  1.00  0.00    -0.327 N 
HETATM   22  C   UNL     1       5.435  33.944  65.176  1.00  0.00     0.221 C 
HETATM   23  O   UNL     1       4.527  33.118  65.160  1.00  0.00    -0.273 OA
HETATM   24  H   UNL     1       7.226  34.689  64.509  1.00  0.00     0.169 HD
BRANCH  22  25
HETATM   25  C   UNL     1       5.405  35.088  66.176  1.00  0.00     0.098 C 
HETATM   26  C   UNL     1       4.021  35.672  66.396  1.00  0.00     0.014 C 
ENDBRANCH  22  25
ENDBRANCH  18  21
ENDBRANCH  12  15
ENDBRANCH   1  11
BRANCH   8  27
HETATM   27  C   UNL     1       5.595  26.836  56.471  1.00  0.00     0.409 C 
HETATM   28  F   UNL     1       4.908  26.284  55.452  1.00  0.00    -0.169 F 
HETATM   29  F   UNL     1       5.183  26.225  57.611  1.00  0.00    -0.169 F 
HETATM   30  F   UNL     1       5.197  28.126  56.572  1.00  0.00    -0.169 F 
ENDBRANCH   8  27
BRANCH   6  31
HETATM   31  C   UNL     1       6.322  27.798  53.248  1.00  0.00     0.075 A 
HETATM   32  O   UNL     1       5.645  28.902  53.682  1.00  0.00    -0.325 OA
HETATM   33  C   UNL     1       4.483  28.957  52.982  1.00  0.00     0.142 A 
HETATM   34  C   UNL     1       4.397  27.902  52.105  1.00  0.00     0.027 A 
HETATM   35  C   UNL     1       5.582  27.149  52.279  1.00  0.00     0.037 A 
ENDBRANCH   6  31
TORSDOF 6
ENDMDL
MODEL 3
REMARK VINA RESULT:      -9.0      3.393     10.544
REMARK  6 active torsions:
REMARK  status: ('A' for Active; 'I' for Inactive)
REMARK    1  A    between atoms: C_2  and  C_3 
REMARK       I    between atoms: C_3  and  N_4 
REMARK    2  A    between atoms: N_4  and  C_5 
REMARK    3  A    between atoms: C_8  and  N_9 
REMARK       I    between atoms: N_9  and  C_10 
REMARK    4  A    between atoms: C_10  and  C_11 
REMARK    5  A    between atoms: C_16  and  C_17 
REMARK    6  A    between atoms: C_23  and  C_24 
ROOT
HETATM    1  C   UNL     1       6.334  32.101  60.295  1.00  0.00     0.148 A 
HETATM    2  N   UNL     1       6.609  31.785  61.582  1.00  0.00    -0.165 NA
HETATM    3  N   UNL     1       5.821  32.623  62.281  1.00  0.00    -0.240 N 
HETATM    4  C   UNL     1       4.954  33.344  61.510  1.00  0.00     0.123 A 
HETATM    5  N   UNL     1       4.007  34.137  62.051  1.00  0.00    -0.364 N 
HETATM    6  C   UNL     1       3.955  34.425  63.485  1.00  0.00     0.143 C 
HETATM    7  C   UNL     1       4.569  33.266  64.291  1.00  0.00     0.068 C 
HETATM    8  C   UNL     1       5.896  32.727  63.726  1.00  0.00     0.221 C 
HETATM    9  C   UNL     1       5.287  33.062  60.212  1.00  0.00     0.089 A 
HETATM   10  H   UNL     1       3.461  34.768  61.467  1.00  0.00     0.162 HD
ENDROOT
BRANCH   1  11
HETATM   11  C   UNL     1       7.049  31.494  59.159  1.00  0.00     0.276 C 
HETATM   12  N   UNL     1       6.356  30.431  58.610  1.00  0.00    -0.322 N 
HETATM   13  H   UNL     1       5.437  30.287  59.021  1.00  0.00     0.169 HD
HETATM   14  O   UNL     1       8.120  31.945  58.770  1.00  0.00    -0.266 OA
BRANCH  12  15
HETATM   15  C   UNL     1       6.764  29.587  57.565  1.00  0.00     0.035 A 
HETATM   16  C   UNL     1       7.738  28.600  57.707  1.00  0.00     0.032 A 
HETATM   17  C   UNL     1       8.079  27.769  56.630  1.00  0.00     0.032 A 
HETATM   18  C   UNL     1       7.466  27.927  55.388  1.00  0.00     0.034 A 
HETATM   19  C   UNL     1       6.498  28.927  55.242  1.00  0.00     0.032 A 
HETATM   20  C   UNL     1       6.137  29.738  56.325  1.00  0.00     0.032 A 
BRANCH  18  21
HETATM   21  N   UNL     1       7.768  27.145  54.254  1.00  0.00    -0.327 N 
HETATM   22  C   UNL     1       7.263  25.896  53.937  1.00  0.00     0.221 C 
HETATM   23  O   UNL     1       6.432  25.261  54.580  1.00  0.00    -0.273 OA
HETATM   24  H   UNL     1       8.398  27.568  53.586  1.00  0.00     0.169 HD
BRANCH  22  25
HETATM   25  C   UNL     1       7.870  25.298  52.679  1.00  0.00     0.098 C 
HETATM   26  C   UNL     1       7.915  23.780  52.683  1.00  0.00     0.014 C 
ENDBRANCH  22  25
ENDBRANCH  18  21
ENDBRANCH  12  15
ENDBRANCH   1  11
BRANCH   8  27
HETATM   27  C   UNL     1       7.108  33.547  64.114  1.00  0.00     0.409 C 
HETATM   28  F   UNL     1       8.258  32.846  64.122  1.00  0.00    -0.169 F 
HETATM   29  F   UNL     1       7.273  34.581  63.251  1.00  0.00    -0.169 F 
HETATM   30  F   UNL     1       6.966  34.101  65.341  1.00  0.00    -0.169 F 
ENDBRANCH   8  27
BRANCH   6  31
HETATM   31  C   UNL     1       4.490  35.767  63.871  1.00  0.00     0.075 A 
HETATM   32  O   UNL     1       4.976  36.541  62.856  1.00  0.00    -0.325 OA
HETATM   33  C   UNL     1       5.444  37.686  63.417  1.00  0.00     0.142 A 
HETATM   34  C   UNL     1       5.270  37.661  64.781  1.00  0.00     0.027 A 
HETATM   35  C   UNL     1       4.659  36.419  65.077  1.00  0.00     0.037 A 
ENDBRANCH   6  31
TORSDOF 6
ENDMDL
MODEL 4
REMARK VINA RESULT:      -9.0      3.184     10.359
REMARK  6 active torsions:
REMARK  status: ('A' for Active; 'I' for Inactive)
REMARK    1  A    between atoms: C_2  and  C_3 
REMARK       I    between atoms: C_3  and  N_4 
REMARK    2  A    between atoms: N_4  and  C_5 
REMARK    3  A    between atoms: C_8  and  N_9 
REMARK       I    between atoms: N_9  and  C_10 
REMARK    4  A    between atoms: C_10  and  C_11 
REMARK    5  A    between atoms: C_16  and  C_17 
REMARK    6  A    between atoms: C_23  and  C_24 
ROOT
HETATM    1  C   UNL     1       7.204  31.499  59.834  1.00  0.00     0.148 A 
HETATM    2  N   UNL     1       5.989  32.026  59.555  1.00  0.00    -0.165 NA
HETATM    3  N   UNL     1       5.822  32.948  60.521  1.00  0.00    -0.240 N 
HETATM    4  C   UNL     1       6.926  33.139  61.303  1.00  0.00     0.123 A 
HETATM    5  N   UNL     1       6.980  34.110  62.237  1.00  0.00    -0.364 N 
HETATM    6  C   UNL     1       5.809  34.907  62.606  1.00  0.00     0.143 C 
HETATM    7  C   UNL     1       4.828  35.002  61.422  1.00  0.00     0.068 C 
HETATM    8  C   UNL     1       4.576  33.671  60.692  1.00  0.00     0.221 C 
HETATM    9  C   UNL     1       7.828  32.185  60.913  1.00  0.00     0.089 A 
HETATM   10  H   UNL     1       7.752  34.151  62.900  1.00  0.00     0.162 HD
ENDROOT
BRANCH   1  11
HETATM   11  C   UNL     1       7.768  30.364  59.082  1.00  0.00     0.276 C 
HETATM   12  N   UNL     1       6.889  29.876  58.134  1.00  0.00    -0.322 N 
HETATM   13  H   UNL     1       6.033  30.418  58.051  1.00  0.00     0.169 HD
HETATM   14  O   UNL     1       8.906  29.965  59.297  1.00  0.00    -0.266 OA
BRANCH  12  15
HETATM   15  C   UNL     1       7.066  28.769  57.286  1.00  0.00     0.035 A 
HETATM   16  C   UNL     1       7.334  27.482  57.746  1.00  0.00     0.032 A 
HETATM   17  C   UNL     1       7.471  26.414  56.848  1.00  0.00     0.032 A 
HETATM   18  C   UNL     1       7.364  26.622  55.473  1.00  0.00     0.034 A 
HETATM   19  C   UNL     1       7.110  27.918  55.011  1.00  0.00     0.032 A 
HETATM   20  C   UNL     1       6.944  28.979  55.910  1.00  0.00     0.032 A 
BRANCH  18  21
HETATM   21  N   UNL     1       7.509  25.604  54.507  1.00  0.00    -0.327 N 
HETATM   22  C   UNL     1       6.502  24.873  53.902  1.00  0.00     0.221 C 
HETATM   23  O   UNL     1       5.295  25.007  54.082  1.00  0.00    -0.273 OA
HETATM   24  H   UNL     1       8.456  25.422  54.204  1.00  0.00     0.169 HD
BRANCH  22  25
HETATM   25  C   UNL     1       7.017  23.791  52.968  1.00  0.00     0.098 C 
HETATM   26  C   UNL     1       8.216  23.033  53.509  1.00  0.00     0.014 C 
ENDBRANCH  22  25
ENDBRANCH  18  21
ENDBRANCH  12  15
ENDBRANCH   1  11
BRANCH   8  27
HETATM   27  C   UNL     1       3.560  32.778  61.371  1.00  0.00     0.409 C 
HETATM   28  F   UNL     1       4.094  31.942  62.282  1.00  0.00    -0.169 F 
HETATM   29  F   UNL     1       2.627  33.528  62.011  1.00  0.00    -0.169 F 
HETATM   30  F   UNL     1       2.883  32.019  60.478  1.00  0.00    -0.169 F 
ENDBRANCH   8  27
BRANCH   6  31
HETATM   31  C   UNL     1       5.157  34.499  63.888  1.00  0.00     0.075 A 
HETATM   32  O   UNL     1       3.999  35.147  64.213  1.00  0.00    -0.325 OA
HETATM   33  C   UNL     1       3.597  34.664  65.417  1.00  0.00     0.142 A 
HETATM   34  C   UNL     1       4.481  33.717  65.876  1.00  0.00     0.027 A 
HETATM   35  C   UNL     1       5.493  33.613  64.892  1.00  0.00     0.037 A 
ENDBRANCH   6  31
TORSDOF 6
ENDMDL
MODEL 5
REMARK VINA RESULT:      -8.9      7.338     13.776
REMARK  6 active torsions:
REMARK  status: ('A' for Active; 'I' for Inactive)
REMARK    1  A    between atoms: C_2  and  C_3 
REMARK       I    between atoms: C_3  and  N_4 
REMARK    2  A    between atoms: N_4  and  C_5 
REMARK    3  A    between atoms: C_8  and  N_9 
REMARK       I    between atoms: N_9  and  C_10 
REMARK    4  A    between atoms: C_10  and  C_11 
REMARK    5  A    between atoms: C_16  and  C_17 
REMARK    6  A    between atoms: C_23  and  C_24 
ROOT
HETATM    1  C   UNL     1       4.460  27.234  51.330  1.00  0.00     0.148 A 
HETATM    2  N   UNL     1       5.137  26.098  51.618  1.00  0.00    -0.165 NA
HETATM    3  N   UNL     1       5.357  26.198  52.943  1.00  0.00    -0.240 N 
HETATM    4  C   UNL     1       4.726  27.257  53.532  1.00  0.00     0.123 A 
HETATM    5  N   UNL     1       4.733  27.436  54.869  1.00  0.00    -0.364 N 
HETATM    6  C   UNL     1       5.560  26.625  55.763  1.00  0.00     0.143 C 
HETATM    7  C   UNL     1       5.808  25.233  55.153  1.00  0.00     0.068 C 
HETATM    8  C   UNL     1       6.185  25.248  53.661  1.00  0.00     0.221 C 
HETATM    9  C   UNL     1       4.169  27.975  52.509  1.00  0.00     0.089 A 
HETATM   10  H   UNL     1       4.377  28.298  55.279  1.00  0.00     0.162 HD
ENDROOT
BRANCH   1  11
HETATM   11  C   UNL     1       4.088  27.607  49.954  1.00  0.00     0.276 C 
HETATM   12  N   UNL     1       2.722  27.754  49.802  1.00  0.00    -0.322 N 
HETATM   13  H   UNL     1       2.202  27.660  50.670  1.00  0.00     0.169 HD
HETATM   14  O   UNL     1       4.941  27.785  49.092  1.00  0.00    -0.266 OA
BRANCH  12  15
HETATM   15  C   UNL     1       2.013  28.040  48.623  1.00  0.00     0.035 A 
HETATM   16  C   UNL     1       1.420  27.064  47.825  1.00  0.00     0.032 A 
HETATM   17  C   UNL     1       0.701  27.418  46.675  1.00  0.00     0.032 A 
HETATM   18  C   UNL     1       0.582  28.754  46.293  1.00  0.00     0.034 A 
HETATM   19  C   UNL     1       1.191  29.732  47.087  1.00  0.00     0.032 A 
HETATM   20  C   UNL     1       1.885  29.381  48.251  1.00  0.00     0.032 A 
BRANCH  18  21
HETATM   21  N   UNL     1      -0.106  29.187  45.141  1.00  0.00    -0.327 N 
HETATM   22  C   UNL     1      -1.477  29.242  44.954  1.00  0.00     0.221 C 
HETATM   23  O   UNL     1      -2.337  28.948  45.779  1.00  0.00    -0.273 OA
HETATM   24  H   UNL     1       0.474  29.528  44.387  1.00  0.00     0.169 HD
BRANCH  22  25
HETATM   25  C   UNL     1      -1.881  29.679  43.556  1.00  0.00     0.098 C 
HETATM   26  C   UNL     1      -2.054  28.528  42.581  1.00  0.00     0.014 C 
ENDBRANCH  22  25
ENDBRANCH  18  21
ENDBRANCH  12  15
ENDBRANCH   1  11
BRANCH   8  27
HETATM   27  C   UNL     1       7.645  25.546  53.398  1.00  0.00     0.409 C 
HETATM   28  F   UNL     1       7.931  26.861  53.345  1.00  0.00    -0.169 F 
HETATM   29  F   UNL     1       8.420  25.006  54.373  1.00  0.00    -0.169 F 
HETATM   30  F   UNL     1       8.068  24.996  52.235  1.00  0.00    -0.169 F 
ENDBRANCH   8  27
BRANCH   6  31
HETATM   31  C   UNL     1       6.807  27.297  56.240  1.00  0.00     0.075 A 
HETATM   32  O   UNL     1       7.038  28.556  55.764  1.00  0.00    -0.325 OA
HETATM   33  C   UNL     1       8.226  28.965  56.281  1.00  0.00     0.142 A 
HETATM   34  C   UNL     1       8.768  27.986  57.079  1.00  0.00     0.027 A 
HETATM   35  C   UNL     1       7.855  26.905  57.050  1.00  0.00     0.037 A 
ENDBRANCH   6  31
TORSDOF 6
ENDMDL
MODEL 6
REMARK VINA RESULT:      -8.7      1.883      2.474
REMARK  6 active torsions:
REMARK  status: ('A' for Active; 'I' for Inactive)
REMARK    1  A    between atoms: C_2  and  C_3 
REMARK       I    between atoms: C_3  and  N_4 
REMARK    2  A    between atoms: N_4  and  C_5 
REMARK    3  A    between atoms: C_8  and  N_9 
REMARK       I    between atoms: N_9  and  C_10 
REMARK    4  A    between atoms: C_10  and  C_11 
REMARK    5  A    between atoms: C_16  and  C_17 
REMARK    6  A    between atoms: C_23  and  C_24 
ROOT
HETATM    1  C   UNL     1       4.989  30.426  57.275  1.00  0.00     0.148 A 
HETATM    2  N   UNL     1       6.329  30.426  57.081  1.00  0.00    -0.165 NA
HETATM    3  N   UNL     1       6.520  29.387  56.245  1.00  0.00    -0.240 N 
HETATM    4  C   UNL     1       5.363  28.827  55.782  1.00  0.00     0.123 A 
HETATM    5  N   UNL     1       5.365  27.862  54.841  1.00  0.00    -0.364 N 
HETATM    6  C   UNL     1       6.597  27.218  54.383  1.00  0.00     0.143 C 
HETATM    7  C   UNL     1       7.793  28.176  54.534  1.00  0.00     0.068 C 
HETATM    8  C   UNL     1       7.845  28.928  55.876  1.00  0.00     0.221 C 
HETATM    9  C   UNL     1       4.350  29.449  56.462  1.00  0.00     0.089 A 
HETATM   10  H   UNL     1       4.508  27.362  54.607  1.00  0.00     0.162 HD
ENDROOT
BRANCH   1  11
HETATM   11  C   UNL     1       4.324  31.347  58.214  1.00  0.00     0.276 C 
HETATM   12  N   UNL     1       5.104  31.617  59.323  1.00  0.00    -0.322 N 
HETATM   13  H   UNL     1       6.032  31.206  59.280  1.00  0.00     0.169 HD
HETATM   14  O   UNL     1       3.218  31.813  57.968  1.00  0.00    -0.266 OA
BRANCH  12  15
HETATM   15  C   UNL     1       4.766  32.396  60.442  1.00  0.00     0.035 A 
HETATM   16  C   UNL     1       3.515  32.362  61.056  1.00  0.00     0.032 A 
HETATM   17  C   UNL     1       3.251  33.144  62.189  1.00  0.00     0.032 A 
HETATM   18  C   UNL     1       4.228  33.989  62.714  1.00  0.00     0.034 A 
HETATM   19  C   UNL     1       5.479  34.034  62.089  1.00  0.00     0.032 A 
HETATM   20  C   UNL     1       5.752  33.231  60.974  1.00  0.00     0.032 A 
BRANCH  18  21
HETATM   21  N   UNL     1       4.033  34.820  63.837  1.00  0.00    -0.327 N 
HETATM   22  C   UNL     1       4.134  34.464  65.171  1.00  0.00     0.221 C 
HETATM   23  O   UNL     1       4.443  33.360  65.609  1.00  0.00    -0.273 OA
HETATM   24  H   UNL     1       3.833  35.789  63.634  1.00  0.00     0.169 HD
BRANCH  22  25
HETATM   25  C   UNL     1       3.773  35.589  66.127  1.00  0.00     0.098 C 
HETATM   26  C   UNL     1       4.685  35.681  67.336  1.00  0.00     0.014 C 
ENDBRANCH  22  25
ENDBRANCH  18  21
ENDBRANCH  12  15
ENDBRANCH   1  11
BRANCH   8  27
HETATM   27  C   UNL     1       8.438  28.121  57.011  1.00  0.00     0.409 C 
HETATM   28  F   UNL     1       7.517  27.544  57.806  1.00  0.00    -0.169 F 
HETATM   29  F   UNL     1       9.226  27.130  56.523  1.00  0.00    -0.169 F 
HETATM   30  F   UNL     1       9.234  28.879  57.802  1.00  0.00    -0.169 F 
ENDBRANCH   8  27
BRANCH   6  31
HETATM   31  C   UNL     1       6.844  25.862  54.961  1.00  0.00     0.075 A 
HETATM   32  O   UNL     1       7.883  25.155  54.427  1.00  0.00    -0.325 OA
HETATM   33  C   UNL     1       7.910  23.951  55.057  1.00  0.00     0.142 A 
HETATM   34  C   UNL     1       6.901  23.870  55.986  1.00  0.00     0.027 A 
HETATM   35  C   UNL     1       6.207  25.101  55.923  1.00  0.00     0.037 A 
ENDBRANCH   6  31
TORSDOF 6
ENDMDL
MODEL 7
REMARK VINA RESULT:      -8.7     10.719     12.754
REMARK  6 active torsions:
REMARK  status: ('A' for Active; 'I' for Inactive)
REMARK    1  A    between atoms: C_2  and  C_3 
REMARK       I    between atoms: C_3  and  N_4 
REMARK    2  A    between atoms: N_4  and  C_5 
REMARK    3  A    between atoms: C_8  and  N_9 
REMARK       I    between atoms: N_9  and  C_10 
REMARK    4  A    between atoms: C_10  and  C_11 
REMARK    5  A    between atoms: C_16  and  C_17 
REMARK    6  A    between atoms: C_23  and  C_24 
ROOT
HETATM    1  C   UNL     1       4.864  28.514  50.523  1.00  0.00     0.148 A 
HETATM    2  N   UNL     1       4.329  27.853  49.469  1.00  0.00    -0.165 NA
HETATM    3  N   UNL     1       3.673  28.819  48.799  1.00  0.00    -0.240 N 
HETATM    4  C   UNL     1       3.888  30.077  49.287  1.00  0.00     0.123 A 
HETATM    5  N   UNL     1       3.413  31.174  48.664  1.00  0.00    -0.364 N 
HETATM    6  C   UNL     1       2.486  31.093  47.534  1.00  0.00     0.143 C 
HETATM    7  C   UNL     1       2.689  29.774  46.765  1.00  0.00     0.068 C 
HETATM    8  C   UNL     1       2.826  28.528  47.658  1.00  0.00     0.221 C 
HETATM    9  C   UNL     1       4.622  29.913  50.430  1.00  0.00     0.089 A 
HETATM   10  H   UNL     1       3.465  32.089  49.110  1.00  0.00     0.162 HD
ENDROOT
BRANCH   1  11
HETATM   11  C   UNL     1       5.600  27.826  51.599  1.00  0.00     0.276 C 
HETATM   12  N   UNL     1       5.676  26.462  51.392  1.00  0.00    -0.322 N 
HETATM   13  H   UNL     1       5.286  26.160  50.504  1.00  0.00     0.169 HD
HETATM   14  O   UNL     1       6.094  28.453  52.529  1.00  0.00    -0.266 OA
BRANCH  12  15
HETATM   15  C   UNL     1       6.244  25.495  52.239  1.00  0.00     0.035 A 
HETATM   16  C   UNL     1       5.668  25.089  53.441  1.00  0.00     0.032 A 
HETATM   17  C   UNL     1       6.270  24.097  54.226  1.00  0.00     0.032 A 
HETATM   18  C   UNL     1       7.472  23.509  53.831  1.00  0.00     0.034 A 
HETATM   19  C   UNL     1       8.058  23.928  52.632  1.00  0.00     0.032 A 
HETATM   20  C   UNL     1       7.441  24.898  51.833  1.00  0.00     0.032 A 
BRANCH  18  21
HETATM   21  N   UNL     1       8.149  22.521  54.575  1.00  0.00    -0.327 N 
HETATM   22  C   UNL     1       8.180  21.160  54.328  1.00  0.00     0.221 C 
HETATM   23  O   UNL     1       7.642  20.576  53.391  1.00  0.00    -0.273 OA
HETATM   24  H   UNL     1       8.700  22.859  55.353  1.00  0.00     0.169 HD
BRANCH  22  25
HETATM   25  C   UNL     1       8.938  20.369  55.382  1.00  0.00     0.098 C 
HETATM   26  C   UNL     1       8.584  20.754  56.808  1.00  0.00     0.014 C 
ENDBRANCH  22  25
ENDBRANCH  18  21
ENDBRANCH  12  15
ENDBRANCH   1  11
BRANCH   8  27
HETATM   27  C   UNL     1       1.505  27.965  48.136  1.00  0.00     0.409 C 
HETATM   28  F   UNL     1       1.150  28.381  49.367  1.00  0.00    -0.169 F 
HETATM   29  F   UNL     1       0.507  28.319  47.288  1.00  0.00    -0.169 F 
HETATM   30  F   UNL     1       1.517  26.611  48.158  1.00  0.00    -0.169 F 
ENDBRANCH   8  27
BRANCH   6  31
HETATM   31  C   UNL     1       1.058  31.367  47.878  1.00  0.00     0.075 A 
HETATM   32  O   UNL     1       0.174  31.386  46.836  1.00  0.00    -0.325 OA
HETATM   33  C   UNL     1      -1.045  31.688  47.353  1.00  0.00     0.142 A 
HETATM   34  C   UNL     1      -0.961  31.869  48.713  1.00  0.00     0.027 A 
HETATM   35  C   UNL     1       0.397  31.668  49.054  1.00  0.00     0.037 A 
ENDBRANCH   6  31
TORSDOF 6
ENDMDL
MODEL 8
REMARK VINA RESULT:      -8.5      2.647      3.622
REMARK  6 active torsions:
REMARK  status: ('A' for Active; 'I' for Inactive)
REMARK    1  A    between atoms: C_2  and  C_3 
REMARK       I    between atoms: C_3  and  N_4 
REMARK    2  A    between atoms: N_4  and  C_5 
REMARK    3  A    between atoms: C_8  and  N_9 
REMARK       I    between atoms: N_9  and  C_10 
REMARK    4  A    between atoms: C_10  and  C_11 
REMARK    5  A    between atoms: C_16  and  C_17 
REMARK    6  A    between atoms: C_23  and  C_24 
ROOT
HETATM    1  C   UNL     1       5.352  29.806  56.803  1.00  0.00     0.148 A 
HETATM    2  N   UNL     1       5.726  29.582  55.521  1.00  0.00    -0.165 NA
HETATM    3  N   UNL     1       5.669  28.241  55.413  1.00  0.00    -0.240 N 
HETATM    4  C   UNL     1       5.135  27.618  56.505  1.00  0.00     0.123 A 
HETATM    5  N   UNL     1       4.886  26.293  56.518  1.00  0.00    -0.364 N 
HETATM    6  C   UNL     1       5.332  25.401  55.447  1.00  0.00     0.143 C 
HETATM    7  C   UNL     1       5.442  26.170  54.117  1.00  0.00     0.068 C 
HETATM    8  C   UNL     1       6.129  27.543  54.227  1.00  0.00     0.221 C 
HETATM    9  C   UNL     1       4.957  28.598  57.443  1.00  0.00     0.089 A 
HETATM   10  H   UNL     1       4.617  25.823  57.382  1.00  0.00     0.162 HD
ENDROOT
BRANCH   1  11
HETATM   11  C   UNL     1       5.363  31.149  57.409  1.00  0.00     0.276 C 
HETATM   12  N   UNL     1       5.380  31.101  58.790  1.00  0.00    -0.322 N 
HETATM   13  H   UNL     1       5.461  30.160  59.165  1.00  0.00     0.169 HD
HETATM   14  O   UNL     1       5.386  32.158  56.713  1.00  0.00    -0.266 OA
BRANCH  12  15
HETATM   15  C   UNL     1       5.331  32.180  59.688  1.00  0.00     0.035 A 
HETATM   16  C   UNL     1       4.304  33.122  59.707  1.00  0.00     0.032 A 
HETATM   17  C   UNL     1       4.299  34.159  60.649  1.00  0.00     0.032 A 
HETATM   18  C   UNL     1       5.334  34.283  61.576  1.00  0.00     0.034 A 
HETATM   19  C   UNL     1       6.372  33.345  61.549  1.00  0.00     0.032 A 
HETATM   20  C   UNL     1       6.362  32.292  60.625  1.00  0.00     0.032 A 
BRANCH  18  21
HETATM   21  N   UNL     1       5.409  35.309  62.541  1.00  0.00    -0.327 N 
HETATM   22  C   UNL     1       4.658  35.430  63.697  1.00  0.00     0.221 C 
HETATM   23  O   UNL     1       3.808  34.641  64.100  1.00  0.00    -0.273 OA
HETATM   24  H   UNL     1       6.120  36.009  62.380  1.00  0.00     0.169 HD
BRANCH  22  25
HETATM   25  C   UNL     1       4.937  36.708  64.471  1.00  0.00     0.098 C 
HETATM   26  C   UNL     1       5.590  37.797  63.639  1.00  0.00     0.014 C 
ENDBRANCH  22  25
ENDBRANCH  18  21
ENDBRANCH  12  15
ENDBRANCH   1  11
BRANCH   8  27
HETATM   27  C   UNL     1       7.641  27.476  54.232  1.00  0.00     0.409 C 
HETATM   28  F   UNL     1       8.173  27.284  55.455  1.00  0.00    -0.169 F 
HETATM   29  F   UNL     1       8.070  26.459  53.443  1.00  0.00    -0.169 F 
HETATM   30  F   UNL     1       8.194  28.603  53.726  1.00  0.00    -0.169 F 
ENDBRANCH   8  27
BRANCH   6  31
HETATM   31  C   UNL     1       6.550  24.598  55.771  1.00  0.00     0.075 A 
HETATM   32  O   UNL     1       7.120  24.824  56.992  1.00  0.00    -0.325 OA
HETATM   33  C   UNL     1       8.221  24.033  57.071  1.00  0.00     0.142 A 
HETATM   34  C   UNL     1       8.373  23.302  55.917  1.00  0.00     0.027 A 
HETATM   35  C   UNL     1       7.298  23.669  55.074  1.00  0.00     0.037 A 
ENDBRANCH   6  31
TORSDOF 6
ENDMDL
MODEL 9
REMARK VINA RESULT:      -8.5      3.499     10.505
REMARK  6 active torsions:
REMARK  status: ('A' for Active; 'I' for Inactive)
REMARK    1  A    between atoms: C_2  and  C_3 
REMARK       I    between atoms: C_3  and  N_4 
REMARK    2  A    between atoms: N_4  and  C_5 
REMARK    3  A    between atoms: C_8  and  N_9 
REMARK       I    between atoms: N_9  and  C_10 
REMARK    4  A    between atoms: C_10  and  C_11 
REMARK    5  A    between atoms: C_16  and  C_17 
REMARK    6  A    between atoms: C_23  and  C_24 
ROOT
HETATM    1  C   UNL     1       5.050  32.093  59.253  1.00  0.00     0.148 A 
HETATM    2  N   UNL     1       4.223  33.163  59.328  1.00  0.00    -0.165 NA
HETATM    3  N   UNL     1       4.658  33.812  60.425  1.00  0.00    -0.240 N 
HETATM    4  C   UNL     1       5.805  33.296  60.958  1.00  0.00     0.123 A 
HETATM    5  N   UNL     1       6.448  33.895  61.980  1.00  0.00    -0.364 N 
HETATM    6  C   UNL     1       5.876  35.029  62.708  1.00  0.00     0.143 C 
HETATM    7  C   UNL     1       4.923  35.827  61.799  1.00  0.00     0.068 C 
HETATM    8  C   UNL     1       3.959  34.961  60.968  1.00  0.00     0.221 C 
HETATM    9  C   UNL     1       6.064  32.155  60.248  1.00  0.00     0.089 A 
HETATM   10  H   UNL     1       7.221  33.429  62.452  1.00  0.00     0.162 HD
ENDROOT
BRANCH   1  11
HETATM   11  C   UNL     1       4.883  31.032  58.244  1.00  0.00     0.276 C 
HETATM   12  N   UNL     1       6.018  30.257  58.106  1.00  0.00    -0.322 N 
HETATM   13  H   UNL     1       6.754  30.488  58.769  1.00  0.00     0.169 HD
HETATM   14  O   UNL     1       3.821  30.883  57.651  1.00  0.00    -0.266 OA
BRANCH  12  15
HETATM   15  C   UNL     1       6.236  29.205  57.201  1.00  0.00     0.035 A 
HETATM   16  C   UNL     1       5.472  28.040  57.174  1.00  0.00     0.032 A 
HETATM   17  C   UNL     1       5.722  27.039  56.225  1.00  0.00     0.032 A 
HETATM   18  C   UNL     1       6.757  27.179  55.300  1.00  0.00     0.034 A 
HETATM   19  C   UNL     1       7.534  28.342  55.337  1.00  0.00     0.032 A 
HETATM   20  C   UNL     1       7.265  29.354  56.267  1.00  0.00     0.032 A 
BRANCH  18  21
HETATM   21  N   UNL     1       7.083  26.210  54.329  1.00  0.00    -0.327 N 
HETATM   22  C   UNL     1       7.640  24.961  54.544  1.00  0.00     0.221 C 
HETATM   23  O   UNL     1       7.921  24.466  55.632  1.00  0.00    -0.273 OA
HETATM   24  H   UNL     1       6.846  26.449  53.376  1.00  0.00     0.169 HD
BRANCH  22  25
HETATM   25  C   UNL     1       7.943  24.204  53.262  1.00  0.00     0.098 C 
HETATM   26  C   UNL     1       7.653  24.995  52.000  1.00  0.00     0.014 C 
ENDBRANCH  22  25
ENDBRANCH  18  21
ENDBRANCH  12  15
ENDBRANCH   1  11
BRANCH   8  27
HETATM   27  C   UNL     1       2.735  34.499  61.728  1.00  0.00     0.409 C 
HETATM   28  F   UNL     1       2.380  35.318  62.737  1.00  0.00    -0.169 F 
HETATM   29  F   UNL     1       1.669  34.404  60.893  1.00  0.00    -0.169 F 
HETATM   30  F   UNL     1       2.910  33.264  62.255  1.00  0.00    -0.169 F 
ENDBRANCH   8  27
BRANCH   6  31
HETATM   31  C   UNL     1       5.282  34.682  64.035  1.00  0.00     0.075 A 
HETATM   32  O   UNL     1       4.760  35.717  64.756  1.00  0.00    -0.325 OA
HETATM   33  C   UNL     1       4.314  35.200  65.930  1.00  0.00     0.142 A 
HETATM   34  C   UNL     1       4.545  33.846  65.979  1.00  0.00     0.027 A 
HETATM   35  C   UNL     1       5.176  33.510  64.758  1.00  0.00     0.037 A 
ENDBRANCH   6  31
TORSDOF 6
ENDMDL
MODEL 10
REMARK VINA RESULT:      -8.3      3.481     10.356
REMARK  6 active torsions:
REMARK  status: ('A' for Active; 'I' for Inactive)
REMARK    1  A    between atoms: C_2  and  C_3 
REMARK       I    between atoms: C_3  and  N_4 
REMARK    2  A    between atoms: N_4  and  C_5 
REMARK    3  A    between atoms: C_8  and  N_9 
REMARK       I    between atoms: N_9  and  C_10 
REMARK    4  A    between atoms: C_10  and  C_11 
REMARK    5  A    between atoms: C_16  and  C_17 
REMARK    6  A    between atoms: C_23  and  C_24 
ROOT
HETATM    1  C   UNL     1       4.125  32.273  58.794  1.00  0.00     0.148 A 
HETATM    2  N   UNL     1       3.901  31.762  60.028  1.00  0.00    -0.165 NA
HETATM    3  N   UNL     1       3.589  32.848  60.760  1.00  0.00    -0.240 N 
HETATM    4  C   UNL     1       3.455  33.992  60.026  1.00  0.00     0.123 A 
HETATM    5  N   UNL     1       3.023  35.145  60.576  1.00  0.00    -0.364 N 
HETATM    6  C   UNL     1       2.842  35.304  62.020  1.00  0.00     0.143 C 
HETATM    7  C   UNL     1       2.521  33.948  62.675  1.00  0.00     0.068 C 
HETATM    8  C   UNL     1       3.405  32.782  62.197  1.00  0.00     0.221 C 
HETATM    9  C   UNL     1       3.837  33.665  58.753  1.00  0.00     0.089 A 
HETATM   10  H   UNL     1       3.059  36.017  60.050  1.00  0.00     0.162 HD
ENDROOT
BRANCH   1  11
HETATM   11  C   UNL     1       4.599  31.448  57.669  1.00  0.00     0.276 C 
HETATM   12  N   UNL     1       5.017  30.196  58.076  1.00  0.00    -0.322 N 
HETATM   13  H   UNL     1       4.861  30.014  59.064  1.00  0.00     0.169 HD
HETATM   14  O   UNL     1       4.570  31.869  56.518  1.00  0.00    -0.266 OA
BRANCH  12  15
HETATM   15  C   UNL     1       5.583  29.180  57.289  1.00  0.00     0.035 A 
HETATM   16  C   UNL     1       6.925  28.810  57.355  1.00  0.00     0.032 A 
HETATM   17  C   UNL     1       7.422  27.766  56.562  1.00  0.00     0.032 A 
HETATM   18  C   UNL     1       6.588  27.090  55.673  1.00  0.00     0.034 A 
HETATM   19  C   UNL     1       5.244  27.471  55.595  1.00  0.00     0.032 A 
HETATM   20  C   UNL     1       4.741  28.494  56.409  1.00  0.00     0.032 A 
BRANCH  18  21
HETATM   21  N   UNL     1       7.016  26.045  54.828  1.00  0.00    -0.327 N 
HETATM   22  C   UNL     1       7.008  24.688  55.103  1.00  0.00     0.221 C 
HETATM   23  O   UNL     1       6.594  24.154  56.127  1.00  0.00    -0.273 OA
HETATM   24  H   UNL     1       7.329  26.325  53.909  1.00  0.00     0.169 HD
BRANCH  22  25
HETATM   25  C   UNL     1       7.624  23.843  54.000  1.00  0.00     0.098 C 
HETATM   26  C   UNL     1       7.782  24.578  52.681  1.00  0.00     0.014 C 
ENDBRANCH  22  25
ENDBRANCH  18  21
ENDBRANCH  12  15
ENDBRANCH   1  11
BRANCH   8  27
HETATM   27  C   UNL     1       4.755  32.713  62.879  1.00  0.00     0.409 C 
HETATM   28  F   UNL     1       4.770  33.255  64.112  1.00  0.00    -0.169 F 
HETATM   29  F   UNL     1       5.155  31.422  63.003  1.00  0.00    -0.169 F 
HETATM   30  F   UNL     1       5.714  33.335  62.154  1.00  0.00    -0.169 F 
ENDBRANCH   8  27
BRANCH   6  31
HETATM   31  C   UNL     1       3.940  36.052  62.707  1.00  0.00     0.075 A 
HETATM   32  O   UNL     1       3.763  36.303  64.038  1.00  0.00    -0.325 OA
HETATM   33  C   UNL     1       4.840  37.017  64.454  1.00  0.00     0.142 A 
HETATM   34  C   UNL     1       5.707  37.236  63.411  1.00  0.00     0.027 A 
HETATM   35  C   UNL     1       5.125  36.618  62.279  1.00  0.00     0.037 A 
ENDBRANCH   6  31
TORSDOF 6
ENDMDL
