MODEL 1
REMARK VINA RESULT:     -10.0      0.000      0.000
REMARK  8 active torsions:
REMARK  status: ('A' for Active; 'I' for Inactive)
REMARK    1  A    between atoms: C_2  and  S_3 
REMARK    2  A    between atoms: C_2  and  C_24 
REMARK    3  A    between atoms: S_3  and  C_4 
REMARK    4  A    between atoms: N_5  and  C_6 
REMARK    5  A    between atoms: C_13  and  C_14 
REMARK    6  A    between atoms: C_14  and  N_15 
REMARK       I    between atoms: C_24  and  N_25 
REMARK    7  A    between atoms: N_25  and  C_26 
REMARK    8  A    between atoms: C_29  and  C_30 
REMARK       I    between atoms: C_30  and  N_31 
ROOT
HETATM    1  C   UNL     1       6.037  28.320  57.243  1.00  0.00     0.197 A 
HETATM    2  N   UNL     1       6.293  29.654  57.523  1.00  0.00    -0.274 N 
HETATM    3  C   UNL     1       7.594  29.638  58.023  1.00  0.00     0.161 A 
HETATM    4  N   UNL     1       8.025  28.393  58.099  1.00  0.00    -0.132 NA
HETATM    5  N   UNL     1       7.059  27.577  57.601  1.00  0.00    -0.122 NA
ENDROOT
BRANCH   1   6
HETATM    6  S   UNL     1       4.664  27.735  56.363  1.00  0.00    -0.076 SA
BRANCH   6   7
HETATM    7  C   UNL     1       5.289  27.756  54.640  1.00  0.00     0.143 C 
HETATM    8  C   UNL     1       4.323  28.508  53.725  1.00  0.00     0.031 C 
BRANCH   7   9
HETATM    9  C   UNL     1       5.480  26.323  54.112  1.00  0.00     0.236 C 
HETATM   10  N   UNL     1       6.543  25.679  54.740  1.00  0.00    -0.326 N 
HETATM   11  H   UNL     1       7.026  26.190  55.469  1.00  0.00     0.169 HD
HETATM   12  O   UNL     1       4.783  25.843  53.224  1.00  0.00    -0.272 OA
BRANCH  10  13
HETATM   13  C   UNL     1       7.040  24.385  54.484  1.00  0.00     0.034 A 
HETATM   14  C   UNL     1       7.435  23.929  53.225  1.00  0.00     0.030 A 
HETATM   15  C   UNL     1       7.927  22.627  53.058  1.00  0.00     0.019 A 
HETATM   16  C   UNL     1       8.023  21.762  54.152  1.00  0.00     0.032 A 
HETATM   17  C   UNL     1       7.640  22.220  55.417  1.00  0.00     0.019 A 
HETATM   18  C   UNL     1       7.150  23.520  55.580  1.00  0.00     0.030 A 
BRANCH  16  19
HETATM   19  C   UNL     1       8.542  20.373  54.036  1.00  0.00     0.249 C 
HETATM   20  N   UNL     1       8.947  19.746  55.181  1.00  0.00    -0.366 N 
HETATM   21  H   UNL     1       9.091  20.225  56.057  1.00  0.00     0.159 HD
HETATM   22  H   UNL     1       9.379  18.838  55.066  1.00  0.00     0.159 HD
HETATM   23  O   UNL     1       8.637  19.817  52.950  1.00  0.00    -0.268 OA
ENDBRANCH  16  19
ENDBRANCH  10  13
ENDBRANCH   7   9
ENDBRANCH   6   7
ENDBRANCH   1   6
BRANCH   2  24
HETATM   24  C   UNL     1       5.433  30.781  57.405  1.00  0.00     0.043 A 
HETATM   25  C   UNL     1       5.364  31.484  56.192  1.00  0.00     0.033 A 
HETATM   26  C   UNL     1       4.495  32.571  56.061  1.00  0.00     0.044 A 
HETATM   27  C   UNL     1       3.704  32.954  57.136  1.00  0.00     0.116 A 
HETATM   28  F   UNL     1       2.871  33.992  57.008  1.00  0.00    -0.206 F 
HETATM   29  C   UNL     1       3.770  32.274  58.346  1.00  0.00     0.044 A 
HETATM   30  C   UNL     1       4.636  31.185  58.487  1.00  0.00     0.033 A 
ENDBRANCH   2  24
BRANCH   3  31
HETATM   31  C   UNL     1       8.353  30.794  58.574  1.00  0.00     0.315 C 
BRANCH  31  32
HETATM   32  N   UNL     1       8.030  31.026  60.049  1.00  0.00    -0.064 N 
HETATM   33  H   UNL     1       7.262  30.365  60.250  1.00  0.00     0.280 HD
HETATM   34  C   UNL     1       9.169  30.629  60.964  1.00  0.00     0.235 C 
HETATM   35  C   UNL     1       8.697  30.703  62.409  1.00  0.00     0.028 C 
HETATM   36  C   UNL     1       8.167  32.091  62.751  1.00  0.00     0.003 C 
HETATM   37  C   UNL     1       7.080  32.524  61.773  1.00  0.00     0.028 C 
HETATM   38  C   UNL     1       7.541  32.422  60.325  1.00  0.00     0.235 C 
ENDBRANCH  31  32
ENDBRANCH   3  31
TORSDOF 8
ENDMDL
MODEL 2
REMARK VINA RESULT:      -9.6      4.441      9.996
REMARK  8 active torsions:
REMARK  status: ('A' for Active; 'I' for Inactive)
REMARK    1  A    between atoms: C_2  and  S_3 
REMARK    2  A    between atoms: C_2  and  C_24 
REMARK    3  A    between atoms: S_3  and  C_4 
REMARK    4  A    between atoms: N_5  and  C_6 
REMARK    5  A    between atoms: C_13  and  C_14 
REMARK    6  A    between atoms: C_14  and  N_15 
REMARK       I    between atoms: C_24  and  N_25 
REMARK    7  A    between atoms: N_25  and  C_26 
REMARK    8  A    between atoms: C_29  and  C_30 
REMARK       I    between atoms: C_30  and  N_31 
ROOT
HETATM    1  C   UNL     1       7.072  29.000  56.675  1.00  0.00     0.197 A 
HETATM    2  N   UNL     1       6.458  28.167  55.752  1.00  0.00    -0.274 N 
HETATM    3  C   UNL     1       5.486  28.982  55.176  1.00  0.00     0.161 A 
HETATM    4  N   UNL     1       5.484  30.161  55.770  1.00  0.00    -0.132 NA
HETATM    5  N   UNL     1       6.481  30.172  56.693  1.00  0.00    -0.122 NA
ENDROOT
BRANCH   1   6
HETATM    6  S   UNL     1       8.530  28.628  57.534  1.00  0.00    -0.076 SA
BRANCH   6   7
HETATM    7  C   UNL     1       9.558  30.104  57.182  1.00  0.00     0.143 C 
HETATM    8  C   UNL     1      11.010  29.704  56.930  1.00  0.00     0.031 C 
BRANCH   7   9
HETATM    9  C   UNL     1       9.499  31.101  58.353  1.00  0.00     0.236 C 
HETATM   10  N   UNL     1       8.522  30.751  59.281  1.00  0.00    -0.326 N 
HETATM   11  H   UNL     1       8.006  29.896  59.108  1.00  0.00     0.169 HD
HETATM   12  O   UNL     1      10.220  32.091  58.420  1.00  0.00    -0.272 OA
BRANCH  10  13
HETATM   13  C   UNL     1       8.151  31.448  60.448  1.00  0.00     0.034 A 
HETATM   14  C   UNL     1       8.856  31.396  61.653  1.00  0.00     0.030 A 
HETATM   15  C   UNL     1       8.422  32.128  62.767  1.00  0.00     0.019 A 
HETATM   16  C   UNL     1       7.270  32.916  62.690  1.00  0.00     0.032 A 
HETATM   17  C   UNL     1       6.569  32.980  61.481  1.00  0.00     0.019 A 
HETATM   18  C   UNL     1       7.005  32.249  60.372  1.00  0.00     0.030 A 
BRANCH  16  19
HETATM   19  C   UNL     1       6.766  33.718  63.837  1.00  0.00     0.249 C 
HETATM   20  N   UNL     1       7.291  33.464  65.073  1.00  0.00    -0.366 N 
HETATM   21  H   UNL     1       7.851  32.652  65.284  1.00  0.00     0.159 HD
HETATM   22  H   UNL     1       6.868  33.958  65.849  1.00  0.00     0.159 HD
HETATM   23  O   UNL     1       5.885  34.556  63.690  1.00  0.00    -0.268 OA
ENDBRANCH  16  19
ENDBRANCH  10  13
ENDBRANCH   7   9
ENDBRANCH   6   7
ENDBRANCH   1   6
BRANCH   2  24
HETATM   24  C   UNL     1       6.693  26.791  55.483  1.00  0.00     0.043 A 
HETATM   25  C   UNL     1       6.166  25.811  56.339  1.00  0.00     0.033 A 
HETATM   26  C   UNL     1       6.365  24.456  56.059  1.00  0.00     0.044 A 
HETATM   27  C   UNL     1       7.089  24.084  54.935  1.00  0.00     0.116 A 
HETATM   28  F   UNL     1       7.275  22.787  54.667  1.00  0.00    -0.206 F 
HETATM   29  C   UNL     1       7.626  25.043  54.085  1.00  0.00     0.044 A 
HETATM   30  C   UNL     1       7.432  26.401  54.356  1.00  0.00     0.033 A 
ENDBRANCH   2  24
BRANCH   3  31
HETATM   31  C   UNL     1       4.459  28.577  54.177  1.00  0.00     0.315 C 
BRANCH  31  32
HETATM   32  N   UNL     1       5.051  28.471  52.773  1.00  0.00    -0.064 N 
HETATM   33  H   UNL     1       6.072  28.439  52.928  1.00  0.00     0.280 HD
HETATM   34  C   UNL     1       4.695  27.169  52.086  1.00  0.00     0.235 C 
HETATM   35  C   UNL     1       5.480  27.059  50.787  1.00  0.00     0.028 C 
HETATM   36  C   UNL     1       5.224  28.255  49.878  1.00  0.00     0.003 C 
HETATM   37  C   UNL     1       5.500  29.569  50.602  1.00  0.00     0.028 C 
HETATM   38  C   UNL     1       4.738  29.668  51.917  1.00  0.00     0.235 C 
ENDBRANCH  31  32
ENDBRANCH   3  31
TORSDOF 8
ENDMDL
MODEL 3
REMARK VINA RESULT:      -9.4      3.808      9.930
REMARK  8 active torsions:
REMARK  status: ('A' for Active; 'I' for Inactive)
REMARK    1  A    between atoms: C_2  and  S_3 
REMARK    2  A    between atoms: C_2  and  C_24 
REMARK    3  A    between atoms: S_3  and  C_4 
REMARK    4  A    between atoms: N_5  and  C_6 
REMARK    5  A    between atoms: C_13  and  C_14 
REMARK    6  A    between atoms: C_14  and  N_15 
REMARK       I    between atoms: C_24  and  N_25 
REMARK    7  A    between atoms: N_25  and  C_26 
REMARK    8  A    between atoms: C_29  and  C_30 
REMARK       I    between atoms: C_30  and  N_31 
ROOT
HETATM    1  C   UNL     1       8.078  28.015  56.781  1.00  0.00     0.197 A 
HETATM    2  N   UNL     1       7.133  27.288  56.072  1.00  0.00    -0.274 N 
HETATM    3  C   UNL     1       7.203  26.019  56.647  1.00  0.00     0.161 A 
HETATM    4  N   UNL     1       8.160  25.995  57.555  1.00  0.00    -0.132 NA
HETATM    5  N   UNL     1       8.693  27.241  57.645  1.00  0.00    -0.122 NA
ENDROOT
BRANCH   1   6
HETATM    6  S   UNL     1       8.280  29.734  56.691  1.00  0.00    -0.076 SA
BRANCH   6   7
HETATM    7  C   UNL     1       6.890  30.327  57.728  1.00  0.00     0.143 C 
HETATM    8  C   UNL     1       5.888  31.117  56.887  1.00  0.00     0.031 C 
BRANCH   7   9
HETATM    9  C   UNL     1       7.405  31.215  58.874  1.00  0.00     0.236 C 
HETATM   10  N   UNL     1       6.538  31.207  59.963  1.00  0.00    -0.326 N 
HETATM   11  H   UNL     1       5.719  30.615  59.897  1.00  0.00     0.169 HD
HETATM   12  O   UNL     1       8.444  31.862  58.798  1.00  0.00    -0.272 OA
BRANCH  10  13
HETATM   13  C   UNL     1       6.656  31.933  61.166  1.00  0.00     0.034 A 
HETATM   14  C   UNL     1       7.556  31.622  62.187  1.00  0.00     0.030 A 
HETATM   15  C   UNL     1       7.614  32.403  63.351  1.00  0.00     0.019 A 
HETATM   16  C   UNL     1       6.764  33.501  63.508  1.00  0.00     0.032 A 
HETATM   17  C   UNL     1       5.870  33.823  62.481  1.00  0.00     0.019 A 
HETATM   18  C   UNL     1       5.815  33.043  61.322  1.00  0.00     0.030 A 
BRANCH  16  19
HETATM   19  C   UNL     1       6.785  34.368  64.716  1.00  0.00     0.249 C 
HETATM   20  N   UNL     1       6.195  35.598  64.630  1.00  0.00    -0.366 N 
HETATM   21  H   UNL     1       5.919  36.023  63.758  1.00  0.00     0.159 HD
HETATM   22  H   UNL     1       6.301  36.203  65.435  1.00  0.00     0.159 HD
HETATM   23  O   UNL     1       7.339  34.010  65.748  1.00  0.00    -0.268 OA
ENDBRANCH  16  19
ENDBRANCH  10  13
ENDBRANCH   7   9
ENDBRANCH   6   7
ENDBRANCH   1   6
BRANCH   2  24
HETATM   24  C   UNL     1       6.323  27.689  54.975  1.00  0.00     0.043 A 
HETATM   25  C   UNL     1       4.963  27.968  55.175  1.00  0.00     0.033 A 
HETATM   26  C   UNL     1       4.170  28.397  54.107  1.00  0.00     0.044 A 
HETATM   27  C   UNL     1       4.734  28.540  52.846  1.00  0.00     0.116 A 
HETATM   28  F   UNL     1       3.975  28.953  51.825  1.00  0.00    -0.206 F 
HETATM   29  C   UNL     1       6.077  28.256  52.630  1.00  0.00     0.044 A 
HETATM   30  C   UNL     1       6.878  27.828  53.693  1.00  0.00     0.033 A 
ENDBRANCH   2  24
BRANCH   3  31
HETATM   31  C   UNL     1       6.467  24.801  56.211  1.00  0.00     0.315 C 
BRANCH  31  32
HETATM   32  N   UNL     1       7.245  24.023  55.151  1.00  0.00    -0.064 N 
HETATM   33  H   UNL     1       8.177  24.470  55.140  1.00  0.00     0.280 HD
HETATM   34  C   UNL     1       7.481  22.580  55.543  1.00  0.00     0.235 C 
HETATM   35  C   UNL     1       8.424  21.937  54.536  1.00  0.00     0.028 C 
HETATM   36  C   UNL     1       7.880  22.046  53.117  1.00  0.00     0.003 C 
HETATM   37  C   UNL     1       7.560  23.493  52.756  1.00  0.00     0.028 C 
HETATM   38  C   UNL     1       6.641  24.146  53.779  1.00  0.00     0.235 C 
ENDBRANCH  31  32
ENDBRANCH   3  31
TORSDOF 8
ENDMDL
MODEL 4
REMARK VINA RESULT:      -9.3      4.896      9.074
REMARK  8 active torsions:
REMARK  status: ('A' for Active; 'I' for Inactive)
REMARK    1  A    between atoms: C_2  and  S_3 
REMARK    2  A    between atoms: C_2  and  C_24 
REMARK    3  A    between atoms: S_3  and  C_4 
REMARK    4  A    between atoms: N_5  and  C_6 
REMARK    5  A    between atoms: C_13  and  C_14 
REMARK    6  A    between atoms: C_14  and  N_15 
REMARK       I    between atoms: C_24  and  N_25 
REMARK    7  A    between atoms: N_25  and  C_26 
REMARK    8  A    between atoms: C_29  and  C_30 
REMARK       I    between atoms: C_30  and  N_31 
ROOT
HETATM    1  C   UNL     1       5.092  26.199  53.264  1.00  0.00     0.197 A 
HETATM    2  N   UNL     1       6.185  26.180  54.116  1.00  0.00    -0.274 N 
HETATM    3  C   UNL     1       6.688  24.888  53.971  1.00  0.00     0.161 A 
HETATM    4  N   UNL     1       5.906  24.195  53.165  1.00  0.00    -0.132 NA
HETATM    5  N   UNL     1       4.922  25.017  52.716  1.00  0.00    -0.122 NA
ENDROOT
BRANCH   1   6
HETATM    6  S   UNL     1       4.201  27.617  52.821  1.00  0.00    -0.076 SA
BRANCH   6   7
HETATM    7  C   UNL     1       5.148  28.215  51.370  1.00  0.00     0.143 C 
HETATM    8  C   UNL     1       5.254  29.739  51.385  1.00  0.00     0.031 C 
BRANCH   7   9
HETATM    9  C   UNL     1       4.480  27.763  50.059  1.00  0.00     0.236 C 
HETATM   10  N   UNL     1       3.216  28.325  49.904  1.00  0.00    -0.326 N 
HETATM   11  H   UNL     1       2.905  28.970  50.620  1.00  0.00     0.169 HD
HETATM   12  O   UNL     1       5.010  26.979  49.279  1.00  0.00    -0.272 OA
BRANCH  10  13
HETATM   13  C   UNL     1       2.296  28.105  48.858  1.00  0.00     0.034 A 
HETATM   14  C   UNL     1       2.106  26.875  48.224  1.00  0.00     0.030 A 
HETATM   15  C   UNL     1       1.163  26.739  47.195  1.00  0.00     0.019 A 
HETATM   16  C   UNL     1       0.404  27.838  46.784  1.00  0.00     0.032 A 
HETATM   17  C   UNL     1       0.583  29.068  47.425  1.00  0.00     0.019 A 
HETATM   18  C   UNL     1       1.524  29.200  48.451  1.00  0.00     0.030 A 
BRANCH  16  19
HETATM   19  C   UNL     1      -0.614  27.753  45.703  1.00  0.00     0.249 C 
HETATM   20  N   UNL     1      -1.666  28.624  45.746  1.00  0.00    -0.366 N 
HETATM   21  H   UNL     1      -1.892  29.184  46.554  1.00  0.00     0.159 HD
HETATM   22  H   UNL     1      -2.391  28.487  45.052  1.00  0.00     0.159 HD
HETATM   23  O   UNL     1      -0.535  26.910  44.818  1.00  0.00    -0.268 OA
ENDBRANCH  16  19
ENDBRANCH  10  13
ENDBRANCH   7   9
ENDBRANCH   6   7
ENDBRANCH   1   6
BRANCH   2  24
HETATM   24  C   UNL     1       6.663  27.193  54.992  1.00  0.00     0.043 A 
HETATM   25  C   UNL     1       6.086  27.349  56.262  1.00  0.00     0.033 A 
HETATM   26  C   UNL     1       6.575  28.320  57.140  1.00  0.00     0.044 A 
HETATM   27  C   UNL     1       7.632  29.132  56.749  1.00  0.00     0.116 A 
HETATM   28  F   UNL     1       8.101  30.058  57.592  1.00  0.00    -0.206 F 
HETATM   29  C   UNL     1       8.206  28.996  55.491  1.00  0.00     0.044 A 
HETATM   30  C   UNL     1       7.724  28.027  54.606  1.00  0.00     0.033 A 
ENDBRANCH   2  24
BRANCH   3  31
HETATM   31  C   UNL     1       7.815  24.278  54.729  1.00  0.00     0.315 C 
BRANCH  31  32
HETATM   32  N   UNL     1       7.792  22.753  54.641  1.00  0.00    -0.064 N 
HETATM   33  H   UNL     1       6.843  22.532  54.299  1.00  0.00     0.280 HD
HETATM   34  C   UNL     1       8.746  22.215  53.596  1.00  0.00     0.235 C 
HETATM   35  C   UNL     1       8.518  20.719  53.436  1.00  0.00     0.028 C 
HETATM   36  C   UNL     1       8.676  19.986  54.763  1.00  0.00     0.003 C 
HETATM   37  C   UNL     1       7.777  20.589  55.838  1.00  0.00     0.028 C 
HETATM   38  C   UNL     1       7.983  22.091  55.978  1.00  0.00     0.235 C 
ENDBRANCH  31  32
ENDBRANCH   3  31
TORSDOF 8
ENDMDL
MODEL 5
REMARK VINA RESULT:      -9.3      3.366      7.055
REMARK  8 active torsions:
REMARK  status: ('A' for Active; 'I' for Inactive)
REMARK    1  A    between atoms: C_2  and  S_3 
REMARK    2  A    between atoms: C_2  and  C_24 
REMARK    3  A    between atoms: S_3  and  C_4 
REMARK    4  A    between atoms: N_5  and  C_6 
REMARK    5  A    between atoms: C_13  and  C_14 
REMARK    6  A    between atoms: C_14  and  N_15 
REMARK       I    between atoms: C_24  and  N_25 
REMARK    7  A    between atoms: N_25  and  C_26 
REMARK    8  A    between atoms: C_29  and  C_30 
REMARK       I    between atoms: C_30  and  N_31 
ROOT
HETATM    1  C   UNL     1       5.410  28.026  56.975  1.00  0.00     0.197 A 
HETATM    2  N   UNL     1       6.761  27.727  56.872  1.00  0.00    -0.274 N 
HETATM    3  C   UNL     1       6.773  26.350  56.657  1.00  0.00     0.161 A 
HETATM    4  N   UNL     1       5.540  25.881  56.710  1.00  0.00    -0.132 NA
HETATM    5  N   UNL     1       4.694  26.928  56.895  1.00  0.00    -0.122 NA
ENDROOT
BRANCH   1   6
HETATM    6  S   UNL     1       4.746  29.626  56.999  1.00  0.00    -0.076 SA
BRANCH   6   7
HETATM    7  C   UNL     1       5.187  30.239  55.329  1.00  0.00     0.143 C 
HETATM    8  C   UNL     1       4.693  31.670  55.131  1.00  0.00     0.031 C 
BRANCH   7   9
HETATM    9  C   UNL     1       4.583  29.335  54.240  1.00  0.00     0.236 C 
HETATM   10  N   UNL     1       5.471  29.130  53.187  1.00  0.00    -0.326 N 
HETATM   11  H   UNL     1       6.389  29.550  53.269  1.00  0.00     0.169 HD
HETATM   12  O   UNL     1       3.443  28.887  54.305  1.00  0.00    -0.272 OA
BRANCH  10  13
HETATM   13  C   UNL     1       5.249  28.403  52.000  1.00  0.00     0.034 A 
HETATM   14  C   UNL     1       5.457  27.028  51.870  1.00  0.00     0.030 A 
HETATM   15  C   UNL     1       5.205  26.379  50.653  1.00  0.00     0.019 A 
HETATM   16  C   UNL     1       4.747  27.102  49.548  1.00  0.00     0.032 A 
HETATM   17  C   UNL     1       4.525  28.477  49.679  1.00  0.00     0.019 A 
HETATM   18  C   UNL     1       4.777  29.121  50.895  1.00  0.00     0.030 A 
BRANCH  16  19
HETATM   19  C   UNL     1       4.457  26.467  48.235  1.00  0.00     0.249 C 
HETATM   20  N   UNL     1       3.313  25.728  48.122  1.00  0.00    -0.366 N 
HETATM   21  H   UNL     1       2.759  25.434  48.913  1.00  0.00     0.159 HD
HETATM   22  H   UNL     1       3.183  25.233  47.249  1.00  0.00     0.159 HD
HETATM   23  O   UNL     1       5.230  26.571  47.292  1.00  0.00    -0.268 OA
ENDBRANCH  16  19
ENDBRANCH  10  13
ENDBRANCH   7   9
ENDBRANCH   6   7
ENDBRANCH   1   6
BRANCH   2  24
HETATM   24  C   UNL     1       7.887  28.583  57.015  1.00  0.00     0.043 A 
HETATM   25  C   UNL     1       8.167  29.168  58.260  1.00  0.00     0.033 A 
HETATM   26  C   UNL     1       9.292  29.981  58.416  1.00  0.00     0.044 A 
HETATM   27  C   UNL     1      10.130  30.212  57.332  1.00  0.00     0.116 A 
HETATM   28  F   UNL     1      11.208  30.988  57.483  1.00  0.00    -0.206 F 
HETATM   29  C   UNL     1       9.859  29.648  56.091  1.00  0.00     0.044 A 
HETATM   30  C   UNL     1       8.736  28.832  55.926  1.00  0.00     0.033 A 
ENDBRANCH   2  24
BRANCH   3  31
HETATM   31  C   UNL     1       7.971  25.472  56.565  1.00  0.00     0.315 C 
BRANCH  31  32
HETATM   32  N   UNL     1       7.795  24.390  55.501  1.00  0.00    -0.064 N 
HETATM   33  H   UNL     1       6.884  23.958  55.724  1.00  0.00     0.280 HD
HETATM   34  C   UNL     1       7.652  24.962  54.106  1.00  0.00     0.235 C 
HETATM   35  C   UNL     1       7.285  23.842  53.143  1.00  0.00     0.028 C 
HETATM   36  C   UNL     1       8.312  22.717  53.180  1.00  0.00     0.003 C 
HETATM   37  C   UNL     1       8.519  22.203  54.601  1.00  0.00     0.028 C 
HETATM   38  C   UNL     1       8.856  23.326  55.571  1.00  0.00     0.235 C 
ENDBRANCH  31  32
ENDBRANCH   3  31
TORSDOF 8
ENDMDL
MODEL 6
REMARK VINA RESULT:      -9.1      4.150     10.146
REMARK  8 active torsions:
REMARK  status: ('A' for Active; 'I' for Inactive)
REMARK    1  A    between atoms: C_2  and  S_3 
REMARK    2  A    between atoms: C_2  and  C_24 
REMARK    3  A    between atoms: S_3  and  C_4 
REMARK    4  A    between atoms: N_5  and  C_6 
REMARK    5  A    between atoms: C_13  and  C_14 
REMARK    6  A    between atoms: C_14  and  N_15 
REMARK       I    between atoms: C_24  and  N_25 
REMARK    7  A    between atoms: N_25  and  C_26 
REMARK    8  A    between atoms: C_29  and  C_30 
REMARK       I    between atoms: C_30  and  N_31 
ROOT
HETATM    1  C   UNL     1       7.012  28.213  55.435  1.00  0.00     0.197 A 
HETATM    2  N   UNL     1       6.421  27.375  54.501  1.00  0.00    -0.274 N 
HETATM    3  C   UNL     1       5.248  28.045  54.159  1.00  0.00     0.161 A 
HETATM    4  N   UNL     1       5.131  29.138  54.890  1.00  0.00    -0.132 NA
HETATM    5  N   UNL     1       6.237  29.246  55.673  1.00  0.00    -0.122 NA
ENDROOT
BRANCH   1   6
HETATM    6  S   UNL     1       8.623  28.038  56.048  1.00  0.00    -0.076 SA
BRANCH   6   7
HETATM    7  C   UNL     1       8.933  29.699  56.761  1.00  0.00     0.143 C 
HETATM    8  C   UNL     1      10.427  30.014  56.764  1.00  0.00     0.031 C 
BRANCH   7   9
HETATM    9  C   UNL     1       8.390  29.784  58.198  1.00  0.00     0.236 C 
HETATM   10  N   UNL     1       8.451  31.083  58.696  1.00  0.00    -0.326 N 
HETATM   11  H   UNL     1       8.795  31.802  58.072  1.00  0.00     0.169 HD
HETATM   12  O   UNL     1       7.986  28.805  58.815  1.00  0.00    -0.272 OA
BRANCH  10  13
HETATM   13  C   UNL     1       8.089  31.531  59.983  1.00  0.00     0.034 A 
HETATM   14  C   UNL     1       8.908  31.430  61.110  1.00  0.00     0.030 A 
HETATM   15  C   UNL     1       8.474  31.908  62.354  1.00  0.00     0.019 A 
HETATM   16  C   UNL     1       7.209  32.489  62.486  1.00  0.00     0.032 A 
HETATM   17  C   UNL     1       6.392  32.603  61.356  1.00  0.00     0.019 A 
HETATM   18  C   UNL     1       6.828  32.125  60.117  1.00  0.00     0.030 A 
BRANCH  16  19
HETATM   19  C   UNL     1       6.697  33.018  63.778  1.00  0.00     0.249 C 
HETATM   20  N   UNL     1       7.611  33.453  64.696  1.00  0.00    -0.366 N 
HETATM   21  H   UNL     1       8.600  33.265  64.630  1.00  0.00     0.159 HD
HETATM   22  H   UNL     1       7.245  33.724  65.600  1.00  0.00     0.159 HD
HETATM   23  O   UNL     1       5.499  33.036  64.030  1.00  0.00    -0.268 OA
ENDBRANCH  16  19
ENDBRANCH  10  13
ENDBRANCH   7   9
ENDBRANCH   6   7
ENDBRANCH   1   6
BRANCH   2  24
HETATM   24  C   UNL     1       6.847  26.101  54.036  1.00  0.00     0.043 A 
HETATM   25  C   UNL     1       6.494  24.942  54.746  1.00  0.00     0.033 A 
HETATM   26  C   UNL     1       6.881  23.685  54.274  1.00  0.00     0.044 A 
HETATM   27  C   UNL     1       7.620  23.587  53.102  1.00  0.00     0.116 A 
HETATM   28  F   UNL     1       7.987  22.383  52.650  1.00  0.00    -0.206 F 
HETATM   29  C   UNL     1       7.986  24.726  52.395  1.00  0.00     0.044 A 
HETATM   30  C   UNL     1       7.603  25.988  52.859  1.00  0.00     0.033 A 
ENDBRANCH   2  24
BRANCH   3  31
HETATM   31  C   UNL     1       4.170  27.555  53.257  1.00  0.00     0.315 C 
BRANCH  31  32
HETATM   32  N   UNL     1       4.396  28.004  51.815  1.00  0.00    -0.064 N 
HETATM   33  H   UNL     1       3.477  28.367  51.513  1.00  0.00     0.280 HD
HETATM   34  C   UNL     1       5.356  29.171  51.712  1.00  0.00     0.235 C 
HETATM   35  C   UNL     1       5.371  29.679  50.277  1.00  0.00     0.028 C 
HETATM   36  C   UNL     1       5.736  28.571  49.297  1.00  0.00     0.003 C 
HETATM   37  C   UNL     1       4.822  27.361  49.465  1.00  0.00     0.028 C 
HETATM   38  C   UNL     1       4.783  26.870  50.905  1.00  0.00     0.235 C 
ENDBRANCH  31  32
ENDBRANCH   3  31
TORSDOF 8
ENDMDL
MODEL 7
REMARK VINA RESULT:      -9.1      4.066      8.250
REMARK  8 active torsions:
REMARK  status: ('A' for Active; 'I' for Inactive)
REMARK    1  A    between atoms: C_2  and  S_3 
REMARK    2  A    between atoms: C_2  and  C_24 
REMARK    3  A    between atoms: S_3  and  C_4 
REMARK    4  A    between atoms: N_5  and  C_6 
REMARK    5  A    between atoms: C_13  and  C_14 
REMARK    6  A    between atoms: C_14  and  N_15 
REMARK       I    between atoms: C_24  and  N_25 
REMARK    7  A    between atoms: N_25  and  C_26 
REMARK    8  A    between atoms: C_29  and  C_30 
REMARK       I    between atoms: C_30  and  N_31 
ROOT
HETATM    1  C   UNL     1       8.051  27.180  56.166  1.00  0.00     0.197 A 
HETATM    2  N   UNL     1       7.369  26.076  55.679  1.00  0.00    -0.274 N 
HETATM    3  C   UNL     1       7.485  25.143  56.708  1.00  0.00     0.161 A 
HETATM    4  N   UNL     1       8.237  25.637  57.674  1.00  0.00    -0.132 NA
HETATM    5  N   UNL     1       8.576  26.910  57.339  1.00  0.00    -0.122 NA
ENDROOT
BRANCH   1   6
HETATM    6  S   UNL     1       8.043  28.753  55.439  1.00  0.00    -0.076 SA
BRANCH   6   7
HETATM    7  C   UNL     1       6.481  29.457  56.089  1.00  0.00     0.143 C 
HETATM    8  C   UNL     1       6.171  28.894  57.475  1.00  0.00     0.031 C 
BRANCH   7   9
HETATM    9  C   UNL     1       5.309  29.153  55.140  1.00  0.00     0.236 C 
HETATM   10  N   UNL     1       5.679  29.282  53.804  1.00  0.00    -0.326 N 
HETATM   11  H   UNL     1       6.646  29.515  53.613  1.00  0.00     0.169 HD
HETATM   12  O   UNL     1       4.187  28.861  55.542  1.00  0.00    -0.272 OA
BRANCH  10  13
HETATM   13  C   UNL     1       4.864  29.129  52.665  1.00  0.00     0.034 A 
HETATM   14  C   UNL     1       3.472  29.016  52.702  1.00  0.00     0.030 A 
HETATM   15  C   UNL     1       2.734  28.873  51.518  1.00  0.00     0.019 A 
HETATM   16  C   UNL     1       3.384  28.834  50.281  1.00  0.00     0.032 A 
HETATM   17  C   UNL     1       4.777  28.959  50.240  1.00  0.00     0.019 A 
HETATM   18  C   UNL     1       5.509  29.102  51.422  1.00  0.00     0.030 A 
BRANCH  16  19
HETATM   19  C   UNL     1       2.654  28.690  48.994  1.00  0.00     0.249 C 
HETATM   20  N   UNL     1       2.670  27.468  48.384  1.00  0.00    -0.366 N 
HETATM   21  H   UNL     1       3.293  26.720  48.651  1.00  0.00     0.159 HD
HETATM   22  H   UNL     1       2.244  27.418  47.467  1.00  0.00     0.159 HD
HETATM   23  O   UNL     1       2.083  29.641  48.474  1.00  0.00    -0.268 OA
ENDBRANCH  16  19
ENDBRANCH  10  13
ENDBRANCH   7   9
ENDBRANCH   6   7
ENDBRANCH   1   6
BRANCH   2  24
HETATM   24  C   UNL     1       6.750  25.884  54.414  1.00  0.00     0.043 A 
HETATM   25  C   UNL     1       5.363  25.679  54.337  1.00  0.00     0.033 A 
HETATM   26  C   UNL     1       4.744  25.525  53.094  1.00  0.00     0.044 A 
HETATM   27  C   UNL     1       5.508  25.571  51.935  1.00  0.00     0.116 A 
HETATM   28  F   UNL     1       4.914  25.426  50.745  1.00  0.00    -0.206 F 
HETATM   29  C   UNL     1       6.883  25.762  51.996  1.00  0.00     0.044 A 
HETATM   30  C   UNL     1       7.511  25.917  53.236  1.00  0.00     0.033 A 
ENDBRANCH   2  24
BRANCH   3  31
HETATM   31  C   UNL     1       7.015  23.730  56.690  1.00  0.00     0.315 C 
BRANCH  31  32
HETATM   32  N   UNL     1       7.940  22.840  55.862  1.00  0.00    -0.064 N 
HETATM   33  H   UNL     1       8.823  23.374  55.804  1.00  0.00     0.280 HD
HETATM   34  C   UNL     1       8.284  21.544  56.564  1.00  0.00     0.235 C 
HETATM   35  C   UNL     1       9.356  20.814  55.768  1.00  0.00     0.028 C 
HETATM   36  C   UNL     1       8.910  20.567  54.331  1.00  0.00     0.003 C 
HETATM   37  C   UNL     1       8.481  21.864  53.655  1.00  0.00     0.028 C 
HETATM   38  C   UNL     1       7.430  22.611  54.465  1.00  0.00     0.235 C 
ENDBRANCH  31  32
ENDBRANCH   3  31
TORSDOF 8
ENDMDL
MODEL 8
REMARK VINA RESULT:      -9.1      3.799      9.513
REMARK  8 active torsions:
REMARK  status: ('A' for Active; 'I' for Inactive)
REMARK    1  A    between atoms: C_2  and  S_3 
REMARK    2  A    between atoms: C_2  and  C_24 
REMARK    3  A    between atoms: S_3  and  C_4 
REMARK    4  A    between atoms: N_5  and  C_6 
REMARK    5  A    between atoms: C_13  and  C_14 
REMARK    6  A    between atoms: C_14  and  N_15 
REMARK       I    between atoms: C_24  and  N_25 
REMARK    7  A    between atoms: N_25  and  C_26 
REMARK    8  A    between atoms: C_29  and  C_30 
REMARK       I    between atoms: C_30  and  N_31 
ROOT
HETATM    1  C   UNL     1       5.366  29.470  56.067  1.00  0.00     0.197 A 
HETATM    2  N   UNL     1       6.537  28.743  56.229  1.00  0.00    -0.274 N 
HETATM    3  C   UNL     1       6.130  27.425  56.028  1.00  0.00     0.161 A 
HETATM    4  N   UNL     1       4.824  27.385  55.845  1.00  0.00    -0.132 NA
HETATM    5  N   UNL     1       4.354  28.660  55.856  1.00  0.00    -0.122 NA
ENDROOT
BRANCH   1   6
HETATM    6  S   UNL     1       5.277  31.196  55.953  1.00  0.00    -0.076 SA
BRANCH   6   7
HETATM    7  C   UNL     1       3.666  31.540  56.759  1.00  0.00     0.143 C 
HETATM    8  C   UNL     1       3.039  32.812  56.190  1.00  0.00     0.031 C 
BRANCH   7   9
HETATM    9  C   UNL     1       3.840  31.693  58.280  1.00  0.00     0.236 C 
HETATM   10  N   UNL     1       4.890  32.550  58.597  1.00  0.00    -0.326 N 
HETATM   11  H   UNL     1       5.378  32.988  57.824  1.00  0.00     0.169 HD
HETATM   12  O   UNL     1       3.140  31.097  59.092  1.00  0.00    -0.272 OA
BRANCH  10  13
HETATM   13  C   UNL     1       5.370  32.890  59.878  1.00  0.00     0.034 A 
HETATM   14  C   UNL     1       4.811  33.878  60.691  1.00  0.00     0.030 A 
HETATM   15  C   UNL     1       5.347  34.148  61.958  1.00  0.00     0.019 A 
HETATM   16  C   UNL     1       6.456  33.437  62.423  1.00  0.00     0.032 A 
HETATM   17  C   UNL     1       7.011  32.438  61.616  1.00  0.00     0.019 A 
HETATM   18  C   UNL     1       6.474  32.170  60.353  1.00  0.00     0.030 A 
BRANCH  16  19
HETATM   19  C   UNL     1       7.063  33.676  63.759  1.00  0.00     0.249 C 
HETATM   20  N   UNL     1       6.550  34.687  64.522  1.00  0.00    -0.366 N 
HETATM   21  H   UNL     1       5.922  35.391  64.164  1.00  0.00     0.159 HD
HETATM   22  H   UNL     1       7.037  34.889  65.386  1.00  0.00     0.159 HD
HETATM   23  O   UNL     1       8.015  33.015  64.155  1.00  0.00    -0.268 OA
ENDBRANCH  16  19
ENDBRANCH  10  13
ENDBRANCH   7   9
ENDBRANCH   6   7
ENDBRANCH   1   6
BRANCH   2  24
HETATM   24  C   UNL     1       7.837  29.196  56.583  1.00  0.00     0.043 A 
HETATM   25  C   UNL     1       8.861  29.201  55.623  1.00  0.00     0.033 A 
HETATM   26  C   UNL     1      10.132  29.677  55.956  1.00  0.00     0.044 A 
HETATM   27  C   UNL     1      10.378  30.141  57.241  1.00  0.00     0.116 A 
HETATM   28  F   UNL     1      11.594  30.599  57.557  1.00  0.00    -0.206 F 
HETATM   29  C   UNL     1       9.377  30.132  58.205  1.00  0.00     0.044 A 
HETATM   30  C   UNL     1       8.102  29.657  57.881  1.00  0.00     0.033 A 
ENDBRANCH   2  24
BRANCH   3  31
HETATM   31  C   UNL     1       6.966  26.202  56.175  1.00  0.00     0.315 C 
BRANCH  31  32
HETATM   32  N   UNL     1       6.979  25.372  54.892  1.00  0.00    -0.064 N 
HETATM   33  H   UNL     1       5.981  25.247  54.659  1.00  0.00     0.280 HD
HETATM   34  C   UNL     1       7.588  26.117  53.723  1.00  0.00     0.235 C 
HETATM   35  C   UNL     1       7.383  25.305  52.453  1.00  0.00     0.028 C 
HETATM   36  C   UNL     1       7.970  23.905  52.586  1.00  0.00     0.003 C 
HETATM   37  C   UNL     1       7.420  23.190  53.816  1.00  0.00     0.028 C 
HETATM   38  C   UNL     1       7.598  24.015  55.083  1.00  0.00     0.235 C 
ENDBRANCH  31  32
ENDBRANCH   3  31
TORSDOF 8
ENDMDL
MODEL 9
REMARK VINA RESULT:      -8.8      3.198      5.545
REMARK  8 active torsions:
REMARK  status: ('A' for Active; 'I' for Inactive)
REMARK    1  A    between atoms: C_2  and  S_3 
REMARK    2  A    between atoms: C_2  and  C_24 
REMARK    3  A    between atoms: S_3  and  C_4 
REMARK    4  A    between atoms: N_5  and  C_6 
REMARK    5  A    between atoms: C_13  and  C_14 
REMARK    6  A    between atoms: C_14  and  N_15 
REMARK       I    between atoms: C_24  and  N_25 
REMARK    7  A    between atoms: N_25  and  C_26 
REMARK    8  A    between atoms: C_29  and  C_30 
REMARK       I    between atoms: C_30  and  N_31 
ROOT
HETATM    1  C   UNL     1       6.291  27.210  56.829  1.00  0.00     0.197 A 
HETATM    2  N   UNL     1       6.683  28.525  57.030  1.00  0.00    -0.274 N 
HETATM    3  C   UNL     1       5.483  29.232  56.992  1.00  0.00     0.161 A 
HETATM    4  N   UNL     1       4.490  28.408  56.714  1.00  0.00    -0.132 NA
HETATM    5  N   UNL     1       4.994  27.149  56.627  1.00  0.00    -0.122 NA
ENDROOT
BRANCH   1   6
HETATM    6  S   UNL     1       7.316  25.827  57.020  1.00  0.00    -0.076 SA
BRANCH   6   7
HETATM    7  C   UNL     1       6.671  24.703  55.723  1.00  0.00     0.143 C 
HETATM    8  C   UNL     1       7.365  23.344  55.793  1.00  0.00     0.031 C 
BRANCH   7   9
HETATM    9  C   UNL     1       6.877  25.310  54.324  1.00  0.00     0.236 C 
HETATM   10  N   UNL     1       5.706  25.880  53.832  1.00  0.00    -0.326 N 
HETATM   11  H   UNL     1       4.895  25.867  54.438  1.00  0.00     0.169 HD
HETATM   12  O   UNL     1       7.947  25.256  53.728  1.00  0.00    -0.272 OA
BRANCH  10  13
HETATM   13  C   UNL     1       5.504  26.483  52.574  1.00  0.00     0.034 A 
HETATM   14  C   UNL     1       5.596  27.857  52.335  1.00  0.00     0.030 A 
HETATM   15  C   UNL     1       5.386  28.375  51.050  1.00  0.00     0.019 A 
HETATM   16  C   UNL     1       5.073  27.523  49.987  1.00  0.00     0.032 A 
HETATM   17  C   UNL     1       4.993  26.146  50.220  1.00  0.00     0.019 A 
HETATM   18  C   UNL     1       5.203  25.632  51.503  1.00  0.00     0.030 A 
BRANCH  16  19
HETATM   19  C   UNL     1       4.846  28.014  48.602  1.00  0.00     0.249 C 
HETATM   20  N   UNL     1       5.458  27.346  47.579  1.00  0.00    -0.366 N 
HETATM   21  H   UNL     1       6.193  26.668  47.717  1.00  0.00     0.159 HD
HETATM   22  H   UNL     1       5.361  27.752  46.656  1.00  0.00     0.159 HD
HETATM   23  O   UNL     1       4.161  29.005  48.381  1.00  0.00    -0.268 OA
ENDBRANCH  16  19
ENDBRANCH  10  13
ENDBRANCH   7   9
ENDBRANCH   6   7
ENDBRANCH   1   6
BRANCH   2  24
HETATM   24  C   UNL     1       7.991  29.063  57.173  1.00  0.00     0.043 A 
HETATM   25  C   UNL     1       8.853  29.111  56.067  1.00  0.00     0.033 A 
HETATM   26  C   UNL     1      10.128  29.671  56.194  1.00  0.00     0.044 A 
HETATM   27  C   UNL     1      10.538  30.176  57.420  1.00  0.00     0.116 A 
HETATM   28  F   UNL     1      11.757  30.714  57.540  1.00  0.00    -0.206 F 
HETATM   29  C   UNL     1       9.700  30.125  58.527  1.00  0.00     0.044 A 
HETATM   30  C   UNL     1       8.423  29.568  58.410  1.00  0.00     0.033 A 
ENDBRANCH   2  24
BRANCH   3  31
HETATM   31  C   UNL     1       5.315  30.710  57.059  1.00  0.00     0.315 C 
BRANCH  31  32
HETATM   32  N   UNL     1       5.067  31.183  58.490  1.00  0.00    -0.064 N 
HETATM   33  H   UNL     1       5.257  30.350  59.071  1.00  0.00     0.280 HD
HETATM   34  C   UNL     1       6.060  32.235  58.937  1.00  0.00     0.235 C 
HETATM   35  C   UNL     1       5.869  32.503  60.422  1.00  0.00     0.028 C 
HETATM   36  C   UNL     1       4.437  32.924  60.732  1.00  0.00     0.003 C 
HETATM   37  C   UNL     1       3.434  31.904  60.202  1.00  0.00     0.028 C 
HETATM   38  C   UNL     1       3.644  31.612  58.723  1.00  0.00     0.235 C 
ENDBRANCH  31  32
ENDBRANCH   3  31
TORSDOF 8
ENDMDL
MODEL 10
REMARK VINA RESULT:      -8.7      3.773      5.840
REMARK  8 active torsions:
REMARK  status: ('A' for Active; 'I' for Inactive)
REMARK    1  A    between atoms: C_2  and  S_3 
REMARK    2  A    between atoms: C_2  and  C_24 
REMARK    3  A    between atoms: S_3  and  C_4 
REMARK    4  A    between atoms: N_5  and  C_6 
REMARK    5  A    between atoms: C_13  and  C_14 
REMARK    6  A    between atoms: C_14  and  N_15 
REMARK       I    between atoms: C_24  and  N_25 
REMARK    7  A    between atoms: N_25  and  C_26 
REMARK    8  A    between atoms: C_29  and  C_30 
REMARK       I    between atoms: C_30  and  N_31 
ROOT
HETATM    1  C   UNL     1       4.596  33.024  60.036  1.00  0.00     0.197 A 
HETATM    2  N   UNL     1       5.582  33.210  60.993  1.00  0.00    -0.274 N 
HETATM    3  C   UNL     1       5.204  34.393  61.624  1.00  0.00     0.161 A 
HETATM    4  N   UNL     1       4.134  34.891  61.032  1.00  0.00    -0.132 NA
HETATM    5  N   UNL     1       3.751  34.029  60.053  1.00  0.00    -0.122 NA
ENDROOT
BRANCH   1   6
HETATM    6  S   UNL     1       4.382  31.584  59.096  1.00  0.00    -0.076 SA
BRANCH   6   7
HETATM    7  C   UNL     1       5.495  31.899  57.673  1.00  0.00     0.143 C 
HETATM    8  C   UNL     1       4.873  32.915  56.717  1.00  0.00     0.031 C 
BRANCH   7   9
HETATM    9  C   UNL     1       5.789  30.595  56.912  1.00  0.00     0.236 C 
HETATM   10  N   UNL     1       6.138  29.560  57.776  1.00  0.00    -0.326 N 
HETATM   11  H   UNL     1       6.123  29.763  58.769  1.00  0.00     0.169 HD
HETATM   12  O   UNL     1       5.742  30.514  55.690  1.00  0.00    -0.272 OA
BRANCH  10  13
HETATM   13  C   UNL     1       6.518  28.245  57.439  1.00  0.00     0.034 A 
HETATM   14  C   UNL     1       5.624  27.242  57.056  1.00  0.00     0.030 A 
HETATM   15  C   UNL     1       6.087  25.960  56.729  1.00  0.00     0.019 A 
HETATM   16  C   UNL     1       7.452  25.664  56.790  1.00  0.00     0.032 A 
HETATM   17  C   UNL     1       8.350  26.670  57.161  1.00  0.00     0.019 A 
HETATM   18  C   UNL     1       7.886  27.949  57.486  1.00  0.00     0.030 A 
BRANCH  16  19
HETATM   19  C   UNL     1       8.000  24.325  56.450  1.00  0.00     0.249 C 
HETATM   20  N   UNL     1       8.239  23.453  57.475  1.00  0.00    -0.366 N 
HETATM   21  H   UNL     1       8.244  23.724  58.447  1.00  0.00     0.159 HD
HETATM   22  H   UNL     1       8.695  22.584  57.228  1.00  0.00     0.159 HD
HETATM   23  O   UNL     1       8.264  24.018  55.294  1.00  0.00    -0.268 OA
ENDBRANCH  16  19
ENDBRANCH  10  13
ENDBRANCH   7   9
ENDBRANCH   6   7
ENDBRANCH   1   6
BRANCH   2  24
HETATM   24  C   UNL     1       6.748  32.437  61.248  1.00  0.00     0.043 A 
HETATM   25  C   UNL     1       7.834  32.495  60.360  1.00  0.00     0.033 A 
HETATM   26  C   UNL     1       8.995  31.764  60.624  1.00  0.00     0.044 A 
HETATM   27  C   UNL     1       9.069  30.978  61.766  1.00  0.00     0.116 A 
HETATM   28  F   UNL     1      10.183  30.282  62.019  1.00  0.00    -0.206 F 
HETATM   29  C   UNL     1       7.998  30.902  62.648  1.00  0.00     0.044 A 
HETATM   30  C   UNL     1       6.832  31.630  62.393  1.00  0.00     0.033 A 
ENDBRANCH   2  24
BRANCH   3  31
HETATM   31  C   UNL     1       5.958  35.123  62.680  1.00  0.00     0.315 C 
BRANCH  31  32
HETATM   32  N   UNL     1       5.300  34.968  64.050  1.00  0.00    -0.064 N 
HETATM   33  H   UNL     1       4.524  34.307  63.887  1.00  0.00     0.280 HD
HETATM   34  C   UNL     1       6.209  34.300  65.061  1.00  0.00     0.235 C 
HETATM   35  C   UNL     1       5.416  34.007  66.326  1.00  0.00     0.028 C 
HETATM   36  C   UNL     1       4.787  35.273  66.895  1.00  0.00     0.003 C 
HETATM   37  C   UNL     1       3.944  35.991  65.847  1.00  0.00     0.028 C 
HETATM   38  C   UNL     1       4.726  36.258  64.569  1.00  0.00     0.235 C 
ENDBRANCH  31  32
ENDBRANCH   3  31
TORSDOF 8
ENDMDL
