MODEL 1
REMARK VINA RESULT:      -8.5      0.000      0.000
REMARK  9 active torsions:
REMARK  status: ('A' for Active; 'I' for Inactive)
REMARK    1  A    between atoms: C_4  and  C_5 
REMARK    2  A    between atoms: C_7  and  C_8 
REMARK    3  A    between atoms: C_8  and  C_9 
REMARK       I    between atoms: C_9  and  N_10 
REMARK    4  A    between atoms: N_10  and  C_11 
REMARK    5  A    between atoms: C_11  and  C_12 
REMARK    6  A    between atoms: C_12  and  N_13 
REMARK    7  A    between atoms: C_27  and  C_28 
REMARK    8  A    between atoms: C_28  and  O_29 
REMARK    9  A    between atoms: O_29  and  C_30 
ROOT
HETATM    1  C   UNL     1       5.303  28.735  52.474  1.00  0.00     0.166 C 
HETATM    2  N   UNL     1       4.984  29.310  53.818  1.00  0.00    -0.319 N 
HETATM    3  C   UNL     1       5.452  29.150  55.020  1.00  0.00     0.011 C 
HETATM    4  C   UNL     1       3.841  30.363  53.803  1.00  0.00     0.170 C 
HETATM    5  S   UNL     1       3.553  31.049  55.366  1.00  0.00    -0.086 SA
HETATM    6  C   UNL     1       4.710  29.890  56.117  1.00  0.00     0.135 C 
HETATM    7  N   UNL     1       3.144  30.713  52.785  1.00  0.00    -0.229 NA
HETATM    8  C   UNL     1       3.370  30.094  51.582  1.00  0.00     0.048 C 
HETATM    9  C   UNL     1       2.478  30.609  50.471  1.00  0.00     0.071 C 
HETATM   10  C   UNL     1       4.318  29.151  51.415  1.00  0.00     0.069 C 
ENDROOT
BRANCH   3  11
HETATM   11  C   UNL     1       6.555  28.174  55.342  1.00  0.00     0.156 C 
BRANCH  11  12
HETATM   12  C   UNL     1       6.100  26.893  56.015  1.00  0.00     0.223 C 
HETATM   13  N   UNL     1       7.003  25.851  55.971  1.00  0.00    -0.359 N 
HETATM   14  H   UNL     1       7.935  26.079  55.631  1.00  0.00     0.162 HD
HETATM   15  O   UNL     1       5.011  26.801  56.566  1.00  0.00    -0.273 OA
BRANCH  13  16
HETATM   16  C   UNL     1       6.987  24.782  56.979  1.00  0.00     0.150 C 
BRANCH  16  17
HETATM   17  C   UNL     1       8.190  23.815  57.017  1.00  0.00     0.254 C 
BRANCH  17  18
HETATM   18  N   UNL     1       7.986  22.609  56.114  1.00  0.00    -0.070 N 
HETATM   19  H   UNL     1       6.975  22.563  55.933  1.00  0.00     0.279 HD
HETATM   20  C   UNL     1       8.706  22.733  54.789  1.00  0.00     0.235 C 
HETATM   21  C   UNL     1       8.382  21.531  53.913  1.00  0.00     0.028 C 
HETATM   22  C   UNL     1       8.726  20.219  54.607  1.00  0.00     0.003 C 
HETATM   23  C   UNL     1       8.046  20.128  55.967  1.00  0.00     0.028 C 
HETATM   24  C   UNL     1       8.369  21.332  56.840  1.00  0.00     0.235 C 
ENDBRANCH  17  18
ENDBRANCH  16  17
ENDBRANCH  13  16
ENDBRANCH  11  12
ENDBRANCH   3  11
BRANCH   1  25
HETATM   25  C   UNL     1       5.491  27.223  52.565  1.00  0.00    -0.030 A 
HETATM   26  C   UNL     1       6.738  26.666  52.209  1.00  0.00     0.016 A 
HETATM   27  C   UNL     1       6.983  25.294  52.333  1.00  0.00    -0.061 A 
HETATM   28  C   UNL     1       8.313  24.724  51.931  1.00  0.00     0.048 C 
HETATM   29  C   UNL     1       5.947  24.461  52.762  1.00  0.00     0.007 A 
HETATM   30  C   UNL     1       4.696  24.990  53.076  1.00  0.00     0.001 A 
HETATM   31  C   UNL     1       4.463  26.363  52.981  1.00  0.00     0.009 A 
ENDBRANCH   1  25
BRANCH  10  32
HETATM   32  C   UNL     1       4.478  28.466  50.113  1.00  0.00     0.294 C 
HETATM   33  O   UNL     1       5.471  28.595  49.423  1.00  0.00    -0.259 OA
BRANCH  32  34
HETATM   34  O   UNL     1       3.425  27.639  49.934  1.00  0.00    -0.313 OA
BRANCH  34  35
HETATM   35  C   UNL     1       3.059  27.309  48.578  1.00  0.00     0.124 C 
HETATM   36  C   UNL     1       3.419  25.842  48.374  1.00  0.00     0.040 C 
HETATM   37  C   UNL     1       1.561  27.523  48.397  1.00  0.00     0.040 C 
ENDBRANCH  34  35
ENDBRANCH  32  34
ENDBRANCH  10  32
TORSDOF 9
ENDMDL
MODEL 2
REMARK VINA RESULT:      -8.2      3.198      5.311
REMARK  9 active torsions:
REMARK  status: ('A' for Active; 'I' for Inactive)
REMARK    1  A    between atoms: C_4  and  C_5 
REMARK    2  A    between atoms: C_7  and  C_8 
REMARK    3  A    between atoms: C_8  and  C_9 
REMARK       I    between atoms: C_9  and  N_10 
REMARK    4  A    between atoms: N_10  and  C_11 
REMARK    5  A    between atoms: C_11  and  C_12 
REMARK    6  A    between atoms: C_12  and  N_13 
REMARK    7  A    between atoms: C_27  and  C_28 
REMARK    8  A    between atoms: C_28  and  O_29 
REMARK    9  A    between atoms: O_29  and  C_30 
ROOT
HETATM    1  C   UNL     1       5.425  28.693  53.200  1.00  0.00     0.166 C 
HETATM    2  N   UNL     1       5.003  29.036  54.593  1.00  0.00    -0.319 N 
HETATM    3  C   UNL     1       5.347  28.638  55.782  1.00  0.00     0.011 C 
HETATM    4  C   UNL     1       3.909  30.138  54.672  1.00  0.00     0.170 C 
HETATM    5  S   UNL     1       3.501  30.550  56.303  1.00  0.00    -0.086 SA
HETATM    6  C   UNL     1       4.533  29.211  56.927  1.00  0.00     0.135 C 
HETATM    7  N   UNL     1       3.328  30.703  53.678  1.00  0.00    -0.229 NA
HETATM    8  C   UNL     1       3.642  30.297  52.407  1.00  0.00     0.048 C 
HETATM    9  C   UNL     1       2.883  31.051  51.335  1.00  0.00     0.071 C 
HETATM   10  C   UNL     1       4.564  29.346  52.153  1.00  0.00     0.069 C 
ENDROOT
BRANCH   3  11
HETATM   11  C   UNL     1       6.373  27.558  56.014  1.00  0.00     0.156 C 
BRANCH  11  12
HETATM   12  C   UNL     1       7.379  27.854  57.110  1.00  0.00     0.223 C 
HETATM   13  N   UNL     1       8.014  29.075  57.014  1.00  0.00    -0.359 N 
HETATM   14  H   UNL     1       7.646  29.718  56.315  1.00  0.00     0.162 HD
HETATM   15  O   UNL     1       7.600  27.065  58.019  1.00  0.00    -0.273 OA
BRANCH  13  16
HETATM   16  C   UNL     1       8.570  29.743  58.198  1.00  0.00     0.150 C 
BRANCH  16  17
HETATM   17  C   UNL     1       7.794  30.948  58.772  1.00  0.00     0.254 C 
BRANCH  17  18
HETATM   18  N   UNL     1       7.680  30.889  60.287  1.00  0.00    -0.070 N 
HETATM   19  H   UNL     1       7.100  30.066  60.492  1.00  0.00     0.279 HD
HETATM   20  C   UNL     1       9.017  30.719  60.974  1.00  0.00     0.235 C 
HETATM   21  C   UNL     1       8.810  30.582  62.476  1.00  0.00     0.028 C 
HETATM   22  C   UNL     1       8.042  31.767  63.050  1.00  0.00     0.003 C 
HETATM   23  C   UNL     1       6.725  31.970  62.311  1.00  0.00     0.028 C 
HETATM   24  C   UNL     1       6.935  32.103  60.811  1.00  0.00     0.235 C 
ENDBRANCH  17  18
ENDBRANCH  16  17
ENDBRANCH  13  16
ENDBRANCH  11  12
ENDBRANCH   3  11
BRANCH   1  25
HETATM   25  C   UNL     1       5.543  27.180  53.029  1.00  0.00    -0.030 A 
HETATM   26  C   UNL     1       6.783  26.630  52.644  1.00  0.00     0.016 A 
HETATM   27  C   UNL     1       6.961  25.246  52.534  1.00  0.00    -0.061 A 
HETATM   28  C   UNL     1       8.288  24.686  52.105  1.00  0.00     0.048 C 
HETATM   29  C   UNL     1       5.867  24.406  52.753  1.00  0.00     0.007 A 
HETATM   30  C   UNL     1       4.623  24.938  53.091  1.00  0.00     0.001 A 
HETATM   31  C   UNL     1       4.456  26.316  53.231  1.00  0.00     0.009 A 
ENDBRANCH   1  25
BRANCH  10  32
HETATM   32  C   UNL     1       4.820  28.896  50.767  1.00  0.00     0.294 C 
HETATM   33  O   UNL     1       5.752  29.312  50.105  1.00  0.00    -0.259 OA
BRANCH  32  34
HETATM   34  O   UNL     1       3.942  27.914  50.468  1.00  0.00    -0.313 OA
BRANCH  34  35
HETATM   35  C   UNL     1       3.623  27.705  49.077  1.00  0.00     0.124 C 
HETATM   36  C   UNL     1       3.876  26.230  48.788  1.00  0.00     0.040 C 
HETATM   37  C   UNL     1       2.158  28.053  48.841  1.00  0.00     0.040 C 
ENDBRANCH  34  35
ENDBRANCH  32  34
ENDBRANCH  10  32
TORSDOF 9
ENDMDL
MODEL 3
REMARK VINA RESULT:      -8.0      2.374      5.663
REMARK  9 active torsions:
REMARK  status: ('A' for Active; 'I' for Inactive)
REMARK    1  A    between atoms: C_4  and  C_5 
REMARK    2  A    between atoms: C_7  and  C_8 
REMARK    3  A    between atoms: C_8  and  C_9 
REMARK       I    between atoms: C_9  and  N_10 
REMARK    4  A    between atoms: N_10  and  C_11 
REMARK    5  A    between atoms: C_11  and  C_12 
REMARK    6  A    between atoms: C_12  and  N_13 
REMARK    7  A    between atoms: C_27  and  C_28 
REMARK    8  A    between atoms: C_28  and  O_29 
REMARK    9  A    between atoms: O_29  and  C_30 
ROOT
HETATM    1  C   UNL     1       4.272  29.960  55.498  1.00  0.00     0.166 C 
HETATM    2  N   UNL     1       4.026  30.165  54.037  1.00  0.00    -0.319 N 
HETATM    3  C   UNL     1       3.777  29.383  53.028  1.00  0.00     0.011 C 
HETATM    4  C   UNL     1       4.047  31.654  53.592  1.00  0.00     0.170 C 
HETATM    5  S   UNL     1       3.692  31.847  51.909  1.00  0.00    -0.086 SA
HETATM    6  C   UNL     1       3.712  30.061  51.673  1.00  0.00     0.135 C 
HETATM    7  N   UNL     1       4.308  32.665  54.337  1.00  0.00    -0.229 NA
HETATM    8  C   UNL     1       4.645  32.453  55.648  1.00  0.00     0.048 C 
HETATM    9  C   UNL     1       4.923  33.735  56.406  1.00  0.00     0.071 C 
HETATM   10  C   UNL     1       4.684  31.224  56.201  1.00  0.00     0.069 C 
ENDROOT
BRANCH   3  11
HETATM   11  C   UNL     1       3.718  27.882  53.156  1.00  0.00     0.156 C 
BRANCH  11  12
HETATM   12  C   UNL     1       4.972  27.151  52.718  1.00  0.00     0.223 C 
HETATM   13  N   UNL     1       5.089  25.854  53.174  1.00  0.00    -0.359 N 
HETATM   14  H   UNL     1       4.267  25.463  53.629  1.00  0.00     0.162 HD
HETATM   15  O   UNL     1       5.813  27.677  52.001  1.00  0.00    -0.273 OA
BRANCH  13  16
HETATM   16  C   UNL     1       5.896  24.860  52.454  1.00  0.00     0.150 C 
BRANCH  16  17
HETATM   17  C   UNL     1       7.257  24.462  53.066  1.00  0.00     0.254 C 
BRANCH  17  18
HETATM   18  N   UNL     1       7.233  23.063  53.658  1.00  0.00    -0.070 N 
HETATM   19  H   UNL     1       6.246  22.775  53.658  1.00  0.00     0.279 HD
HETATM   20  C   UNL     1       8.025  22.062  52.845  1.00  0.00     0.235 C 
HETATM   21  C   UNL     1       7.881  20.675  53.454  1.00  0.00     0.028 C 
HETATM   22  C   UNL     1       8.304  20.654  54.918  1.00  0.00     0.003 C 
HETATM   23  C   UNL     1       7.546  21.706  55.718  1.00  0.00     0.028 C 
HETATM   24  C   UNL     1       7.690  23.091  55.105  1.00  0.00     0.235 C 
ENDBRANCH  17  18
ENDBRANCH  16  17
ENDBRANCH  13  16
ENDBRANCH  11  12
ENDBRANCH   3  11
BRANCH   1  25
HETATM   25  C   UNL     1       5.237  28.799  55.725  1.00  0.00    -0.030 A 
HETATM   26  C   UNL     1       4.770  27.638  56.377  1.00  0.00     0.016 A 
HETATM   27  C   UNL     1       5.596  26.522  56.554  1.00  0.00    -0.061 A 
HETATM   28  C   UNL     1       5.079  25.305  57.267  1.00  0.00     0.048 C 
HETATM   29  C   UNL     1       6.924  26.592  56.127  1.00  0.00     0.007 A 
HETATM   30  C   UNL     1       7.413  27.748  55.520  1.00  0.00     0.001 A 
HETATM   31  C   UNL     1       6.579  28.848  55.316  1.00  0.00     0.009 A 
ENDBRANCH   1  25
BRANCH  10  32
HETATM   32  C   UNL     1       5.118  31.043  57.604  1.00  0.00     0.294 C 
HETATM   33  O   UNL     1       4.365  30.657  58.478  1.00  0.00    -0.259 OA
BRANCH  32  34
HETATM   34  O   UNL     1       6.450  31.261  57.670  1.00  0.00    -0.313 OA
BRANCH  34  35
HETATM   35  C   UNL     1       7.126  30.889  58.889  1.00  0.00     0.124 C 
HETATM   36  C   UNL     1       7.911  29.618  58.582  1.00  0.00     0.040 C 
HETATM   37  C   UNL     1       8.068  32.013  59.303  1.00  0.00     0.040 C 
ENDBRANCH  34  35
ENDBRANCH  32  34
ENDBRANCH  10  32
TORSDOF 9
ENDMDL
MODEL 4
REMARK VINA RESULT:      -7.9      2.280      5.237
REMARK  9 active torsions:
REMARK  status: ('A' for Active; 'I' for Inactive)
REMARK    1  A    between atoms: C_4  and  C_5 
REMARK    2  A    between atoms: C_7  and  C_8 
REMARK    3  A    between atoms: C_8  and  C_9 
REMARK       I    between atoms: C_9  and  N_10 
REMARK    4  A    between atoms: N_10  and  C_11 
REMARK    5  A    between atoms: C_11  and  C_12 
REMARK    6  A    between atoms: C_12  and  N_13 
REMARK    7  A    between atoms: C_27  and  C_28 
REMARK    8  A    between atoms: C_28  and  O_29 
REMARK    9  A    between atoms: O_29  and  C_30 
ROOT
HETATM    1  C   UNL     1       3.952  29.001  54.699  1.00  0.00     0.166 C 
HETATM    2  N   UNL     1       4.154  28.638  53.262  1.00  0.00    -0.319 N 
HETATM    3  C   UNL     1       4.507  27.560  52.627  1.00  0.00     0.011 C 
HETATM    4  C   UNL     1       3.864  29.797  52.267  1.00  0.00     0.170 C 
HETATM    5  S   UNL     1       4.045  29.312  50.615  1.00  0.00    -0.086 SA
HETATM    6  C   UNL     1       4.690  27.710  51.129  1.00  0.00     0.135 C 
HETATM    7  N   UNL     1       3.538  30.998  52.576  1.00  0.00    -0.229 NA
HETATM    8  C   UNL     1       3.469  31.348  53.900  1.00  0.00     0.048 C 
HETATM    9  C   UNL     1       3.072  32.794  54.114  1.00  0.00     0.071 C 
HETATM   10  C   UNL     1       3.697  30.470  54.897  1.00  0.00     0.069 C 
ENDROOT
BRANCH   3  11
HETATM   11  C   UNL     1       4.873  26.280  53.336  1.00  0.00     0.156 C 
BRANCH  11  12
HETATM   12  C   UNL     1       6.330  25.877  53.221  1.00  0.00     0.223 C 
HETATM   13  N   UNL     1       6.563  24.519  53.162  1.00  0.00    -0.359 N 
HETATM   14  H   UNL     1       5.742  23.927  53.050  1.00  0.00     0.162 HD
HETATM   15  O   UNL     1       7.230  26.704  53.173  1.00  0.00    -0.273 OA
BRANCH  13  16
HETATM   16  C   UNL     1       7.773  23.977  52.529  1.00  0.00     0.150 C 
BRANCH  16  17
HETATM   17  C   UNL     1       8.158  22.517  52.851  1.00  0.00     0.254 C 
BRANCH  17  18
HETATM   18  N   UNL     1       7.884  22.158  54.302  1.00  0.00    -0.070 N 
HETATM   19  H   UNL     1       6.927  22.481  54.495  1.00  0.00     0.279 HD
HETATM   20  C   UNL     1       7.952  20.670  54.567  1.00  0.00     0.235 C 
HETATM   21  C   UNL     1       7.582  20.388  56.017  1.00  0.00     0.028 C 
HETATM   22  C   UNL     1       8.467  21.161  56.986  1.00  0.00     0.003 C 
HETATM   23  C   UNL     1       8.443  22.652  56.674  1.00  0.00     0.028 C 
HETATM   24  C   UNL     1       8.810  22.931  55.224  1.00  0.00     0.235 C 
ENDBRANCH  17  18
ENDBRANCH  16  17
ENDBRANCH  13  16
ENDBRANCH  11  12
ENDBRANCH   3  11
BRANCH   1  25
HETATM   25  C   UNL     1       5.093  28.463  55.557  1.00  0.00    -0.030 A 
HETATM   26  C   UNL     1       6.390  28.988  55.379  1.00  0.00     0.016 A 
HETATM   27  C   UNL     1       7.459  28.574  56.182  1.00  0.00    -0.061 A 
HETATM   28  C   UNL     1       8.834  29.137  55.961  1.00  0.00     0.048 C 
HETATM   29  C   UNL     1       7.239  27.577  57.136  1.00  0.00     0.007 A 
HETATM   30  C   UNL     1       5.972  27.016  57.294  1.00  0.00     0.001 A 
HETATM   31  C   UNL     1       4.901  27.453  56.513  1.00  0.00     0.009 A 
ENDBRANCH   1  25
BRANCH  10  32
HETATM   32  C   UNL     1       3.674  30.913  56.309  1.00  0.00     0.294 C 
HETATM   33  O   UNL     1       2.767  30.632  57.069  1.00  0.00    -0.259 OA
BRANCH  32  34
HETATM   34  O   UNL     1       4.842  31.536  56.580  1.00  0.00    -0.313 OA
BRANCH  34  35
HETATM   35  C   UNL     1       5.092  31.918  57.948  1.00  0.00     0.124 C 
HETATM   36  C   UNL     1       6.521  31.493  58.266  1.00  0.00     0.040 C 
HETATM   37  C   UNL     1       4.941  33.429  58.083  1.00  0.00     0.040 C 
ENDBRANCH  34  35
ENDBRANCH  32  34
ENDBRANCH  10  32
TORSDOF 9
ENDMDL
MODEL 5
REMARK VINA RESULT:      -7.8      3.770      7.792
REMARK  9 active torsions:
REMARK  status: ('A' for Active; 'I' for Inactive)
REMARK    1  A    between atoms: C_4  and  C_5 
REMARK    2  A    between atoms: C_7  and  C_8 
REMARK    3  A    between atoms: C_8  and  C_9 
REMARK       I    between atoms: C_9  and  N_10 
REMARK    4  A    between atoms: N_10  and  C_11 
REMARK    5  A    between atoms: C_11  and  C_12 
REMARK    6  A    between atoms: C_12  and  N_13 
REMARK    7  A    between atoms: C_27  and  C_28 
REMARK    8  A    between atoms: C_28  and  O_29 
REMARK    9  A    between atoms: O_29  and  C_30 
ROOT
HETATM    1  C   UNL     1       5.998  27.380  56.052  1.00  0.00     0.166 C 
HETATM    2  N   UNL     1       6.507  28.535  56.855  1.00  0.00    -0.319 N 
HETATM    3  C   UNL     1       6.162  29.781  56.995  1.00  0.00     0.011 C 
HETATM    4  C   UNL     1       7.724  28.192  57.759  1.00  0.00     0.170 C 
HETATM    5  S   UNL     1       8.236  29.539  58.719  1.00  0.00    -0.086 SA
HETATM    6  C   UNL     1       7.078  30.622  57.864  1.00  0.00     0.135 C 
HETATM    7  N   UNL     1       8.331  27.064  57.819  1.00  0.00    -0.229 NA
HETATM    8  C   UNL     1       7.926  26.048  56.992  1.00  0.00     0.048 C 
HETATM    9  C   UNL     1       8.730  24.777  57.173  1.00  0.00     0.071 C 
HETATM   10  C   UNL     1       6.891  26.173  56.138  1.00  0.00     0.069 C 
ENDROOT
BRANCH   3  11
HETATM   11  C   UNL     1       5.025  30.402  56.223  1.00  0.00     0.156 C 
BRANCH  11  12
HETATM   12  C   UNL     1       3.794  30.728  57.046  1.00  0.00     0.223 C 
HETATM   13  N   UNL     1       3.854  30.352  58.372  1.00  0.00    -0.359 N 
HETATM   14  H   UNL     1       4.761  30.034  58.707  1.00  0.00     0.162 HD
HETATM   15  O   UNL     1       2.822  31.294  56.564  1.00  0.00    -0.273 OA
BRANCH  13  16
HETATM   16  C   UNL     1       3.050  31.031  59.397  1.00  0.00     0.150 C 
BRANCH  16  17
HETATM   17  C   UNL     1       3.610  32.338  59.998  1.00  0.00     0.254 C 
BRANCH  17  18
HETATM   18  N   UNL     1       4.774  32.083  60.942  1.00  0.00    -0.070 N 
HETATM   19  H   UNL     1       4.899  31.062  60.963  1.00  0.00     0.279 HD
HETATM   20  C   UNL     1       6.067  32.715  60.473  1.00  0.00     0.235 C 
HETATM   21  C   UNL     1       7.196  32.342  61.423  1.00  0.00     0.028 C 
HETATM   22  C   UNL     1       6.879  32.736  62.860  1.00  0.00     0.003 C 
HETATM   23  C   UNL     1       5.547  32.147  63.304  1.00  0.00     0.028 C 
HETATM   24  C   UNL     1       4.420  32.519  62.352  1.00  0.00     0.235 C 
ENDBRANCH  17  18
ENDBRANCH  16  17
ENDBRANCH  13  16
ENDBRANCH  11  12
ENDBRANCH   3  11
BRANCH   1  25
HETATM   25  C   UNL     1       5.698  27.811  54.618  1.00  0.00    -0.030 A 
HETATM   26  C   UNL     1       4.354  27.912  54.201  1.00  0.00     0.016 A 
HETATM   27  C   UNL     1       4.023  28.361  52.918  1.00  0.00    -0.061 A 
HETATM   28  C   UNL     1       2.585  28.444  52.492  1.00  0.00     0.048 C 
HETATM   29  C   UNL     1       5.053  28.656  52.021  1.00  0.00     0.007 A 
HETATM   30  C   UNL     1       6.387  28.519  52.404  1.00  0.00     0.001 A 
HETATM   31  C   UNL     1       6.714  28.100  53.694  1.00  0.00     0.009 A 
ENDBRANCH   1  25
BRANCH  10  32
HETATM   32  C   UNL     1       6.535  25.068  55.220  1.00  0.00     0.294 C 
HETATM   33  O   UNL     1       5.443  24.532  55.233  1.00  0.00    -0.259 OA
BRANCH  32  34
HETATM   34  O   UNL     1       7.556  24.887  54.353  1.00  0.00    -0.313 OA
BRANCH  34  35
HETATM   35  C   UNL     1       7.299  24.096  53.175  1.00  0.00     0.124 C 
HETATM   36  C   UNL     1       7.723  24.941  51.980  1.00  0.00     0.040 C 
HETATM   37  C   UNL     1       8.120  22.814  53.243  1.00  0.00     0.040 C 
ENDBRANCH  34  35
ENDBRANCH  32  34
ENDBRANCH  10  32
TORSDOF 9
ENDMDL
MODEL 6
REMARK VINA RESULT:      -7.8      2.890      6.055
REMARK  9 active torsions:
REMARK  status: ('A' for Active; 'I' for Inactive)
REMARK    1  A    between atoms: C_4  and  C_5 
REMARK    2  A    between atoms: C_7  and  C_8 
REMARK    3  A    between atoms: C_8  and  C_9 
REMARK       I    between atoms: C_9  and  N_10 
REMARK    4  A    between atoms: N_10  and  C_11 
REMARK    5  A    between atoms: C_11  and  C_12 
REMARK    6  A    between atoms: C_12  and  N_13 
REMARK    7  A    between atoms: C_27  and  C_28 
REMARK    8  A    between atoms: C_28  and  O_29 
REMARK    9  A    between atoms: O_29  and  C_30 
ROOT
HETATM    1  C   UNL     1       4.861  30.283  56.437  1.00  0.00     0.166 C 
HETATM    2  N   UNL     1       4.379  30.138  55.029  1.00  0.00    -0.319 N 
HETATM    3  C   UNL     1       4.166  29.135  54.229  1.00  0.00     0.011 C 
HETATM    4  C   UNL     1       4.023  31.483  54.337  1.00  0.00     0.170 C 
HETATM    5  S   UNL     1       3.406  31.262  52.735  1.00  0.00    -0.086 SA
HETATM    6  C   UNL     1       3.772  29.499  52.810  1.00  0.00     0.135 C 
HETATM    7  N   UNL     1       4.162  32.655  54.839  1.00  0.00    -0.229 NA
HETATM    8  C   UNL     1       4.714  32.780  56.088  1.00  0.00     0.048 C 
HETATM    9  C   UNL     1       4.815  34.218  56.554  1.00  0.00     0.071 C 
HETATM   10  C   UNL     1       5.088  31.718  56.829  1.00  0.00     0.069 C 
ENDROOT
BRANCH   3  11
HETATM   11  C   UNL     1       4.444  27.706  54.622  1.00  0.00     0.156 C 
BRANCH  11  12
HETATM   12  C   UNL     1       5.376  26.955  53.692  1.00  0.00     0.223 C 
HETATM   13  N   UNL     1       6.651  26.747  54.175  1.00  0.00    -0.359 N 
HETATM   14  H   UNL     1       6.802  26.979  55.155  1.00  0.00     0.162 HD
HETATM   15  O   UNL     1       5.013  26.555  52.593  1.00  0.00    -0.273 OA
BRANCH  13  16
HETATM   16  C   UNL     1       7.479  25.631  53.696  1.00  0.00     0.150 C 
BRANCH  16  17
HETATM   17  C   UNL     1       8.102  24.696  54.755  1.00  0.00     0.254 C 
BRANCH  17  18
HETATM   18  N   UNL     1       7.754  23.237  54.508  1.00  0.00    -0.070 N 
HETATM   19  H   UNL     1       6.730  23.205  54.420  1.00  0.00     0.279 HD
HETATM   20  C   UNL     1       8.364  22.690  53.236  1.00  0.00     0.235 C 
HETATM   21  C   UNL     1       7.899  21.257  53.018  1.00  0.00     0.028 C 
HETATM   22  C   UNL     1       8.227  20.370  54.213  1.00  0.00     0.003 C 
HETATM   23  C   UNL     1       7.662  20.959  55.499  1.00  0.00     0.028 C 
HETATM   24  C   UNL     1       8.126  22.392  55.713  1.00  0.00     0.235 C 
ENDBRANCH  17  18
ENDBRANCH  16  17
ENDBRANCH  13  16
ENDBRANCH  11  12
ENDBRANCH   3  11
BRANCH   1  25
HETATM   25  C   UNL     1       6.072  29.388  56.688  1.00  0.00    -0.030 A 
HETATM   26  C   UNL     1       7.307  29.726  56.097  1.00  0.00     0.016 A 
HETATM   27  C   UNL     1       8.462  28.975  56.346  1.00  0.00    -0.061 A 
HETATM   28  C   UNL     1       9.762  29.346  55.691  1.00  0.00     0.048 C 
HETATM   29  C   UNL     1       8.364  27.835  57.147  1.00  0.00     0.007 A 
HETATM   30  C   UNL     1       7.140  27.463  57.703  1.00  0.00     0.001 A 
HETATM   31  C   UNL     1       5.997  28.231  57.480  1.00  0.00     0.009 A 
ENDBRANCH   1  25
BRANCH  10  32
HETATM   32  C   UNL     1       5.738  31.909  58.144  1.00  0.00     0.294 C 
HETATM   33  O   UNL     1       6.903  32.241  58.257  1.00  0.00    -0.259 OA
BRANCH  32  34
HETATM   34  O   UNL     1       4.802  31.769  59.108  1.00  0.00    -0.313 OA
BRANCH  34  35
HETATM   35  C   UNL     1       4.634  32.860  60.037  1.00  0.00     0.124 C 
HETATM   36  C   UNL     1       3.133  33.093  60.168  1.00  0.00     0.040 C 
HETATM   37  C   UNL     1       5.234  32.470  61.382  1.00  0.00     0.040 C 
ENDBRANCH  34  35
ENDBRANCH  32  34
ENDBRANCH  10  32
TORSDOF 9
ENDMDL
MODEL 7
REMARK VINA RESULT:      -7.7      3.600      6.796
REMARK  9 active torsions:
REMARK  status: ('A' for Active; 'I' for Inactive)
REMARK    1  A    between atoms: C_4  and  C_5 
REMARK    2  A    between atoms: C_7  and  C_8 
REMARK    3  A    between atoms: C_8  and  C_9 
REMARK       I    between atoms: C_9  and  N_10 
REMARK    4  A    between atoms: N_10  and  C_11 
REMARK    5  A    between atoms: C_11  and  C_12 
REMARK    6  A    between atoms: C_12  and  N_13 
REMARK    7  A    between atoms: C_27  and  C_28 
REMARK    8  A    between atoms: C_28  and  O_29 
REMARK    9  A    between atoms: O_29  and  C_30 
ROOT
HETATM    1  C   UNL     1       6.510  27.892  53.711  1.00  0.00     0.166 C 
HETATM    2  N   UNL     1       5.401  28.895  53.750  1.00  0.00    -0.319 N 
HETATM    3  C   UNL     1       5.066  29.863  54.550  1.00  0.00     0.011 C 
HETATM    4  C   UNL     1       4.410  28.793  52.557  1.00  0.00     0.170 C 
HETATM    5  S   UNL     1       3.184  30.014  52.608  1.00  0.00    -0.086 SA
HETATM    6  C   UNL     1       3.753  30.554  54.231  1.00  0.00     0.135 C 
HETATM    7  N   UNL     1       4.438  27.918  51.620  1.00  0.00    -0.229 NA
HETATM    8  C   UNL     1       5.391  26.934  51.660  1.00  0.00     0.048 C 
HETATM    9  C   UNL     1       5.305  25.974  50.491  1.00  0.00     0.071 C 
HETATM   10  C   UNL     1       6.327  26.865  52.627  1.00  0.00     0.069 C 
ENDROOT
BRANCH   3  11
HETATM   11  C   UNL     1       5.833  30.184  55.808  1.00  0.00     0.156 C 
BRANCH  11  12
HETATM   12  C   UNL     1       5.003  30.211  57.076  1.00  0.00     0.223 C 
HETATM   13  N   UNL     1       5.534  30.949  58.114  1.00  0.00    -0.359 N 
HETATM   14  H   UNL     1       6.345  31.522  57.887  1.00  0.00     0.162 HD
HETATM   15  O   UNL     1       3.932  29.626  57.164  1.00  0.00    -0.273 OA
BRANCH  13  16
HETATM   16  C   UNL     1       4.678  31.524  59.161  1.00  0.00     0.150 C 
BRANCH  16  17
HETATM   17  C   UNL     1       5.362  32.347  60.273  1.00  0.00     0.254 C 
BRANCH  17  18
HETATM   18  N   UNL     1       6.713  31.770  60.667  1.00  0.00    -0.070 N 
HETATM   19  H   UNL     1       6.692  30.784  60.374  1.00  0.00     0.279 HD
HETATM   20  C   UNL     1       7.873  32.453  59.976  1.00  0.00     0.235 C 
HETATM   21  C   UNL     1       9.176  31.763  60.355  1.00  0.00     0.028 C 
HETATM   22  C   UNL     1       9.377  31.728  61.864  1.00  0.00     0.003 C 
HETATM   23  C   UNL     1       8.178  31.094  62.558  1.00  0.00     0.028 C 
HETATM   24  C   UNL     1       6.876  31.784  62.176  1.00  0.00     0.235 C 
ENDBRANCH  17  18
ENDBRANCH  16  17
ENDBRANCH  13  16
ENDBRANCH  11  12
ENDBRANCH   3  11
BRANCH   1  25
HETATM   25  C   UNL     1       6.736  27.282  55.092  1.00  0.00    -0.030 A 
HETATM   26  C   UNL     1       5.680  26.582  55.712  1.00  0.00     0.016 A 
HETATM   27  C   UNL     1       5.853  25.951  56.949  1.00  0.00    -0.061 A 
HETATM   28  C   UNL     1       4.708  25.226  57.596  1.00  0.00     0.048 C 
HETATM   29  C   UNL     1       7.082  26.075  57.602  1.00  0.00     0.007 A 
HETATM   30  C   UNL     1       8.122  26.801  57.022  1.00  0.00     0.001 A 
HETATM   31  C   UNL     1       7.957  27.403  55.774  1.00  0.00     0.009 A 
ENDBRANCH   1  25
BRANCH  10  32
HETATM   32  C   UNL     1       7.294  25.745  52.661  1.00  0.00     0.294 C 
HETATM   33  O   UNL     1       8.423  25.841  52.216  1.00  0.00    -0.259 OA
BRANCH  32  34
HETATM   34  O   UNL     1       6.740  24.723  53.349  1.00  0.00    -0.313 OA
BRANCH  34  35
HETATM   35  C   UNL     1       7.627  23.715  53.875  1.00  0.00     0.124 C 
HETATM   36  C   UNL     1       7.024  23.249  55.195  1.00  0.00     0.040 C 
HETATM   37  C   UNL     1       7.713  22.557  52.888  1.00  0.00     0.040 C 
ENDBRANCH  34  35
ENDBRANCH  32  34
ENDBRANCH  10  32
TORSDOF 9
ENDMDL
MODEL 8
REMARK VINA RESULT:      -7.5      2.490      4.316
REMARK  9 active torsions:
REMARK  status: ('A' for Active; 'I' for Inactive)
REMARK    1  A    between atoms: C_4  and  C_5 
REMARK    2  A    between atoms: C_7  and  C_8 
REMARK    3  A    between atoms: C_8  and  C_9 
REMARK       I    between atoms: C_9  and  N_10 
REMARK    4  A    between atoms: N_10  and  C_11 
REMARK    5  A    between atoms: C_11  and  C_12 
REMARK    6  A    between atoms: C_12  and  N_13 
REMARK    7  A    between atoms: C_27  and  C_28 
REMARK    8  A    between atoms: C_28  and  O_29 
REMARK    9  A    between atoms: O_29  and  C_30 
ROOT
HETATM    1  C   UNL     1       4.915  29.670  50.265  1.00  0.00     0.166 C 
HETATM    2  N   UNL     1       4.720  29.124  51.644  1.00  0.00    -0.319 N 
HETATM    3  C   UNL     1       4.925  27.975  52.215  1.00  0.00     0.011 C 
HETATM    4  C   UNL     1       4.158  30.156  52.661  1.00  0.00     0.170 C 
HETATM    5  S   UNL     1       4.013  29.501  54.257  1.00  0.00    -0.086 SA
HETATM    6  C   UNL     1       4.452  27.862  53.652  1.00  0.00     0.135 C 
HETATM    7  N   UNL     1       3.810  31.364  52.404  1.00  0.00    -0.229 NA
HETATM    8  C   UNL     1       3.886  31.815  51.112  1.00  0.00     0.048 C 
HETATM    9  C   UNL     1       3.447  33.256  50.957  1.00  0.00     0.071 C 
HETATM   10  C   UNL     1       4.343  31.051  50.099  1.00  0.00     0.069 C 
ENDROOT
BRANCH   3  11
HETATM   11  C   UNL     1       5.446  26.775  51.466  1.00  0.00     0.156 C 
BRANCH  11  12
HETATM   12  C   UNL     1       5.512  25.493  52.273  1.00  0.00     0.223 C 
HETATM   13  N   UNL     1       6.663  25.319  53.013  1.00  0.00    -0.359 N 
HETATM   14  H   UNL     1       7.285  26.123  53.068  1.00  0.00     0.162 HD
HETATM   15  O   UNL     1       4.598  24.678  52.272  1.00  0.00    -0.273 OA
BRANCH  13  16
HETATM   16  C   UNL     1       6.680  24.474  54.215  1.00  0.00     0.150 C 
BRANCH  16  17
HETATM   17  C   UNL     1       8.023  24.313  54.958  1.00  0.00     0.254 C 
BRANCH  17  18
HETATM   18  N   UNL     1       8.600  22.915  54.806  1.00  0.00    -0.070 N 
HETATM   19  H   UNL     1       9.595  23.046  54.581  1.00  0.00     0.279 HD
HETATM   20  C   UNL     1       8.497  22.091  56.071  1.00  0.00     0.235 C 
HETATM   21  C   UNL     1       9.171  20.742  55.862  1.00  0.00     0.028 C 
HETATM   22  C   UNL     1       8.585  19.997  54.670  1.00  0.00     0.003 C 
HETATM   23  C   UNL     1       8.636  20.857  53.413  1.00  0.00     0.028 C 
HETATM   24  C   UNL     1       7.964  22.205  53.625  1.00  0.00     0.235 C 
ENDBRANCH  17  18
ENDBRANCH  16  17
ENDBRANCH  13  16
ENDBRANCH  11  12
ENDBRANCH   3  11
BRANCH   1  25
HETATM   25  C   UNL     1       4.416  28.679  49.217  1.00  0.00    -0.030 A 
HETATM   26  C   UNL     1       3.038  28.382  49.156  1.00  0.00     0.016 A 
HETATM   27  C   UNL     1       2.520  27.529  48.175  1.00  0.00    -0.061 A 
HETATM   28  C   UNL     1       1.051  27.216  48.142  1.00  0.00     0.048 C 
HETATM   29  C   UNL     1       3.402  26.917  47.281  1.00  0.00     0.007 A 
HETATM   30  C   UNL     1       4.773  27.165  47.356  1.00  0.00     0.001 A 
HETATM   31  C   UNL     1       5.282  28.041  48.315  1.00  0.00     0.009 A 
ENDBRANCH   1  25
BRANCH  10  32
HETATM   32  C   UNL     1       4.343  31.564  48.711  1.00  0.00     0.294 C 
HETATM   33  O   UNL     1       3.327  31.665  48.050  1.00  0.00    -0.259 OA
BRANCH  32  34
HETATM   34  O   UNL     1       5.594  31.977  48.409  1.00  0.00    -0.313 OA
BRANCH  34  35
HETATM   35  C   UNL     1       5.736  33.274  47.794  1.00  0.00     0.124 C 
HETATM   36  C   UNL     1       6.932  33.945  48.461  1.00  0.00     0.040 C 
HETATM   37  C   UNL     1       5.987  33.097  46.301  1.00  0.00     0.040 C 
ENDBRANCH  34  35
ENDBRANCH  32  34
ENDBRANCH  10  32
TORSDOF 9
ENDMDL
MODEL 9
REMARK VINA RESULT:      -7.3      2.600      8.240
REMARK  9 active torsions:
REMARK  status: ('A' for Active; 'I' for Inactive)
REMARK    1  A    between atoms: C_4  and  C_5 
REMARK    2  A    between atoms: C_7  and  C_8 
REMARK    3  A    between atoms: C_8  and  C_9 
REMARK       I    between atoms: C_9  and  N_10 
REMARK    4  A    between atoms: N_10  and  C_11 
REMARK    5  A    between atoms: C_11  and  C_12 
REMARK    6  A    between atoms: C_12  and  N_13 
REMARK    7  A    between atoms: C_27  and  C_28 
REMARK    8  A    between atoms: C_28  and  O_29 
REMARK    9  A    between atoms: O_29  and  C_30 
ROOT
HETATM    1  C   UNL     1       6.837  27.921  55.064  1.00  0.00     0.166 C 
HETATM    2  N   UNL     1       6.268  27.281  53.837  1.00  0.00    -0.319 N 
HETATM    3  C   UNL     1       5.517  27.682  52.855  1.00  0.00     0.011 C 
HETATM    4  C   UNL     1       6.667  25.789  53.657  1.00  0.00     0.170 C 
HETATM    5  S   UNL     1       6.044  25.109  52.193  1.00  0.00    -0.086 SA
HETATM    6  C   UNL     1       5.096  26.607  51.870  1.00  0.00     0.135 C 
HETATM    7  N   UNL     1       7.363  25.086  54.473  1.00  0.00    -0.229 NA
HETATM    8  C   UNL     1       7.780  25.654  55.650  1.00  0.00     0.048 C 
HETATM    9  C   UNL     1       8.593  24.709  56.512  1.00  0.00     0.071 C 
HETATM   10  C   UNL     1       7.517  26.935  55.973  1.00  0.00     0.069 C 
ENDROOT
BRANCH   3  11
HETATM   11  C   UNL     1       4.960  29.080  52.774  1.00  0.00     0.156 C 
BRANCH  11  12
HETATM   12  C   UNL     1       4.533  29.521  51.388  1.00  0.00     0.223 C 
HETATM   13  N   UNL     1       5.548  29.989  50.579  1.00  0.00    -0.359 N 
HETATM   14  H   UNL     1       6.495  29.855  50.926  1.00  0.00     0.162 HD
HETATM   15  O   UNL     1       3.369  29.456  51.015  1.00  0.00    -0.273 OA
BRANCH  13  16
HETATM   16  C   UNL     1       5.442  29.941  49.114  1.00  0.00     0.150 C 
BRANCH  16  17
HETATM   17  C   UNL     1       5.571  28.563  48.431  1.00  0.00     0.254 C 
BRANCH  17  18
HETATM   18  N   UNL     1       4.232  27.853  48.313  1.00  0.00    -0.070 N 
HETATM   19  H   UNL     1       3.843  27.831  49.265  1.00  0.00     0.279 HD
HETATM   20  C   UNL     1       3.257  28.575  47.410  1.00  0.00     0.235 C 
HETATM   21  C   UNL     1       1.918  27.850  47.415  1.00  0.00     0.028 C 
HETATM   22  C   UNL     1       2.067  26.389  47.010  1.00  0.00     0.003 C 
HETATM   23  C   UNL     1       3.096  25.684  47.883  1.00  0.00     0.028 C 
HETATM   24  C   UNL     1       4.432  26.412  47.879  1.00  0.00     0.235 C 
ENDBRANCH  17  18
ENDBRANCH  16  17
ENDBRANCH  13  16
ENDBRANCH  11  12
ENDBRANCH   3  11
BRANCH   1  25
HETATM   25  C   UNL     1       5.780  28.767  55.770  1.00  0.00    -0.030 A 
HETATM   26  C   UNL     1       6.047  30.129  56.019  1.00  0.00     0.016 A 
HETATM   27  C   UNL     1       5.088  30.962  56.607  1.00  0.00    -0.061 A 
HETATM   28  C   UNL     1       5.404  32.406  56.877  1.00  0.00     0.048 C 
HETATM   29  C   UNL     1       3.869  30.410  57.005  1.00  0.00     0.007 A 
HETATM   30  C   UNL     1       3.606  29.054  56.806  1.00  0.00     0.001 A 
HETATM   31  C   UNL     1       4.552  28.233  56.191  1.00  0.00     0.009 A 
ENDBRANCH   1  25
BRANCH  10  32
HETATM   32  C   UNL     1       7.934  27.482  57.284  1.00  0.00     0.294 C 
HETATM   33  O   UNL     1       7.261  27.354  58.290  1.00  0.00    -0.259 OA
BRANCH  32  34
HETATM   34  O   UNL     1       9.176  27.997  57.156  1.00  0.00    -0.313 OA
BRANCH  34  35
HETATM   35  C   UNL     1       9.293  29.428  57.012  1.00  0.00     0.124 C 
HETATM   36  C   UNL     1       8.937  30.033  58.365  1.00  0.00     0.040 C 
HETATM   37  C   UNL     1      10.725  29.778  56.630  1.00  0.00     0.040 C 
ENDBRANCH  34  35
ENDBRANCH  32  34
ENDBRANCH  10  32
TORSDOF 9
ENDMDL
MODEL 10
REMARK VINA RESULT:      -7.3      6.110      9.850
REMARK  9 active torsions:
REMARK  status: ('A' for Active; 'I' for Inactive)
REMARK    1  A    between atoms: C_4  and  C_5 
REMARK    2  A    between atoms: C_7  and  C_8 
REMARK    3  A    between atoms: C_8  and  C_9 
REMARK       I    between atoms: C_9  and  N_10 
REMARK    4  A    between atoms: N_10  and  C_11 
REMARK    5  A    between atoms: C_11  and  C_12 
REMARK    6  A    between atoms: C_12  and  N_13 
REMARK    7  A    between atoms: C_27  and  C_28 
REMARK    8  A    between atoms: C_28  and  O_29 
REMARK    9  A    between atoms: O_29  and  C_30 
ROOT
HETATM    1  C   UNL     1       3.678  33.948  59.944  1.00  0.00     0.166 C 
HETATM    2  N   UNL     1       3.892  33.607  58.503  1.00  0.00    -0.319 N 
HETATM    3  C   UNL     1       4.010  32.503  57.828  1.00  0.00     0.011 C 
HETATM    4  C   UNL     1       3.979  34.843  57.565  1.00  0.00     0.170 C 
HETATM    5  S   UNL     1       4.158  34.400  55.901  1.00  0.00    -0.086 SA
HETATM    6  C   UNL     1       4.339  32.666  56.356  1.00  0.00     0.135 C 
HETATM    7  N   UNL     1       3.943  36.074  57.925  1.00  0.00    -0.229 NA
HETATM    8  C   UNL     1       3.863  36.372  59.260  1.00  0.00     0.048 C 
HETATM    9  C   UNL     1       3.827  37.861  59.537  1.00  0.00     0.071 C 
HETATM   10  C   UNL     1       3.787  35.423  60.215  1.00  0.00     0.069 C 
ENDROOT
BRANCH   3  11
HETATM   11  C   UNL     1       3.987  31.143  58.479  1.00  0.00     0.156 C 
BRANCH  11  12
HETATM   12  C   UNL     1       5.070  30.190  58.012  1.00  0.00     0.223 C 
HETATM   13  N   UNL     1       4.627  28.951  57.597  1.00  0.00    -0.359 N 
HETATM   14  H   UNL     1       3.619  28.845  57.500  1.00  0.00     0.162 HD
HETATM   15  O   UNL     1       6.252  30.508  57.998  1.00  0.00    -0.273 OA
BRANCH  13  16
HETATM   16  C   UNL     1       5.402  28.140  56.648  1.00  0.00     0.150 C 
BRANCH  16  17
HETATM   17  C   UNL     1       4.777  27.867  55.263  1.00  0.00     0.254 C 
BRANCH  17  18
HETATM   18  N   UNL     1       5.029  26.445  54.790  1.00  0.00    -0.070 N 
HETATM   19  H   UNL     1       4.273  25.877  55.194  1.00  0.00     0.279 HD
HETATM   20  C   UNL     1       4.984  26.305  53.284  1.00  0.00     0.235 C 
HETATM   21  C   UNL     1       5.158  24.842  52.898  1.00  0.00     0.028 C 
HETATM   22  C   UNL     1       6.445  24.258  53.468  1.00  0.00     0.003 C 
HETATM   23  C   UNL     1       6.512  24.458  54.977  1.00  0.00     0.028 C 
HETATM   24  C   UNL     1       6.335  25.919  55.360  1.00  0.00     0.235 C 
ENDBRANCH  17  18
ENDBRANCH  16  17
ENDBRANCH  13  16
ENDBRANCH  11  12
ENDBRANCH   3  11
BRANCH   1  25
HETATM   25  C   UNL     1       4.579  33.100  60.838  1.00  0.00    -0.030 A 
HETATM   26  C   UNL     1       5.965  33.064  60.577  1.00  0.00     0.016 A 
HETATM   27  C   UNL     1       6.842  32.353  61.404  1.00  0.00    -0.061 A 
HETATM   28  C   UNL     1       8.312  32.317  61.095  1.00  0.00     0.048 C 
HETATM   29  C   UNL     1       6.318  31.618  62.470  1.00  0.00     0.007 A 
HETATM   30  C   UNL     1       4.944  31.608  62.714  1.00  0.00     0.001 A 
HETATM   31  C   UNL     1       4.075  32.343  61.908  1.00  0.00     0.009 A 
ENDBRANCH   1  25
BRANCH  10  32
HETATM   32  C   UNL     1       3.769  35.797  61.647  1.00  0.00     0.294 C 
HETATM   33  O   UNL     1       2.749  35.798  62.310  1.00  0.00    -0.259 OA
BRANCH  32  34
HETATM   34  O   UNL     1       5.042  35.995  62.053  1.00  0.00    -0.313 OA
BRANCH  34  35
HETATM   35  C   UNL     1       5.260  36.277  63.451  1.00  0.00     0.124 C 
HETATM   36  C   UNL     1       6.110  35.136  63.999  1.00  0.00     0.040 C 
HETATM   37  C   UNL     1       5.995  37.604  63.586  1.00  0.00     0.040 C 
ENDBRANCH  34  35
ENDBRANCH  32  34
ENDBRANCH  10  32
TORSDOF 9
ENDMDL
