MODEL 1
REMARK VINA RESULT:      -9.4      0.000      0.000
REMARK  6 active torsions:
REMARK  status: ('A' for Active; 'I' for Inactive)
REMARK    1  A    between atoms: C_3  and  O_4 
REMARK    2  A    between atoms: O_4  and  C_5 
REMARK    3  A    between atoms: C_5  and  C_6 
REMARK    4  A    between atoms: C_15  and  C_16 
REMARK       I    between atoms: C_16  and  N_17 
REMARK    5  A    between atoms: N_17  and  N_18 
REMARK       I    between atoms: N_18  and  C_19 
REMARK    6  A    between atoms: C_19  and  C_20 
ROOT
HETATM    1  C   UNL     1       8.705  25.004  57.350  1.00  0.00     0.051 C 
HETATM    2  C   UNL     1       8.100  26.267  56.803  1.00  0.00    -0.027 A 
HETATM    3  C   UNL     1       7.746  26.389  55.448  1.00  0.00     0.081 A 
HETATM    4  C   UNL     1       7.244  27.600  54.943  1.00  0.00    -0.027 A 
HETATM    5  C   UNL     1       6.960  27.813  53.483  1.00  0.00     0.051 C 
HETATM    6  C   UNL     1       6.975  28.645  55.841  1.00  0.00     0.026 A 
HETATM    7  C   UNL     1       7.246  28.512  57.210  1.00  0.00     0.034 A 
HETATM    8  C   UNL     1       7.831  27.331  57.680  1.00  0.00     0.026 A 
ENDROOT
BRANCH   7   9
HETATM    9  C   UNL     1       6.916  29.659  58.103  1.00  0.00     0.270 C 
HETATM   10  N   UNL     1       7.743  29.864  59.190  1.00  0.00    -0.263 N 
HETATM   11  H   UNL     1       8.459  29.212  59.500  1.00  0.00     0.190 HD
HETATM   12  O   UNL     1       5.930  30.361  57.889  1.00  0.00    -0.266 OA
BRANCH  10  13
HETATM   13  N   UNL     1       7.380  30.854  60.109  1.00  0.00    -0.262 N 
HETATM   14  C   UNL     1       8.157  31.048  61.230  1.00  0.00     0.286 C 
HETATM   15  O   UNL     1       9.171  30.379  61.436  1.00  0.00    -0.264 OA
HETATM   16  H   UNL     1       6.534  31.380  59.904  1.00  0.00     0.190 HD
BRANCH  14  17
HETATM   17  C   UNL     1       7.702  32.079  62.135  1.00  0.00     0.102 A 
HETATM   18  N   UNL     1       6.768  33.017  61.744  1.00  0.00    -0.361 N 
HETATM   19  H   UNL     1       6.350  33.042  60.821  1.00  0.00     0.165 HD
HETATM   20  C   UNL     1       6.502  33.881  62.771  1.00  0.00     0.088 A 
HETATM   21  C   UNL     1       7.274  33.508  63.846  1.00  0.00     0.019 A 
HETATM   22  C   UNL     1       8.029  32.376  63.450  1.00  0.00     0.036 A 
ENDBRANCH  14  17
ENDBRANCH  10  13
ENDBRANCH   7   9
BRANCH   3  23
HETATM   23  O   UNL     1       7.973  25.307  54.634  1.00  0.00    -0.346 OA
BRANCH  23  24
HETATM   24  C   UNL     1       6.900  24.354  54.692  1.00  0.00     0.216 C 
BRANCH  24  25
HETATM   25  C   UNL     1       7.380  22.946  54.455  1.00  0.00    -0.017 A 
HETATM   26  C   UNL     1       7.493  22.076  55.538  1.00  0.00     0.125 A 
HETATM   27  N   UNL     1       7.894  20.788  55.447  1.00  0.00    -0.272 NA
HETATM   28  C   UNL     1       8.195  20.334  54.213  1.00  0.00     0.116 A 
HETATM   29  C   UNL     1       8.105  21.108  53.068  1.00  0.00     0.020 A 
HETATM   30  C   UNL     1       7.686  22.431  53.193  1.00  0.00     0.012 A 
ENDBRANCH  24  25
ENDBRANCH  23  24
ENDBRANCH   3  23
TORSDOF 6
ENDMDL
MODEL 2
REMARK VINA RESULT:      -8.9      2.317     10.612
REMARK  6 active torsions:
REMARK  status: ('A' for Active; 'I' for Inactive)
REMARK    1  A    between atoms: C_3  and  O_4 
REMARK    2  A    between atoms: O_4  and  C_5 
REMARK    3  A    between atoms: C_5  and  C_6 
REMARK    4  A    between atoms: C_15  and  C_16 
REMARK       I    between atoms: C_16  and  N_17 
REMARK    5  A    between atoms: N_17  and  N_18 
REMARK       I    between atoms: N_18  and  C_19 
REMARK    6  A    between atoms: C_19  and  C_20 
ROOT
HETATM    1  C   UNL     1       5.289  32.554  58.749  1.00  0.00     0.051 C 
HETATM    2  C   UNL     1       6.497  31.702  59.025  1.00  0.00    -0.027 A 
HETATM    3  C   UNL     1       7.272  31.875  60.186  1.00  0.00     0.081 A 
HETATM    4  C   UNL     1       8.435  31.114  60.394  1.00  0.00    -0.027 A 
HETATM    5  C   UNL     1       9.354  31.342  61.560  1.00  0.00     0.051 C 
HETATM    6  C   UNL     1       8.737  30.085  59.488  1.00  0.00     0.026 A 
HETATM    7  C   UNL     1       7.929  29.845  58.368  1.00  0.00     0.034 A 
HETATM    8  C   UNL     1       6.827  30.672  58.129  1.00  0.00     0.026 A 
ENDROOT
BRANCH   7   9
HETATM    9  C   UNL     1       8.305  28.722  57.462  1.00  0.00     0.270 C 
HETATM   10  N   UNL     1       7.291  27.873  57.064  1.00  0.00    -0.263 N 
HETATM   11  H   UNL     1       6.353  27.872  57.457  1.00  0.00     0.190 HD
HETATM   12  O   UNL     1       9.473  28.552  57.120  1.00  0.00    -0.266 OA
BRANCH  10  13
HETATM   13  N   UNL     1       7.642  26.742  56.319  1.00  0.00    -0.262 N 
HETATM   14  C   UNL     1       6.820  26.334  55.291  1.00  0.00     0.286 C 
HETATM   15  O   UNL     1       5.791  26.948  55.004  1.00  0.00    -0.264 OA
HETATM   16  H   UNL     1       8.495  26.262  56.591  1.00  0.00     0.190 HD
BRANCH  14  17
HETATM   17  C   UNL     1       7.246  25.148  54.583  1.00  0.00     0.102 A 
HETATM   18  N   UNL     1       7.172  23.899  55.166  1.00  0.00    -0.361 N 
HETATM   19  H   UNL     1       6.822  23.737  56.103  1.00  0.00     0.165 HD
HETATM   20  C   UNL     1       7.631  22.942  54.301  1.00  0.00     0.088 A 
HETATM   21  C   UNL     1       8.014  23.572  53.141  1.00  0.00     0.019 A 
HETATM   22  C   UNL     1       7.773  24.958  53.315  1.00  0.00     0.036 A 
ENDBRANCH  14  17
ENDBRANCH  10  13
ENDBRANCH   7   9
BRANCH   3  23
HETATM   23  O   UNL     1       6.885  32.855  61.066  1.00  0.00    -0.346 OA
BRANCH  23  24
HETATM   24  C   UNL     1       5.834  32.412  61.939  1.00  0.00     0.216 C 
BRANCH  24  25
HETATM   25  C   UNL     1       5.992  32.955  63.336  1.00  0.00    -0.017 A 
HETATM   26  C   UNL     1       4.863  33.094  64.141  1.00  0.00     0.125 A 
HETATM   27  N   UNL     1       4.882  33.550  65.414  1.00  0.00    -0.272 NA
HETATM   28  C   UNL     1       6.088  33.883  65.919  1.00  0.00     0.116 A 
HETATM   29  C   UNL     1       7.273  33.772  65.211  1.00  0.00     0.020 A 
HETATM   30  C   UNL     1       7.222  33.295  63.903  1.00  0.00     0.012 A 
ENDBRANCH  24  25
ENDBRANCH  23  24
ENDBRANCH   3  23
TORSDOF 6
ENDMDL
MODEL 3
REMARK VINA RESULT:      -8.8      1.892     10.180
REMARK  6 active torsions:
REMARK  status: ('A' for Active; 'I' for Inactive)
REMARK    1  A    between atoms: C_3  and  O_4 
REMARK    2  A    between atoms: O_4  and  C_5 
REMARK    3  A    between atoms: C_5  and  C_6 
REMARK    4  A    between atoms: C_15  and  C_16 
REMARK       I    between atoms: C_16  and  N_17 
REMARK    5  A    between atoms: N_17  and  N_18 
REMARK       I    between atoms: N_18  and  C_19 
REMARK    6  A    between atoms: C_19  and  C_20 
ROOT
HETATM    1  C   UNL     1       5.381  30.841  58.199  1.00  0.00     0.051 C 
HETATM    2  C   UNL     1       6.586  30.112  57.672  1.00  0.00    -0.027 A 
HETATM    3  C   UNL     1       7.892  30.481  58.039  1.00  0.00     0.081 A 
HETATM    4  C   UNL     1       9.006  29.831  57.483  1.00  0.00    -0.027 A 
HETATM    5  C   UNL     1      10.418  30.265  57.758  1.00  0.00     0.051 C 
HETATM    6  C   UNL     1       8.792  28.716  56.657  1.00  0.00     0.026 A 
HETATM    7  C   UNL     1       7.496  28.283  56.345  1.00  0.00     0.034 A 
HETATM    8  C   UNL     1       6.399  28.999  56.835  1.00  0.00     0.026 A 
ENDROOT
BRANCH   7   9
HETATM    9  C   UNL     1       7.351  27.080  55.477  1.00  0.00     0.270 C 
HETATM   10  N   UNL     1       7.115  25.876  56.110  1.00  0.00    -0.263 N 
HETATM   11  H   UNL     1       7.180  25.731  57.114  1.00  0.00     0.190 HD
HETATM   12  O   UNL     1       7.470  27.166  54.256  1.00  0.00    -0.266 OA
BRANCH  10  13
HETATM   13  N   UNL     1       7.100  24.718  55.325  1.00  0.00    -0.262 N 
HETATM   14  C   UNL     1       8.159  23.840  55.402  1.00  0.00     0.286 C 
HETATM   15  O   UNL     1       9.114  24.045  56.154  1.00  0.00    -0.264 OA
HETATM   16  H   UNL     1       6.297  24.590  54.715  1.00  0.00     0.190 HD
BRANCH  14  17
HETATM   17  C   UNL     1       8.073  22.679  54.546  1.00  0.00     0.102 A 
HETATM   18  N   UNL     1       7.865  21.418  55.068  1.00  0.00    -0.361 N 
HETATM   19  H   UNL     1       7.760  21.230  56.059  1.00  0.00     0.165 HD
HETATM   20  C   UNL     1       7.821  20.488  54.064  1.00  0.00     0.088 A 
HETATM   21  C   UNL     1       8.008  21.147  52.873  1.00  0.00     0.019 A 
HETATM   22  C   UNL     1       8.166  22.523  53.172  1.00  0.00     0.036 A 
ENDBRANCH  14  17
ENDBRANCH  10  13
ENDBRANCH   7   9
BRANCH   3  23
HETATM   23  O   UNL     1       8.031  31.539  58.904  1.00  0.00    -0.346 OA
BRANCH  23  24
HETATM   24  C   UNL     1       8.436  31.114  60.215  1.00  0.00     0.216 C 
BRANCH  24  25
HETATM   25  C   UNL     1       7.883  32.007  61.295  1.00  0.00    -0.017 A 
HETATM   26  C   UNL     1       6.788  32.820  61.008  1.00  0.00     0.125 A 
HETATM   27  N   UNL     1       6.194  33.646  61.898  1.00  0.00    -0.272 NA
HETATM   28  C   UNL     1       6.711  33.665  63.144  1.00  0.00     0.116 A 
HETATM   29  C   UNL     1       7.788  32.889  63.539  1.00  0.00     0.020 A 
HETATM   30  C   UNL     1       8.377  32.045  62.601  1.00  0.00     0.012 A 
ENDBRANCH  24  25
ENDBRANCH  23  24
ENDBRANCH   3  23
TORSDOF 6
ENDMDL
MODEL 4
REMARK VINA RESULT:      -8.6      1.714      1.882
REMARK  6 active torsions:
REMARK  status: ('A' for Active; 'I' for Inactive)
REMARK    1  A    between atoms: C_3  and  O_4 
REMARK    2  A    between atoms: O_4  and  C_5 
REMARK    3  A    between atoms: C_5  and  C_6 
REMARK    4  A    between atoms: C_15  and  C_16 
REMARK       I    between atoms: C_16  and  N_17 
REMARK    5  A    between atoms: N_17  and  N_18 
REMARK       I    between atoms: N_18  and  C_19 
REMARK    6  A    between atoms: C_19  and  C_20 
ROOT
HETATM    1  C   UNL     1       8.294  25.169  57.330  1.00  0.00     0.051 C 
HETATM    2  C   UNL     1       7.528  26.206  56.557  1.00  0.00    -0.027 A 
HETATM    3  C   UNL     1       7.316  26.087  55.172  1.00  0.00     0.081 A 
HETATM    4  C   UNL     1       6.656  27.100  54.456  1.00  0.00    -0.027 A 
HETATM    5  C   UNL     1       6.508  27.070  52.961  1.00  0.00     0.051 C 
HETATM    6  C   UNL     1       6.092  28.170  55.168  1.00  0.00     0.026 A 
HETATM    7  C   UNL     1       6.222  28.263  56.560  1.00  0.00     0.034 A 
HETATM    8  C   UNL     1       6.962  27.293  57.245  1.00  0.00     0.026 A 
ENDROOT
BRANCH   7   9
HETATM    9  C   UNL     1       5.580  29.419  57.248  1.00  0.00     0.270 C 
HETATM   10  N   UNL     1       6.299  30.025  58.258  1.00  0.00    -0.263 N 
HETATM   11  H   UNL     1       7.156  29.652  58.658  1.00  0.00     0.190 HD
HETATM   12  O   UNL     1       4.447  29.785  56.940  1.00  0.00    -0.266 OA
BRANCH  10  13
HETATM   13  N   UNL     1       5.666  31.029  58.999  1.00  0.00    -0.262 N 
HETATM   14  C   UNL     1       6.374  32.161  59.340  1.00  0.00     0.286 C 
HETATM   15  O   UNL     1       7.547  32.316  58.997  1.00  0.00    -0.264 OA
HETATM   16  H   UNL     1       4.699  30.860  59.265  1.00  0.00     0.190 HD
BRANCH  14  17
HETATM   17  C   UNL     1       5.651  33.140  60.119  1.00  0.00     0.102 A 
HETATM   18  N   UNL     1       4.652  33.909  59.557  1.00  0.00    -0.361 N 
HETATM   19  H   UNL     1       4.366  33.837  58.587  1.00  0.00     0.165 HD
HETATM   20  C   UNL     1       4.120  34.757  60.491  1.00  0.00     0.088 A 
HETATM   21  C   UNL     1       4.783  34.545  61.676  1.00  0.00     0.019 A 
HETATM   22  C   UNL     1       5.744  33.529  61.446  1.00  0.00     0.036 A 
ENDBRANCH  14  17
ENDBRANCH  10  13
ENDBRANCH   7   9
BRANCH   3  23
HETATM   23  O   UNL     1       7.837  24.982  54.544  1.00  0.00    -0.346 OA
BRANCH  23  24
HETATM   24  C   UNL     1       6.871  23.927  54.419  1.00  0.00     0.216 C 
BRANCH  24  25
HETATM   25  C   UNL     1       7.521  22.572  54.321  1.00  0.00    -0.017 A 
HETATM   26  C   UNL     1       7.753  21.844  55.486  1.00  0.00     0.125 A 
HETATM   27  N   UNL     1       8.312  20.614  55.523  1.00  0.00    -0.272 NA
HETATM   28  C   UNL     1       8.655  20.071  54.336  1.00  0.00     0.116 A 
HETATM   29  C   UNL     1       8.458  20.700  53.118  1.00  0.00     0.020 A 
HETATM   30  C   UNL     1       7.877  21.966  53.113  1.00  0.00     0.012 A 
ENDBRANCH  24  25
ENDBRANCH  23  24
ENDBRANCH   3  23
TORSDOF 6
ENDMDL
MODEL 5
REMARK VINA RESULT:      -8.5      2.489      3.729
REMARK  6 active torsions:
REMARK  status: ('A' for Active; 'I' for Inactive)
REMARK    1  A    between atoms: C_3  and  O_4 
REMARK    2  A    between atoms: O_4  and  C_5 
REMARK    3  A    between atoms: C_5  and  C_6 
REMARK    4  A    between atoms: C_15  and  C_16 
REMARK       I    between atoms: C_16  and  N_17 
REMARK    5  A    between atoms: N_17  and  N_18 
REMARK       I    between atoms: N_18  and  C_19 
REMARK    6  A    between atoms: C_19  and  C_20 
ROOT
HETATM    1  C   UNL     1      10.271  29.050  56.788  1.00  0.00     0.051 C 
HETATM    2  C   UNL     1       8.993  29.585  57.372  1.00  0.00    -0.027 A 
HETATM    3  C   UNL     1       7.741  29.293  56.802  1.00  0.00     0.081 A 
HETATM    4  C   UNL     1       6.565  29.858  57.322  1.00  0.00    -0.027 A 
HETATM    5  C   UNL     1       5.221  29.666  56.679  1.00  0.00     0.051 C 
HETATM    6  C   UNL     1       6.645  30.612  58.504  1.00  0.00     0.026 A 
HETATM    7  C   UNL     1       7.876  30.845  59.132  1.00  0.00     0.034 A 
HETATM    8  C   UNL     1       9.047  30.351  58.549  1.00  0.00     0.026 A 
ENDROOT
BRANCH   7   9
HETATM    9  C   UNL     1       7.877  31.640  60.394  1.00  0.00     0.270 C 
HETATM   10  N   UNL     1       7.062  31.194  61.415  1.00  0.00    -0.263 N 
HETATM   11  H   UNL     1       6.363  30.461  61.316  1.00  0.00     0.190 HD
HETATM   12  O   UNL     1       8.554  32.661  60.495  1.00  0.00    -0.266 OA
BRANCH  10  13
HETATM   13  N   UNL     1       6.952  31.991  62.559  1.00  0.00    -0.262 N 
HETATM   14  C   UNL     1       5.737  32.082  63.202  1.00  0.00     0.286 C 
HETATM   15  O   UNL     1       4.747  31.467  62.801  1.00  0.00    -0.264 OA
HETATM   16  H   UNL     1       7.790  32.486  62.853  1.00  0.00     0.190 HD
BRANCH  14  17
HETATM   17  C   UNL     1       5.706  32.940  64.364  1.00  0.00     0.102 A 
HETATM   18  N   UNL     1       4.512  33.339  64.929  1.00  0.00    -0.361 N 
HETATM   19  H   UNL     1       3.603  33.063  64.576  1.00  0.00     0.165 HD
HETATM   20  C   UNL     1       4.743  34.143  66.013  1.00  0.00     0.088 A 
HETATM   21  C   UNL     1       6.104  34.275  66.156  1.00  0.00     0.019 A 
HETATM   22  C   UNL     1       6.711  33.520  65.122  1.00  0.00     0.036 A 
ENDBRANCH  14  17
ENDBRANCH  10  13
ENDBRANCH   7   9
BRANCH   3  23
HETATM   23  O   UNL     1       7.725  28.494  55.684  1.00  0.00    -0.346 OA
BRANCH  23  24
HETATM   24  C   UNL     1       7.594  27.104  56.018  1.00  0.00     0.216 C 
BRANCH  24  25
HETATM   25  C   UNL     1       7.277  26.260  54.810  1.00  0.00    -0.017 A 
HETATM   26  C   UNL     1       7.172  26.873  53.563  1.00  0.00     0.125 A 
HETATM   27  N   UNL     1       6.910  26.221  52.409  1.00  0.00    -0.272 NA
HETATM   28  C   UNL     1       6.749  24.884  52.493  1.00  0.00     0.116 A 
HETATM   29  C   UNL     1       6.845  24.173  53.678  1.00  0.00     0.020 A 
HETATM   30  C   UNL     1       7.119  24.873  54.851  1.00  0.00     0.012 A 
ENDBRANCH  24  25
ENDBRANCH  23  24
ENDBRANCH   3  23
TORSDOF 6
ENDMDL
MODEL 6
REMARK VINA RESULT:      -8.5      3.393      4.920
REMARK  6 active torsions:
REMARK  status: ('A' for Active; 'I' for Inactive)
REMARK    1  A    between atoms: C_3  and  O_4 
REMARK    2  A    between atoms: O_4  and  C_5 
REMARK    3  A    between atoms: C_5  and  C_6 
REMARK    4  A    between atoms: C_15  and  C_16 
REMARK       I    between atoms: C_16  and  N_17 
REMARK    5  A    between atoms: N_17  and  N_18 
REMARK       I    between atoms: N_18  and  C_19 
REMARK    6  A    between atoms: C_19  and  C_20 
ROOT
HETATM    1  C   UNL     1       7.255  24.268  53.425  1.00  0.00     0.051 C 
HETATM    2  C   UNL     1       6.661  25.477  54.092  1.00  0.00    -0.027 A 
HETATM    3  C   UNL     1       5.543  26.141  53.556  1.00  0.00     0.081 A 
HETATM    4  C   UNL     1       5.044  27.309  54.158  1.00  0.00    -0.027 A 
HETATM    5  C   UNL     1       3.927  28.114  53.559  1.00  0.00     0.051 C 
HETATM    6  C   UNL     1       5.596  27.726  55.380  1.00  0.00     0.026 A 
HETATM    7  C   UNL     1       6.658  27.028  55.971  1.00  0.00     0.034 A 
HETATM    8  C   UNL     1       7.202  25.921  55.311  1.00  0.00     0.026 A 
ENDROOT
BRANCH   7   9
HETATM    9  C   UNL     1       7.178  27.522  57.278  1.00  0.00     0.270 C 
HETATM   10  N   UNL     1       6.900  28.834  57.607  1.00  0.00    -0.263 N 
HETATM   11  H   UNL     1       6.502  29.516  56.966  1.00  0.00     0.190 HD
HETATM   12  O   UNL     1       7.849  26.792  58.006  1.00  0.00    -0.266 OA
BRANCH  10  13
HETATM   13  N   UNL     1       7.483  29.354  58.767  1.00  0.00    -0.262 N 
HETATM   14  C   UNL     1       7.577  30.720  58.919  1.00  0.00     0.286 C 
HETATM   15  O   UNL     1       7.147  31.495  58.062  1.00  0.00    -0.264 OA
HETATM   16  H   UNL     1       7.829  28.680  59.446  1.00  0.00     0.190 HD
BRANCH  14  17
HETATM   17  C   UNL     1       8.207  31.173  60.138  1.00  0.00     0.102 A 
HETATM   18  N   UNL     1       7.733  30.789  61.376  1.00  0.00    -0.361 N 
HETATM   19  H   UNL     1       6.934  30.179  61.507  1.00  0.00     0.165 HD
HETATM   20  C   UNL     1       8.493  31.344  62.370  1.00  0.00     0.088 A 
HETATM   21  C   UNL     1       9.471  32.105  61.776  1.00  0.00     0.019 A 
HETATM   22  C   UNL     1       9.295  31.998  60.374  1.00  0.00     0.036 A 
ENDBRANCH  14  17
ENDBRANCH  10  13
ENDBRANCH   7   9
BRANCH   3  23
HETATM   23  O   UNL     1       5.008  25.643  52.394  1.00  0.00    -0.346 OA
BRANCH  23  24
HETATM   24  C   UNL     1       5.823  25.949  51.251  1.00  0.00     0.216 C 
BRANCH  24  25
HETATM   25  C   UNL     1       5.081  26.775  50.232  1.00  0.00    -0.017 A 
HETATM   26  C   UNL     1       4.193  26.143  49.364  1.00  0.00     0.125 A 
HETATM   27  N   UNL     1       3.459  26.779  48.423  1.00  0.00    -0.272 NA
HETATM   28  C   UNL     1       3.609  28.117  48.342  1.00  0.00     0.116 A 
HETATM   29  C   UNL     1       4.454  28.846  49.163  1.00  0.00     0.020 A 
HETATM   30  C   UNL     1       5.194  28.163  50.125  1.00  0.00     0.012 A 
ENDBRANCH  24  25
ENDBRANCH  23  24
ENDBRANCH   3  23
TORSDOF 6
ENDMDL
MODEL 7
REMARK VINA RESULT:      -8.4      3.077      3.602
REMARK  6 active torsions:
REMARK  status: ('A' for Active; 'I' for Inactive)
REMARK    1  A    between atoms: C_3  and  O_4 
REMARK    2  A    between atoms: O_4  and  C_5 
REMARK    3  A    between atoms: C_5  and  C_6 
REMARK    4  A    between atoms: C_15  and  C_16 
REMARK       I    between atoms: C_16  and  N_17 
REMARK    5  A    between atoms: N_17  and  N_18 
REMARK       I    between atoms: N_18  and  C_19 
REMARK    6  A    between atoms: C_19  and  C_20 
ROOT
HETATM    1  C   UNL     1       4.996  26.552  52.231  1.00  0.00     0.051 C 
HETATM    2  C   UNL     1       5.060  26.699  53.726  1.00  0.00    -0.027 A 
HETATM    3  C   UNL     1       5.619  25.700  54.543  1.00  0.00     0.081 A 
HETATM    4  C   UNL     1       5.609  25.826  55.942  1.00  0.00    -0.027 A 
HETATM    5  C   UNL     1       6.090  24.736  56.857  1.00  0.00     0.051 C 
HETATM    6  C   UNL     1       5.152  27.028  56.506  1.00  0.00     0.026 A 
HETATM    7  C   UNL     1       4.667  28.068  55.702  1.00  0.00     0.034 A 
HETATM    8  C   UNL     1       4.600  27.888  54.317  1.00  0.00     0.026 A 
ENDROOT
BRANCH   7   9
HETATM    9  C   UNL     1       4.218  29.320  56.375  1.00  0.00     0.270 C 
HETATM   10  N   UNL     1       4.371  29.384  57.745  1.00  0.00    -0.263 N 
HETATM   11  H   UNL     1       4.626  28.595  58.334  1.00  0.00     0.190 HD
HETATM   12  O   UNL     1       3.706  30.233  55.730  1.00  0.00    -0.266 OA
BRANCH  10  13
HETATM   13  N   UNL     1       3.842  30.496  58.410  1.00  0.00    -0.262 N 
HETATM   14  C   UNL     1       4.679  31.536  58.751  1.00  0.00     0.286 C 
HETATM   15  O   UNL     1       5.879  31.516  58.474  1.00  0.00    -0.264 OA
HETATM   16  H   UNL     1       2.849  30.470  58.625  1.00  0.00     0.190 HD
BRANCH  14  17
HETATM   17  C   UNL     1       4.056  32.637  59.451  1.00  0.00     0.102 A 
HETATM   18  N   UNL     1       3.050  32.424  60.372  1.00  0.00    -0.361 N 
HETATM   19  H   UNL     1       2.695  31.506  60.614  1.00  0.00     0.165 HD
HETATM   20  C   UNL     1       2.625  33.614  60.896  1.00  0.00     0.088 A 
HETATM   21  C   UNL     1       3.356  34.618  60.306  1.00  0.00     0.019 A 
HETATM   22  C   UNL     1       4.256  34.007  59.399  1.00  0.00     0.036 A 
ENDBRANCH  14  17
ENDBRANCH  10  13
ENDBRANCH   7   9
BRANCH   3  23
HETATM   23  O   UNL     1       6.109  24.576  53.923  1.00  0.00    -0.346 OA
BRANCH  23  24
HETATM   24  C   UNL     1       7.538  24.478  54.036  1.00  0.00     0.216 C 
BRANCH  24  25
HETATM   25  C   UNL     1       8.008  23.046  54.037  1.00  0.00    -0.017 A 
HETATM   26  C   UNL     1       8.758  22.579  55.114  1.00  0.00     0.125 A 
HETATM   27  N   UNL     1       9.218  21.314  55.235  1.00  0.00    -0.272 NA
HETATM   28  C   UNL     1       8.914  20.462  54.234  1.00  0.00     0.116 A 
HETATM   29  C   UNL     1       8.166  20.817  53.125  1.00  0.00     0.020 A 
HETATM   30  C   UNL     1       7.702  22.127  53.030  1.00  0.00     0.012 A 
ENDBRANCH  24  25
ENDBRANCH  23  24
ENDBRANCH   3  23
TORSDOF 6
ENDMDL
MODEL 8
REMARK VINA RESULT:      -8.4      2.174     10.317
REMARK  6 active torsions:
REMARK  status: ('A' for Active; 'I' for Inactive)
REMARK    1  A    between atoms: C_3  and  O_4 
REMARK    2  A    between atoms: O_4  and  C_5 
REMARK    3  A    between atoms: C_5  and  C_6 
REMARK    4  A    between atoms: C_15  and  C_16 
REMARK       I    between atoms: C_16  and  N_17 
REMARK    5  A    between atoms: N_17  and  N_18 
REMARK       I    between atoms: N_18  and  C_19 
REMARK    6  A    between atoms: C_19  and  C_20 
ROOT
HETATM    1  C   UNL     1       9.163  30.629  60.330  1.00  0.00     0.051 C 
HETATM    2  C   UNL     1       8.192  30.555  59.185  1.00  0.00    -0.027 A 
HETATM    3  C   UNL     1       7.164  31.502  59.025  1.00  0.00     0.081 A 
HETATM    4  C   UNL     1       6.226  31.376  57.987  1.00  0.00    -0.027 A 
HETATM    5  C   UNL     1       5.047  32.297  57.845  1.00  0.00     0.051 C 
HETATM    6  C   UNL     1       6.410  30.364  57.031  1.00  0.00     0.026 A 
HETATM    7  C   UNL     1       7.477  29.461  57.129  1.00  0.00     0.034 A 
HETATM    8  C   UNL     1       8.348  29.545  58.220  1.00  0.00     0.026 A 
ENDROOT
BRANCH   7   9
HETATM    9  C   UNL     1       7.617  28.426  56.064  1.00  0.00     0.270 C 
HETATM   10  N   UNL     1       6.914  27.251  56.238  1.00  0.00    -0.263 N 
HETATM   11  H   UNL     1       6.435  26.987  57.096  1.00  0.00     0.190 HD
HETATM   12  O   UNL     1       8.353  28.612  55.098  1.00  0.00    -0.266 OA
BRANCH  10  13
HETATM   13  N   UNL     1       7.128  26.219  55.317  1.00  0.00    -0.262 N 
HETATM   14  C   UNL     1       7.331  24.937  55.779  1.00  0.00     0.286 C 
HETATM   15  O   UNL     1       7.316  24.675  56.983  1.00  0.00    -0.264 OA
HETATM   16  H   UNL     1       7.138  26.479  54.335  1.00  0.00     0.190 HD
BRANCH  14  17
HETATM   17  C   UNL     1       7.562  23.936  54.763  1.00  0.00     0.102 A 
HETATM   18  N   UNL     1       7.533  22.589  55.065  1.00  0.00    -0.361 N 
HETATM   19  H   UNL     1       7.351  22.225  55.993  1.00  0.00     0.165 HD
HETATM   20  C   UNL     1       7.779  21.844  53.943  1.00  0.00     0.088 A 
HETATM   21  C   UNL     1       7.977  22.714  52.896  1.00  0.00     0.019 A 
HETATM   22  C   UNL     1       7.840  24.028  53.409  1.00  0.00     0.036 A 
ENDBRANCH  14  17
ENDBRANCH  10  13
ENDBRANCH   7   9
BRANCH   3  23
HETATM   23  O   UNL     1       7.079  32.506  59.958  1.00  0.00    -0.346 OA
BRANCH  23  24
HETATM   24  C   UNL     1       6.115  32.211  60.981  1.00  0.00     0.216 C 
BRANCH  24  25
HETATM   25  C   UNL     1       6.461  32.871  62.291  1.00  0.00    -0.017 A 
HETATM   26  C   UNL     1       5.644  33.894  62.770  1.00  0.00     0.125 A 
HETATM   27  N   UNL     1       5.841  34.547  63.937  1.00  0.00    -0.272 NA
HETATM   28  C   UNL     1       6.903  34.162  64.674  1.00  0.00     0.116 A 
HETATM   29  C   UNL     1       7.771  33.150  64.298  1.00  0.00     0.020 A 
HETATM   30  C   UNL     1       7.540  32.493  63.092  1.00  0.00     0.012 A 
ENDBRANCH  24  25
ENDBRANCH  23  24
ENDBRANCH   3  23
TORSDOF 6
ENDMDL
MODEL 9
REMARK VINA RESULT:      -8.2      6.248     10.534
REMARK  6 active torsions:
REMARK  status: ('A' for Active; 'I' for Inactive)
REMARK    1  A    between atoms: C_3  and  O_4 
REMARK    2  A    between atoms: O_4  and  C_5 
REMARK    3  A    between atoms: C_5  and  C_6 
REMARK    4  A    between atoms: C_15  and  C_16 
REMARK       I    between atoms: C_16  and  N_17 
REMARK    5  A    between atoms: N_17  and  N_18 
REMARK       I    between atoms: N_18  and  C_19 
REMARK    6  A    between atoms: C_19  and  C_20 
ROOT
HETATM    1  C   UNL     1       3.256  33.464  62.778  1.00  0.00     0.051 C 
HETATM    2  C   UNL     1       4.519  33.473  63.594  1.00  0.00    -0.027 A 
HETATM    3  C   UNL     1       5.711  32.900  63.117  1.00  0.00     0.081 A 
HETATM    4  C   UNL     1       6.862  32.860  63.921  1.00  0.00    -0.027 A 
HETATM    5  C   UNL     1       8.122  32.159  63.498  1.00  0.00     0.051 C 
HETATM    6  C   UNL     1       6.842  33.523  65.159  1.00  0.00     0.026 A 
HETATM    7  C   UNL     1       5.686  34.170  65.616  1.00  0.00     0.034 A 
HETATM    8  C   UNL     1       4.522  34.121  64.841  1.00  0.00     0.026 A 
ENDROOT
BRANCH   7   9
HETATM    9  C   UNL     1       5.749  34.867  66.932  1.00  0.00     0.270 C 
HETATM   10  N   UNL     1       6.783  34.517  67.777  1.00  0.00    -0.263 N 
HETATM   11  H   UNL     1       7.406  33.726  67.628  1.00  0.00     0.190 HD
HETATM   12  O   UNL     1       4.893  35.691  67.251  1.00  0.00    -0.266 OA
BRANCH  10  13
HETATM   13  N   UNL     1       6.789  35.065  69.064  1.00  0.00    -0.262 N 
HETATM   14  C   UNL     1       6.180  34.377  70.091  1.00  0.00     0.286 C 
HETATM   15  O   UNL     1       5.641  33.285  69.905  1.00  0.00    -0.264 OA
HETATM   16  H   UNL     1       7.240  35.970  69.173  1.00  0.00     0.190 HD
BRANCH  14  17
HETATM   17  C   UNL     1       6.217  35.021  71.384  1.00  0.00     0.102 A 
HETATM   18  N   UNL     1       7.139  36.008  71.668  1.00  0.00    -0.361 N 
HETATM   19  H   UNL     1       7.831  36.337  71.005  1.00  0.00     0.165 HD
HETATM   20  C   UNL     1       6.974  36.460  72.949  1.00  0.00     0.088 A 
HETATM   21  C   UNL     1       5.935  35.757  73.512  1.00  0.00     0.019 A 
HETATM   22  C   UNL     1       5.457  34.854  72.531  1.00  0.00     0.036 A 
ENDBRANCH  14  17
ENDBRANCH  10  13
ENDBRANCH   7   9
BRANCH   3  23
HETATM   23  O   UNL     1       5.682  32.327  61.869  1.00  0.00    -0.346 OA
BRANCH  23  24
HETATM   24  C   UNL     1       6.339  33.141  60.886  1.00  0.00     0.216 C 
BRANCH  24  25
HETATM   25  C   UNL     1       7.304  32.346  60.045  1.00  0.00    -0.017 A 
HETATM   26  C   UNL     1       6.803  31.481  59.073  1.00  0.00     0.125 A 
HETATM   27  N   UNL     1       7.567  30.731  58.248  1.00  0.00    -0.272 NA
HETATM   28  C   UNL     1       8.903  30.849  58.389  1.00  0.00     0.116 A 
HETATM   29  C   UNL     1       9.507  31.687  59.312  1.00  0.00     0.020 A 
HETATM   30  C   UNL     1       8.693  32.449  60.146  1.00  0.00     0.012 A 
ENDBRANCH  24  25
ENDBRANCH  23  24
ENDBRANCH   3  23
TORSDOF 6
ENDMDL
MODEL 10
REMARK VINA RESULT:      -8.1      2.477      9.890
REMARK  6 active torsions:
REMARK  status: ('A' for Active; 'I' for Inactive)
REMARK    1  A    between atoms: C_3  and  O_4 
REMARK    2  A    between atoms: O_4  and  C_5 
REMARK    3  A    between atoms: C_5  and  C_6 
REMARK    4  A    between atoms: C_15  and  C_16 
REMARK       I    between atoms: C_16  and  N_17 
REMARK    5  A    between atoms: N_17  and  N_18 
REMARK       I    between atoms: N_18  and  C_19 
REMARK    6  A    between atoms: C_19  and  C_20 
ROOT
HETATM    1  C   UNL     1       9.100  30.539  58.751  1.00  0.00     0.051 C 
HETATM    2  C   UNL     1       7.790  29.981  58.267  1.00  0.00    -0.027 A 
HETATM    3  C   UNL     1       6.630  30.773  58.201  1.00  0.00     0.081 A 
HETATM    4  C   UNL     1       5.401  30.216  57.810  1.00  0.00    -0.027 A 
HETATM    5  C   UNL     1       4.115  30.993  57.834  1.00  0.00     0.051 C 
HETATM    6  C   UNL     1       5.377  28.887  57.356  1.00  0.00     0.026 A 
HETATM    7  C   UNL     1       6.542  28.107  57.338  1.00  0.00     0.034 A 
HETATM    8  C   UNL     1       7.738  28.651  57.817  1.00  0.00     0.026 A 
ENDROOT
BRANCH   7   9
HETATM    9  C   UNL     1       6.440  26.711  56.824  1.00  0.00     0.270 C 
HETATM   10  N   UNL     1       6.962  25.712  57.621  1.00  0.00    -0.263 N 
HETATM   11  H   UNL     1       7.532  25.873  58.448  1.00  0.00     0.190 HD
HETATM   12  O   UNL     1       5.941  26.479  55.725  1.00  0.00    -0.266 OA
BRANCH  10  13
HETATM   13  N   UNL     1       6.990  24.412  57.105  1.00  0.00    -0.262 N 
HETATM   14  C   UNL     1       8.205  23.832  56.810  1.00  0.00     0.286 C 
HETATM   15  O   UNL     1       9.267  24.426  57.002  1.00  0.00    -0.264 OA
HETATM   16  H   UNL     1       6.092  23.960  56.956  1.00  0.00     0.190 HD
BRANCH  14  17
HETATM   17  C   UNL     1       8.144  22.495  56.264  1.00  0.00     0.102 A 
HETATM   18  N   UNL     1       8.475  21.394  57.027  1.00  0.00    -0.361 N 
HETATM   19  H   UNL     1       8.773  21.449  57.994  1.00  0.00     0.165 HD
HETATM   20  C   UNL     1       8.339  20.247  56.292  1.00  0.00     0.088 A 
HETATM   21  C   UNL     1       7.919  20.603  55.032  1.00  0.00     0.019 A 
HETATM   22  C   UNL     1       7.794  22.014  55.012  1.00  0.00     0.036 A 
ENDBRANCH  14  17
ENDBRANCH  10  13
ENDBRANCH   7   9
BRANCH   3  23
HETATM   23  O   UNL     1       6.735  32.084  58.597  1.00  0.00    -0.346 OA
BRANCH  23  24
HETATM   24  C   UNL     1       6.832  32.211  60.024  1.00  0.00     0.216 C 
BRANCH  24  25
HETATM   25  C   UNL     1       5.551  32.714  60.636  1.00  0.00    -0.017 A 
HETATM   26  C   UNL     1       5.113  32.164  61.839  1.00  0.00     0.125 A 
HETATM   27  N   UNL     1       3.992  32.546  62.492  1.00  0.00    -0.272 NA
HETATM   28  C   UNL     1       3.267  33.531  61.924  1.00  0.00     0.116 A 
HETATM   29  C   UNL     1       3.617  34.155  60.738  1.00  0.00     0.020 A 
HETATM   30  C   UNL     1       4.779  33.743  60.090  1.00  0.00     0.012 A 
ENDBRANCH  24  25
ENDBRANCH  23  24
ENDBRANCH   3  23
TORSDOF 6
ENDMDL
