MODEL 1
REMARK VINA RESULT:     -10.3      0.000      0.000
REMARK  3 active torsions:
REMARK  status: ('A' for Active; 'I' for Inactive)
REMARK    1  A    between atoms: C_2  and  C_3 
REMARK    2  A    between atoms: C_9  and  N_10 
REMARK    3  A    between atoms: C_12  and  C_13 
ROOT
HETATM    1  C   UNL     1       7.033  27.504  55.535  1.00  0.00    -0.006 A 
HETATM    2  C   UNL     1       5.898  27.875  54.740  1.00  0.00     0.063 A 
HETATM    3  C   UNL     1       5.293  26.873  53.976  1.00  0.00     0.165 A 
HETATM    4  N   UNL     1       4.225  27.085  53.222  1.00  0.00    -0.222 NA
HETATM    5  C   UNL     1       3.721  28.315  53.196  1.00  0.00     0.237 A 
HETATM    6  N   UNL     1       4.205  29.367  53.850  1.00  0.00    -0.229 NA
HETATM    7  C   UNL     1       5.288  29.141  54.602  1.00  0.00     0.117 A 
HETATM    8  N   UNL     1       5.753  25.626  53.947  1.00  0.00    -0.228 NA
HETATM    9  C   UNL     1       6.841  25.270  54.663  1.00  0.00     0.070 A 
HETATM   10  C   UNL     1       7.490  26.181  55.476  1.00  0.00     0.046 A 
ENDROOT
BRANCH   9  11
HETATM   11  C   UNL     1       7.277  23.867  54.511  1.00  0.00    -0.004 A 
HETATM   12  C   UNL     1       7.515  23.040  55.627  1.00  0.00     0.053 A 
HETATM   13  C   UNL     1       7.940  21.742  55.418  1.00  0.00     0.106 A 
HETATM   14  C   UNL     1       8.136  21.235  54.157  1.00  0.00     0.105 A 
HETATM   15  O   UNL     1       8.219  20.835  56.392  1.00  0.00    -0.323 OA
HETATM   16  O   UNL     1       8.560  19.944  54.177  1.00  0.00    -0.323 OA
HETATM   17  C   UNL     1       7.921  21.997  53.034  1.00  0.00     0.040 A 
HETATM   18  C   UNL     1       8.629  19.702  55.597  1.00  0.00     0.352 A 
HETATM   19  C   UNL     1       7.494  23.319  53.218  1.00  0.00     0.017 A 
ENDBRANCH   9  11
BRANCH   1  20
HETATM   20  C   UNL     1       7.754  28.425  56.429  1.00  0.00    -0.025 A 
HETATM   21  C   UNL     1       8.914  29.088  55.998  1.00  0.00     0.014 A 
HETATM   22  C   UNL     1       9.586  29.978  56.842  1.00  0.00     0.024 A 
HETATM   23  C   UNL     1       9.093  30.223  58.120  1.00  0.00     0.034 A 
HETATM   24  C   UNL     1       7.937  29.586  58.564  1.00  0.00     0.024 A 
HETATM   25 CL   UNL     1       9.917  31.320  59.159  1.00  0.00    -0.084 Cl
HETATM   26  C   UNL     1       7.271  28.692  57.721  1.00  0.00     0.014 A 
ENDBRANCH   1  20
BRANCH   7  27
HETATM   27  N   UNL     1       5.734  30.284  55.263  1.00  0.00    -0.286 NA
HETATM   28  H   UNL     1       5.658  31.065  54.617  1.00  0.00     0.125 HD
HETATM   29  H   UNL     1       6.676  30.184  55.623  1.00  0.00     0.125 HD
ENDBRANCH   7  27
TORSDOF 3
ENDMDL
MODEL 2
REMARK VINA RESULT:     -10.1      4.224      7.347
REMARK  3 active torsions:
REMARK  status: ('A' for Active; 'I' for Inactive)
REMARK    1  A    between atoms: C_2  and  C_3 
REMARK    2  A    between atoms: C_9  and  N_10 
REMARK    3  A    between atoms: C_12  and  C_13 
ROOT
HETATM    1  C   UNL     1       6.759  26.784  54.676  1.00  0.00    -0.006 A 
HETATM    2  C   UNL     1       5.580  27.447  54.199  1.00  0.00     0.063 A 
HETATM    3  C   UNL     1       5.387  28.776  54.589  1.00  0.00     0.165 A 
HETATM    4  N   UNL     1       4.353  29.501  54.194  1.00  0.00    -0.222 NA
HETATM    5  C   UNL     1       3.461  28.924  53.396  1.00  0.00     0.237 A 
HETATM    6  N   UNL     1       3.503  27.665  52.966  1.00  0.00    -0.229 NA
HETATM    7  C   UNL     1       4.549  26.941  53.378  1.00  0.00     0.117 A 
HETATM    8  N   UNL     1       6.234  29.409  55.395  1.00  0.00    -0.228 NA
HETATM    9  C   UNL     1       7.329  28.787  55.880  1.00  0.00     0.070 A 
HETATM   10  C   UNL     1       7.626  27.484  55.526  1.00  0.00     0.046 A 
ENDROOT
BRANCH   9  11
HETATM   11  C   UNL     1       8.165  29.585  56.799  1.00  0.00    -0.004 A 
HETATM   12  C   UNL     1       7.607  30.292  57.883  1.00  0.00     0.053 A 
HETATM   13  C   UNL     1       8.441  31.037  58.695  1.00  0.00     0.106 A 
HETATM   14  C   UNL     1       9.795  31.108  58.478  1.00  0.00     0.105 A 
HETATM   15  O   UNL     1       8.048  31.777  59.766  1.00  0.00    -0.323 OA
HETATM   16  O   UNL     1      10.426  31.897  59.387  1.00  0.00    -0.323 OA
HETATM   17  C   UNL     1      10.393  30.440  57.436  1.00  0.00     0.040 A 
HETATM   18  C   UNL     1       9.310  32.334  60.189  1.00  0.00     0.352 A 
HETATM   19  C   UNL     1       9.568  29.681  56.594  1.00  0.00     0.017 A 
ENDBRANCH   9  11
BRANCH   1  20
HETATM   20  C   UNL     1       7.133  25.405  54.322  1.00  0.00    -0.025 A 
HETATM   21  C   UNL     1       6.869  24.338  55.196  1.00  0.00     0.014 A 
HETATM   22  C   UNL     1       7.207  23.026  54.848  1.00  0.00     0.024 A 
HETATM   23  C   UNL     1       7.800  22.769  53.616  1.00  0.00     0.034 A 
HETATM   24  C   UNL     1       8.060  23.810  52.729  1.00  0.00     0.024 A 
HETATM   25 CL   UNL     1       8.214  21.156  53.185  1.00  0.00    -0.084 Cl
HETATM   26  C   UNL     1       7.727  25.121  53.080  1.00  0.00     0.014 A 
ENDBRANCH   1  20
BRANCH   7  27
HETATM   27  N   UNL     1       4.531  25.638  52.883  1.00  0.00    -0.286 NA
HETATM   28  H   UNL     1       4.276  25.684  51.900  1.00  0.00     0.125 HD
HETATM   29  H   UNL     1       3.910  25.031  53.406  1.00  0.00     0.125 HD
ENDBRANCH   7  27
TORSDOF 3
ENDMDL
MODEL 3
REMARK VINA RESULT:      -9.8      1.673      2.209
REMARK  3 active torsions:
REMARK  status: ('A' for Active; 'I' for Inactive)
REMARK    1  A    between atoms: C_2  and  C_3 
REMARK    2  A    between atoms: C_9  and  N_10 
REMARK    3  A    between atoms: C_12  and  C_13 
ROOT
HETATM    1  C   UNL     1       6.233  27.095  54.211  1.00  0.00    -0.006 A 
HETATM    2  C   UNL     1       5.785  27.324  52.868  1.00  0.00     0.063 A 
HETATM    3  C   UNL     1       5.820  26.240  51.985  1.00  0.00     0.165 A 
HETATM    4  N   UNL     1       5.411  26.319  50.729  1.00  0.00    -0.222 NA
HETATM    5  C   UNL     1       4.954  27.491  50.299  1.00  0.00     0.237 A 
HETATM    6  N   UNL     1       4.886  28.609  51.018  1.00  0.00    -0.229 NA
HETATM    7  C   UNL     1       5.310  28.518  52.283  1.00  0.00     0.117 A 
HETATM    8  N   UNL     1       6.276  25.045  52.346  1.00  0.00    -0.228 NA
HETATM    9  C   UNL     1       6.733  24.824  53.597  1.00  0.00     0.070 A 
HETATM   10  C   UNL     1       6.709  25.823  54.553  1.00  0.00     0.046 A 
ENDROOT
BRANCH   9  11
HETATM   11  C   UNL     1       7.253  23.466  53.859  1.00  0.00    -0.004 A 
HETATM   12  C   UNL     1       7.377  22.960  55.168  1.00  0.00     0.053 A 
HETATM   13  C   UNL     1       7.888  21.689  55.347  1.00  0.00     0.106 A 
HETATM   14  C   UNL     1       8.278  20.906  54.289  1.00  0.00     0.105 A 
HETATM   15  O   UNL     1       8.077  21.074  56.545  1.00  0.00    -0.323 OA
HETATM   16  O   UNL     1       8.757  19.697  54.686  1.00  0.00    -0.323 OA
HETATM   17  C   UNL     1       8.181  21.349  52.992  1.00  0.00     0.040 A 
HETATM   18  C   UNL     1       8.645  19.818  56.119  1.00  0.00     0.352 A 
HETATM   19  C   UNL     1       7.669  22.637  52.783  1.00  0.00     0.017 A 
ENDBRANCH   9  11
BRANCH   1  20
HETATM   20  C   UNL     1       6.217  28.114  55.273  1.00  0.00    -0.025 A 
HETATM   21  C   UNL     1       5.067  28.327  56.052  1.00  0.00     0.014 A 
HETATM   22  C   UNL     1       5.061  29.282  57.074  1.00  0.00     0.024 A 
HETATM   23  C   UNL     1       6.209  30.023  57.335  1.00  0.00     0.034 A 
HETATM   24  C   UNL     1       7.364  29.819  56.583  1.00  0.00     0.024 A 
HETATM   25 CL   UNL     1       6.204  31.196  58.594  1.00  0.00    -0.084 Cl
HETATM   26  C   UNL     1       7.367  28.869  55.559  1.00  0.00     0.014 A 
ENDBRANCH   1  20
BRANCH   7  27
HETATM   27  N   UNL     1       5.201  29.722  52.976  1.00  0.00    -0.286 NA
HETATM   28  H   UNL     1       6.143  30.062  53.155  1.00  0.00     0.125 HD
HETATM   29  H   UNL     1       4.665  29.633  53.831  1.00  0.00     0.125 HD
ENDBRANCH   7  27
TORSDOF 3
ENDMDL
MODEL 4
REMARK VINA RESULT:      -9.6      2.643      4.312
REMARK  3 active torsions:
REMARK  status: ('A' for Active; 'I' for Inactive)
REMARK    1  A    between atoms: C_2  and  C_3 
REMARK    2  A    between atoms: C_9  and  N_10 
REMARK    3  A    between atoms: C_12  and  C_13 
ROOT
HETATM    1  C   UNL     1       6.201  27.271  54.331  1.00  0.00    -0.006 A 
HETATM    2  C   UNL     1       6.732  27.839  55.536  1.00  0.00     0.063 A 
HETATM    3  C   UNL     1       7.549  27.024  56.326  1.00  0.00     0.165 A 
HETATM    4  N   UNL     1       8.117  27.441  57.446  1.00  0.00    -0.222 NA
HETATM    5  C   UNL     1       7.886  28.692  57.828  1.00  0.00     0.237 A 
HETATM    6  N   UNL     1       7.114  29.569  57.192  1.00  0.00    -0.229 NA
HETATM    7  C   UNL     1       6.539  29.134  56.066  1.00  0.00     0.117 A 
HETATM    8  N   UNL     1       7.810  25.760  56.007  1.00  0.00    -0.228 NA
HETATM    9  C   UNL     1       7.289  25.201  54.894  1.00  0.00     0.070 A 
HETATM   10  C   UNL     1       6.497  25.935  54.031  1.00  0.00     0.046 A 
ENDROOT
BRANCH   9  11
HETATM   11  C   UNL     1       7.620  23.779  54.676  1.00  0.00    -0.004 A 
HETATM   12  C   UNL     1       7.994  22.934  55.740  1.00  0.00     0.053 A 
HETATM   13  C   UNL     1       8.310  21.616  55.467  1.00  0.00     0.106 A 
HETATM   14  C   UNL     1       8.270  21.107  54.193  1.00  0.00     0.105 A 
HETATM   15  O   UNL     1       8.698  20.691  56.385  1.00  0.00    -0.323 OA
HETATM   16  O   UNL     1       8.623  19.795  54.147  1.00  0.00    -0.323 OA
HETATM   17  C   UNL     1       7.913  21.886  53.118  1.00  0.00     0.040 A 
HETATM   18  C   UNL     1       8.912  19.542  55.537  1.00  0.00     0.352 A 
HETATM   19  C   UNL     1       7.592  23.227  53.367  1.00  0.00     0.017 A 
ENDBRANCH   9  11
BRANCH   1  20
HETATM   20  C   UNL     1       5.365  28.007  53.368  1.00  0.00    -0.025 A 
HETATM   21  C   UNL     1       5.935  28.632  52.246  1.00  0.00     0.014 A 
HETATM   22  C   UNL     1       5.136  29.313  51.322  1.00  0.00     0.024 A 
HETATM   23  C   UNL     1       3.758  29.363  51.505  1.00  0.00     0.034 A 
HETATM   24  C   UNL     1       3.170  28.740  52.603  1.00  0.00     0.024 A 
HETATM   25 CL   UNL     1       2.774  30.199  50.368  1.00  0.00    -0.084 Cl
HETATM   26  C   UNL     1       3.970  28.065  53.529  1.00  0.00     0.014 A 
ENDBRANCH   1  20
BRANCH   7  27
HETATM   27  N   UNL     1       5.754  30.106  55.450  1.00  0.00    -0.286 NA
HETATM   28  H   UNL     1       6.293  30.968  55.422  1.00  0.00     0.125 HD
HETATM   29  H   UNL     1       4.861  30.235  55.911  1.00  0.00     0.125 HD
ENDBRANCH   7  27
TORSDOF 3
ENDMDL
MODEL 5
REMARK VINA RESULT:      -9.1      4.388      7.388
REMARK  3 active torsions:
REMARK  status: ('A' for Active; 'I' for Inactive)
REMARK    1  A    between atoms: C_2  and  C_3 
REMARK    2  A    between atoms: C_9  and  N_10 
REMARK    3  A    between atoms: C_12  and  C_13 
ROOT
HETATM    1  C   UNL     1       6.946  25.401  54.707  1.00  0.00    -0.006 A 
HETATM    2  C   UNL     1       7.215  26.316  55.778  1.00  0.00     0.063 A 
HETATM    3  C   UNL     1       6.617  27.578  55.712  1.00  0.00     0.165 A 
HETATM    4  N   UNL     1       6.769  28.499  56.651  1.00  0.00    -0.222 NA
HETATM    5  C   UNL     1       7.534  28.197  57.695  1.00  0.00     0.237 A 
HETATM    6  N   UNL     1       8.182  27.050  57.878  1.00  0.00    -0.229 NA
HETATM    7  C   UNL     1       8.027  26.131  56.919  1.00  0.00     0.117 A 
HETATM    8  N   UNL     1       5.850  27.947  54.690  1.00  0.00    -0.228 NA
HETATM    9  C   UNL     1       5.616  27.109  53.658  1.00  0.00     0.070 A 
HETATM   10  C   UNL     1       6.135  25.828  53.647  1.00  0.00     0.046 A 
ENDROOT
BRANCH   9  11
HETATM   11  C   UNL     1       4.785  27.655  52.566  1.00  0.00    -0.004 A 
HETATM   12  C   UNL     1       4.996  27.291  51.221  1.00  0.00     0.053 A 
HETATM   13  C   UNL     1       4.197  27.852  50.244  1.00  0.00     0.106 A 
HETATM   14  C   UNL     1       3.204  28.752  50.544  1.00  0.00     0.105 A 
HETATM   15  O   UNL     1       4.290  27.607  48.909  1.00  0.00    -0.323 OA
HETATM   16  O   UNL     1       2.544  29.185  49.437  1.00  0.00    -0.323 OA
HETATM   17  C   UNL     1       2.955  29.144  51.837  1.00  0.00     0.040 A 
HETATM   18  C   UNL     1       3.250  28.470  48.403  1.00  0.00     0.352 A 
HETATM   19  C   UNL     1       3.755  28.593  52.847  1.00  0.00     0.017 A 
ENDBRANCH   9  11
BRANCH   1  20
HETATM   20  C   UNL     1       7.458  24.022  54.647  1.00  0.00    -0.025 A 
HETATM   21  C   UNL     1       7.113  23.081  55.631  1.00  0.00     0.014 A 
HETATM   22  C   UNL     1       7.584  21.766  55.562  1.00  0.00     0.024 A 
HETATM   23  C   UNL     1       8.395  21.378  54.499  1.00  0.00     0.034 A 
HETATM   24  C   UNL     1       8.740  22.291  53.506  1.00  0.00     0.024 A 
HETATM   25 CL   UNL     1       8.974  19.760  54.411  1.00  0.00    -0.084 Cl
HETATM   26  C   UNL     1       8.272  23.606  53.581  1.00  0.00     0.014 A 
ENDBRANCH   1  20
BRANCH   7  27
HETATM   27  N   UNL     1       8.726  24.954  57.180  1.00  0.00    -0.286 NA
HETATM   28  H   UNL     1       9.484  24.888  56.506  1.00  0.00     0.125 HD
HETATM   29  H   UNL     1       8.131  24.134  57.160  1.00  0.00     0.125 HD
ENDBRANCH   7  27
TORSDOF 3
ENDMDL
MODEL 6
REMARK VINA RESULT:      -8.8      1.935      2.338
REMARK  3 active torsions:
REMARK  status: ('A' for Active; 'I' for Inactive)
REMARK    1  A    between atoms: C_2  and  C_3 
REMARK    2  A    between atoms: C_9  and  N_10 
REMARK    3  A    between atoms: C_12  and  C_13 
ROOT
HETATM    1  C   UNL     1       5.744  27.925  54.567  1.00  0.00    -0.006 A 
HETATM    2  C   UNL     1       5.461  28.206  53.189  1.00  0.00     0.063 A 
HETATM    3  C   UNL     1       5.682  27.180  52.266  1.00  0.00     0.165 A 
HETATM    4  N   UNL     1       5.436  27.308  50.971  1.00  0.00    -0.222 NA
HETATM    5  C   UNL     1       4.963  28.475  50.545  1.00  0.00     0.237 A 
HETATM    6  N   UNL     1       4.728  29.542  51.303  1.00  0.00    -0.229 NA
HETATM    7  C   UNL     1       4.988  29.402  52.607  1.00  0.00     0.117 A 
HETATM    8  N   UNL     1       6.165  25.994  52.624  1.00  0.00    -0.228 NA
HETATM    9  C   UNL     1       6.468  25.728  53.912  1.00  0.00     0.070 A 
HETATM   10  C   UNL     1       6.254  26.665  54.905  1.00  0.00     0.046 A 
ENDROOT
BRANCH   9  11
HETATM   11  C   UNL     1       7.038  24.390  54.172  1.00  0.00    -0.004 A 
HETATM   12  C   UNL     1       7.348  23.957  55.477  1.00  0.00     0.053 A 
HETATM   13  C   UNL     1       7.897  22.701  55.652  1.00  0.00     0.106 A 
HETATM   14  C   UNL     1       8.148  21.863  54.594  1.00  0.00     0.105 A 
HETATM   15  O   UNL     1       8.257  22.155  56.844  1.00  0.00    -0.323 OA
HETATM   16  O   UNL     1       8.694  20.682  54.985  1.00  0.00    -0.323 OA
HETATM   17  C   UNL     1       7.866  22.234  53.300  1.00  0.00     0.040 A 
HETATM   18  C   UNL     1       8.778  20.881  56.411  1.00  0.00     0.352 A 
HETATM   19  C   UNL     1       7.313  23.505  53.095  1.00  0.00     0.017 A 
ENDBRANCH   9  11
BRANCH   1  20
HETATM   20  C   UNL     1       5.522  28.878  55.668  1.00  0.00    -0.025 A 
HETATM   21  C   UNL     1       6.592  29.590  56.233  1.00  0.00     0.014 A 
HETATM   22  C   UNL     1       6.376  30.509  57.265  1.00  0.00     0.024 A 
HETATM   23  C   UNL     1       5.084  30.734  57.731  1.00  0.00     0.034 A 
HETATM   24  C   UNL     1       4.006  30.048  57.176  1.00  0.00     0.024 A 
HETATM   25 CL   UNL     1       4.816  31.866  58.998  1.00  0.00    -0.084 Cl
HETATM   26  C   UNL     1       4.225  29.125  56.150  1.00  0.00     0.014 A 
ENDBRANCH   1  20
BRANCH   7  27
HETATM   27  N   UNL     1       4.711  30.556  53.340  1.00  0.00    -0.286 NA
HETATM   28  H   UNL     1       4.634  31.328  52.683  1.00  0.00     0.125 HD
HETATM   29  H   UNL     1       5.404  30.737  54.057  1.00  0.00     0.125 HD
ENDBRANCH   7  27
TORSDOF 3
ENDMDL
MODEL 7
REMARK VINA RESULT:      -8.6      3.318      5.247
REMARK  3 active torsions:
REMARK  status: ('A' for Active; 'I' for Inactive)
REMARK    1  A    between atoms: C_2  and  C_3 
REMARK    2  A    between atoms: C_9  and  N_10 
REMARK    3  A    between atoms: C_12  and  C_13 
ROOT
HETATM    1  C   UNL     1       6.036  29.861  56.985  1.00  0.00    -0.006 A 
HETATM    2  C   UNL     1       6.896  30.402  57.997  1.00  0.00     0.063 A 
HETATM    3  C   UNL     1       7.937  29.591  58.458  1.00  0.00     0.165 A 
HETATM    4  N   UNL     1       8.811  29.986  59.370  1.00  0.00    -0.222 NA
HETATM    5  C   UNL     1       8.675  31.212  59.867  1.00  0.00     0.237 A 
HETATM    6  N   UNL     1       7.722  32.081  59.541  1.00  0.00    -0.229 NA
HETATM    7  C   UNL     1       6.841  31.667  58.624  1.00  0.00     0.117 A 
HETATM    8  N   UNL     1       8.122  28.352  58.013  1.00  0.00    -0.228 NA
HETATM    9  C   UNL     1       7.299  27.816  57.086  1.00  0.00     0.070 A 
HETATM   10  C   UNL     1       6.261  28.550  56.543  1.00  0.00     0.046 A 
ENDROOT
BRANCH   9  11
HETATM   11  C   UNL     1       7.585  26.418  56.707  1.00  0.00    -0.004 A 
HETATM   12  C   UNL     1       7.085  25.855  55.516  1.00  0.00     0.053 A 
HETATM   13  C   UNL     1       7.372  24.534  55.229  1.00  0.00     0.106 A 
HETATM   14  C   UNL     1       8.130  23.755  56.068  1.00  0.00     0.105 A 
HETATM   15  O   UNL     1       6.951  23.855  54.129  1.00  0.00    -0.323 OA
HETATM   16  O   UNL     1       8.286  22.488  55.601  1.00  0.00    -0.323 OA
HETATM   17  C   UNL     1       8.642  24.252  57.243  1.00  0.00     0.040 A 
HETATM   18  C   UNL     1       7.520  22.553  54.381  1.00  0.00     0.352 A 
HETATM   19  C   UNL     1       8.361  25.587  57.560  1.00  0.00     0.017 A 
ENDBRANCH   9  11
BRANCH   1  20
HETATM   20  C   UNL     1       4.926  30.599  56.361  1.00  0.00    -0.025 A 
HETATM   21  C   UNL     1       5.148  31.445  55.261  1.00  0.00     0.014 A 
HETATM   22  C   UNL     1       4.089  32.129  54.658  1.00  0.00     0.024 A 
HETATM   23  C   UNL     1       2.795  31.962  55.140  1.00  0.00     0.034 A 
HETATM   24  C   UNL     1       2.549  31.119  56.220  1.00  0.00     0.024 A 
HETATM   25 CL   UNL     1       1.490  32.802  54.396  1.00  0.00    -0.084 Cl
HETATM   26  C   UNL     1       3.610  30.441  56.826  1.00  0.00     0.014 A 
ENDBRANCH   1  20
BRANCH   7  27
HETATM   27  N   UNL     1       5.878  32.630  58.326  1.00  0.00    -0.286 NA
HETATM   28  H   UNL     1       6.353  33.524  58.236  1.00  0.00     0.125 HD
HETATM   29  H   UNL     1       5.136  32.664  59.015  1.00  0.00     0.125 HD
ENDBRANCH   7  27
TORSDOF 3
ENDMDL
MODEL 8
REMARK VINA RESULT:      -8.4      6.908     10.173
REMARK  3 active torsions:
REMARK  status: ('A' for Active; 'I' for Inactive)
REMARK    1  A    between atoms: C_2  and  C_3 
REMARK    2  A    between atoms: C_9  and  N_10 
REMARK    3  A    between atoms: C_12  and  C_13 
ROOT
HETATM    1  C   UNL     1       5.814  31.531  58.389  1.00  0.00    -0.006 A 
HETATM    2  C   UNL     1       6.959  30.731  58.062  1.00  0.00     0.063 A 
HETATM    3  C   UNL     1       7.876  30.472  59.085  1.00  0.00     0.165 A 
HETATM    4  N   UNL     1       8.957  29.727  58.914  1.00  0.00    -0.222 NA
HETATM    5  C   UNL     1       9.169  29.213  57.707  1.00  0.00     0.237 A 
HETATM    6  N   UNL     1       8.397  29.394  56.638  1.00  0.00    -0.229 NA
HETATM    7  C   UNL     1       7.313  30.155  56.822  1.00  0.00     0.117 A 
HETATM    8  N   UNL     1       7.730  30.965  60.311  1.00  0.00    -0.228 NA
HETATM    9  C   UNL     1       6.676  31.749  60.624  1.00  0.00     0.070 A 
HETATM   10  C   UNL     1       5.697  32.035  59.691  1.00  0.00     0.046 A 
ENDROOT
BRANCH   9  11
HETATM   11  C   UNL     1       6.653  32.269  62.006  1.00  0.00    -0.004 A 
HETATM   12  C   UNL     1       5.443  32.524  62.682  1.00  0.00     0.053 A 
HETATM   13  C   UNL     1       5.490  33.028  63.967  1.00  0.00     0.106 A 
HETATM   14  C   UNL     1       6.677  33.287  64.605  1.00  0.00     0.105 A 
HETATM   15  O   UNL     1       4.410  33.334  64.736  1.00  0.00    -0.323 OA
HETATM   16  O   UNL     1       6.497  33.783  65.858  1.00  0.00    -0.323 OA
HETATM   17  C   UNL     1       7.887  33.058  63.994  1.00  0.00     0.040 A 
HETATM   18  C   UNL     1       5.057  33.829  65.927  1.00  0.00     0.352 A 
HETATM   19  C   UNL     1       7.868  32.551  62.688  1.00  0.00     0.017 A 
ENDBRANCH   9  11
BRANCH   1  20
HETATM   20  C   UNL     1       4.734  31.856  57.443  1.00  0.00    -0.025 A 
HETATM   21  C   UNL     1       4.724  33.077  56.749  1.00  0.00     0.014 A 
HETATM   22  C   UNL     1       3.708  33.374  55.836  1.00  0.00     0.024 A 
HETATM   23  C   UNL     1       2.699  32.446  55.598  1.00  0.00     0.034 A 
HETATM   24  C   UNL     1       2.695  31.223  56.266  1.00  0.00     0.024 A 
HETATM   25 CL   UNL     1       1.449  32.808  54.473  1.00  0.00    -0.084 Cl
HETATM   26  C   UNL     1       3.709  30.930  57.183  1.00  0.00     0.014 A 
ENDBRANCH   1  20
BRANCH   7  27
HETATM   27  N   UNL     1       6.548  30.294  55.665  1.00  0.00    -0.286 NA
HETATM   28  H   UNL     1       6.018  31.158  55.746  1.00  0.00     0.125 HD
HETATM   29  H   UNL     1       5.946  29.496  55.498  1.00  0.00     0.125 HD
ENDBRANCH   7  27
TORSDOF 3
ENDMDL
MODEL 9
REMARK VINA RESULT:      -8.3      4.392      6.073
REMARK  3 active torsions:
REMARK  status: ('A' for Active; 'I' for Inactive)
REMARK    1  A    between atoms: C_2  and  C_3 
REMARK    2  A    between atoms: C_9  and  N_10 
REMARK    3  A    between atoms: C_12  and  C_13 
ROOT
HETATM    1  C   UNL     1       4.882  28.603  50.187  1.00  0.00    -0.006 A 
HETATM    2  C   UNL     1       4.191  27.869  49.166  1.00  0.00     0.063 A 
HETATM    3  C   UNL     1       4.193  26.474  49.264  1.00  0.00     0.165 A 
HETATM    4  N   UNL     1       3.569  25.690  48.399  1.00  0.00    -0.222 NA
HETATM    5  C   UNL     1       2.922  26.269  47.393  1.00  0.00     0.237 A 
HETATM    6  N   UNL     1       2.856  27.578  47.162  1.00  0.00    -0.229 NA
HETATM    7  C   UNL     1       3.496  28.359  48.039  1.00  0.00     0.117 A 
HETATM    8  N   UNL     1       4.830  25.832  50.237  1.00  0.00    -0.228 NA
HETATM    9  C   UNL     1       5.514  26.508  51.184  1.00  0.00     0.070 A 
HETATM   10  C   UNL     1       5.544  27.890  51.194  1.00  0.00     0.046 A 
ENDROOT
BRANCH   9  11
HETATM   11  C   UNL     1       6.215  25.676  52.184  1.00  0.00    -0.004 A 
HETATM   12  C   UNL     1       5.765  25.582  53.516  1.00  0.00     0.053 A 
HETATM   13  C   UNL     1       6.477  24.802  54.408  1.00  0.00     0.106 A 
HETATM   14  C   UNL     1       7.606  24.117  54.035  1.00  0.00     0.105 A 
HETATM   15  O   UNL     1       6.172  24.626  55.721  1.00  0.00    -0.323 OA
HETATM   16  O   UNL     1       8.154  23.419  55.065  1.00  0.00    -0.323 OA
HETATM   17  C   UNL     1       8.091  24.174  52.750  1.00  0.00     0.040 A 
HETATM   18  C   UNL     1       7.250  23.761  56.136  1.00  0.00     0.352 A 
HETATM   19  C   UNL     1       7.390  24.961  51.827  1.00  0.00     0.017 A 
ENDBRANCH   9  11
BRANCH   1  20
HETATM   20  C   UNL     1       4.936  30.072  50.257  1.00  0.00    -0.025 A 
HETATM   21  C   UNL     1       3.983  30.796  50.993  1.00  0.00     0.014 A 
HETATM   22  C   UNL     1       4.048  32.190  51.075  1.00  0.00     0.024 A 
HETATM   23  C   UNL     1       5.076  32.873  50.432  1.00  0.00     0.034 A 
HETATM   24  C   UNL     1       6.039  32.175  49.707  1.00  0.00     0.024 A 
HETATM   25 CL   UNL     1       5.160  34.588  50.534  1.00  0.00    -0.084 Cl
HETATM   26  C   UNL     1       5.969  30.782  49.621  1.00  0.00     0.014 A 
ENDBRANCH   1  20
BRANCH   7  27
HETATM   27  N   UNL     1       3.377  29.716  47.740  1.00  0.00    -0.286 NA
HETATM   28  H   UNL     1       3.458  29.819  46.732  1.00  0.00     0.125 HD
HETATM   29  H   UNL     1       4.056  30.284  48.233  1.00  0.00     0.125 HD
ENDBRANCH   7  27
TORSDOF 3
ENDMDL
MODEL 10
REMARK VINA RESULT:      -8.3      1.321      1.980
REMARK  3 active torsions:
REMARK  status: ('A' for Active; 'I' for Inactive)
REMARK    1  A    between atoms: C_2  and  C_3 
REMARK    2  A    between atoms: C_9  and  N_10 
REMARK    3  A    between atoms: C_12  and  C_13 
ROOT
HETATM    1  C   UNL     1       6.988  28.776  56.750  1.00  0.00    -0.006 A 
HETATM    2  C   UNL     1       5.881  29.232  55.960  1.00  0.00     0.063 A 
HETATM    3  C   UNL     1       5.233  28.289  55.156  1.00  0.00     0.165 A 
HETATM    4  N   UNL     1       4.185  28.581  54.402  1.00  0.00    -0.222 NA
HETATM    5  C   UNL     1       3.744  29.835  54.415  1.00  0.00     0.237 A 
HETATM    6  N   UNL     1       4.274  30.838  55.110  1.00  0.00    -0.229 NA
HETATM    7  C   UNL     1       5.337  30.531  55.862  1.00  0.00     0.117 A 
HETATM    8  N   UNL     1       5.631  27.022  55.087  1.00  0.00    -0.228 NA
HETATM    9  C   UNL     1       6.693  26.587  55.798  1.00  0.00     0.070 A 
HETATM   10  C   UNL     1       7.379  27.435  56.648  1.00  0.00     0.046 A 
ENDROOT
BRANCH   9  11
HETATM   11  C   UNL     1       7.060  25.170  55.600  1.00  0.00    -0.004 A 
HETATM   12  C   UNL     1       7.564  24.381  56.653  1.00  0.00     0.053 A 
HETATM   13  C   UNL     1       7.907  23.067  56.397  1.00  0.00     0.106 A 
HETATM   14  C   UNL     1       7.770  22.508  55.151  1.00  0.00     0.105 A 
HETATM   15  O   UNL     1       8.414  22.192  57.306  1.00  0.00    -0.323 OA
HETATM   16  O   UNL     1       8.170  21.210  55.117  1.00  0.00    -0.323 OA
HETATM   17  C   UNL     1       7.285  23.232  54.087  1.00  0.00     0.040 A 
HETATM   18  C   UNL     1       8.596  21.021  56.482  1.00  0.00     0.352 A 
HETATM   19  C   UNL     1       6.934  24.569  54.319  1.00  0.00     0.017 A 
ENDBRANCH   9  11
BRANCH   1  20
HETATM   20  C   UNL     1       7.745  29.628  57.682  1.00  0.00    -0.025 A 
HETATM   21  C   UNL     1       7.187  30.035  58.904  1.00  0.00     0.014 A 
HETATM   22  C   UNL     1       7.915  30.828  59.797  1.00  0.00     0.024 A 
HETATM   23  C   UNL     1       9.216  31.208  59.480  1.00  0.00     0.034 A 
HETATM   24  C   UNL     1       9.794  30.805  58.279  1.00  0.00     0.024 A 
HETATM   25 CL   UNL     1      10.115  32.180  60.578  1.00  0.00    -0.084 Cl
HETATM   26  C   UNL     1       9.062  30.018  57.385  1.00  0.00     0.014 A 
ENDBRANCH   1  20
BRANCH   7  27
HETATM   27  N   UNL     1       5.833  31.626  56.567  1.00  0.00    -0.286 NA
HETATM   28  H   UNL     1       5.038  32.141  56.939  1.00  0.00     0.125 HD
HETATM   29  H   UNL     1       6.432  32.216  56.000  1.00  0.00     0.125 HD
ENDBRANCH   7  27
TORSDOF 3
ENDMDL
