MODEL 1
REMARK VINA RESULT:      -9.3      0.000      0.000
REMARK  7 active torsions:
REMARK  status: ('A' for Active; 'I' for Inactive)
REMARK    1  A    between atoms: C_5  and  N_6 
REMARK    2  A    between atoms: N_6  and  C_9 
REMARK    3  A    between atoms: C_9  and  C_10 
REMARK    4  A    between atoms: C_10  and  C_11 
REMARK    5  A    between atoms: C_10  and  C_13 
REMARK    6  A    between atoms: C_11  and  O_12 
REMARK    7  A    between atoms: C_13  and  C_14 
ROOT
HETATM    1  N   UNL     1       7.923  25.133  56.162  1.00  0.00    -0.066 N 
HETATM    2  H   UNL     1       8.845  24.693  55.985  1.00  0.00     0.278 HD
HETATM    3  H   UNL     1       7.878  25.930  55.500  1.00  0.00     0.278 HD
ENDROOT
BRANCH   1   4
HETATM    4  C   UNL     1       6.940  24.077  55.841  1.00  0.00     0.220 C 
HETATM    5  C   UNL     1       7.604  22.737  55.748  1.00  0.00    -0.021 A 
HETATM    6  C   UNL     1       7.682  22.288  54.420  1.00  0.00    -0.040 A 
HETATM    7  C   UNL     1       8.143  21.993  56.791  1.00  0.00     0.010 A 
HETATM    8  C   UNL     1       8.263  21.058  54.111  1.00  0.00    -0.055 A 
HETATM    9  C   UNL     1       7.086  23.296  53.475  1.00  0.00     0.018 C 
HETATM   10  C   UNL     1       8.357  20.539  52.707  1.00  0.00     0.049 C 
HETATM   11  C   UNL     1       8.813  20.317  55.167  1.00  0.00     0.007 A 
HETATM   12  C   UNL     1       8.755  20.779  56.490  1.00  0.00     0.001 A 
HETATM   13  C   UNL     1       6.312  24.216  54.445  1.00  0.00     0.047 C 
HETATM   14  C   UNL     1       8.138  24.054  52.673  1.00  0.00     0.015 C 
ENDBRANCH   1   4
BRANCH   1  15
HETATM   15  C   UNL     1       7.983  25.657  57.551  1.00  0.00     0.240 C 
BRANCH  15  16
HETATM   16  C   UNL     1       7.640  27.161  57.591  1.00  0.00     0.040 C 
BRANCH  16  17
HETATM   17  C   UNL     1       6.259  27.409  56.965  1.00  0.00     0.170 C 
BRANCH  17  18
HETATM   18  O   UNL     1       5.621  28.493  57.639  1.00  0.00    -0.400 OA
HETATM   19  H   UNL     1       4.983  28.878  57.001  1.00  0.00     0.209 HD
ENDBRANCH  17  18
ENDBRANCH  16  17
BRANCH  16  20
HETATM   20  C   UNL     1       8.681  28.080  56.910  1.00  0.00     0.067 C 
BRANCH  20  21
HETATM   21  C   UNL     1       9.031  29.294  57.728  1.00  0.00     0.034 A 
HETATM   22  N   UNL     1       8.276  29.496  58.845  1.00  0.00    -0.266 NA
HETATM   23  C   UNL     1       8.581  30.589  59.590  1.00  0.00     0.117 A 
HETATM   24  C   UNL     1       9.570  31.501  59.260  1.00  0.00     0.019 A 
HETATM   25  C   UNL     1      10.306  31.281  58.103  1.00  0.00     0.003 A 
HETATM   26  C   UNL     1      10.038  30.163  57.322  1.00  0.00     0.027 A 
ENDBRANCH  20  21
ENDBRANCH  16  20
ENDBRANCH  15  16
ENDBRANCH   1  15
TORSDOF 7
ENDMDL
MODEL 2
REMARK VINA RESULT:      -8.8      2.026      3.645
REMARK  7 active torsions:
REMARK  status: ('A' for Active; 'I' for Inactive)
REMARK    1  A    between atoms: C_5  and  N_6 
REMARK    2  A    between atoms: N_6  and  C_9 
REMARK    3  A    between atoms: C_9  and  C_10 
REMARK    4  A    between atoms: C_10  and  C_11 
REMARK    5  A    between atoms: C_10  and  C_13 
REMARK    6  A    between atoms: C_11  and  O_12 
REMARK    7  A    between atoms: C_13  and  C_14 
ROOT
HETATM    1  N   UNL     1       8.216  25.068  56.333  1.00  0.00    -0.066 N 
HETATM    2  H   UNL     1       8.983  24.515  56.756  1.00  0.00     0.278 HD
HETATM    3  H   UNL     1       8.622  25.466  55.465  1.00  0.00     0.278 HD
ENDROOT
BRANCH   1   4
HETATM    4  C   UNL     1       7.152  24.081  56.056  1.00  0.00     0.220 C 
HETATM    5  C   UNL     1       7.728  22.709  55.875  1.00  0.00    -0.021 A 
HETATM    6  C   UNL     1       7.683  22.301  54.531  1.00  0.00    -0.040 A 
HETATM    7  C   UNL     1       8.298  21.903  56.852  1.00  0.00     0.010 A 
HETATM    8  C   UNL     1       8.168  21.052  54.144  1.00  0.00    -0.055 A 
HETATM    9  C   UNL     1       7.078  23.372  53.664  1.00  0.00     0.018 C 
HETATM   10  C   UNL     1       8.128  20.575  52.723  1.00  0.00     0.049 C 
HETATM   11  C   UNL     1       8.749  20.247  55.134  1.00  0.00     0.007 A 
HETATM   12  C   UNL     1       8.815  20.667  56.471  1.00  0.00     0.001 A 
HETATM   13  C   UNL     1       6.433  24.300  54.715  1.00  0.00     0.047 C 
HETATM   14  C   UNL     1       8.111  24.096  52.808  1.00  0.00     0.015 C 
ENDBRANCH   1   4
BRANCH   1  15
HETATM   15  C   UNL     1       7.937  26.172  57.288  1.00  0.00     0.240 C 
BRANCH  15  16
HETATM   16  C   UNL     1       7.918  27.537  56.569  1.00  0.00     0.040 C 
BRANCH  16  17
HETATM   17  C   UNL     1       8.807  28.544  57.314  1.00  0.00     0.170 C 
BRANCH  17  18
HETATM   18  O   UNL     1       8.185  28.904  58.547  1.00  0.00    -0.400 OA
HETATM   19  H   UNL     1       7.353  29.366  58.312  1.00  0.00     0.209 HD
ENDBRANCH  17  18
ENDBRANCH  16  17
BRANCH  16  20
HETATM   20  C   UNL     1       6.510  28.146  56.375  1.00  0.00     0.067 C 
BRANCH  20  21
HETATM   21  C   UNL     1       5.975  27.981  54.978  1.00  0.00     0.034 A 
HETATM   22  N   UNL     1       4.617  27.954  54.860  1.00  0.00    -0.266 NA
HETATM   23  C   UNL     1       4.123  27.805  53.606  1.00  0.00     0.117 A 
HETATM   24  C   UNL     1       4.909  27.646  52.476  1.00  0.00     0.019 A 
HETATM   25  C   UNL     1       6.289  27.653  52.631  1.00  0.00     0.003 A 
HETATM   26  C   UNL     1       6.836  27.823  53.897  1.00  0.00     0.027 A 
ENDBRANCH  20  21
ENDBRANCH  16  20
ENDBRANCH  15  16
ENDBRANCH   1  15
TORSDOF 7
ENDMDL
MODEL 3
REMARK VINA RESULT:      -8.7      1.284      1.922
REMARK  7 active torsions:
REMARK  status: ('A' for Active; 'I' for Inactive)
REMARK    1  A    between atoms: C_5  and  N_6 
REMARK    2  A    between atoms: N_6  and  C_9 
REMARK    3  A    between atoms: C_9  and  C_10 
REMARK    4  A    between atoms: C_10  and  C_11 
REMARK    5  A    between atoms: C_10  and  C_13 
REMARK    6  A    between atoms: C_11  and  O_12 
REMARK    7  A    between atoms: C_13  and  C_14 
ROOT
HETATM    1  N   UNL     1       7.237  26.746  55.023  1.00  0.00    -0.066 N 
HETATM    2  H   UNL     1       7.921  26.552  55.777  1.00  0.00     0.278 HD
HETATM    3  H   UNL     1       7.807  26.816  54.159  1.00  0.00     0.278 HD
ENDROOT
BRANCH   1   4
HETATM    4  C   UNL     1       6.345  25.567  55.017  1.00  0.00     0.220 C 
HETATM    5  C   UNL     1       7.107  24.318  55.341  1.00  0.00    -0.021 A 
HETATM    6  C   UNL     1       7.271  23.502  54.209  1.00  0.00    -0.040 A 
HETATM    7  C   UNL     1       7.656  23.964  56.567  1.00  0.00     0.010 A 
HETATM    8  C   UNL     1       7.951  22.287  54.293  1.00  0.00    -0.055 A 
HETATM    9  C   UNL     1       6.642  24.133  52.996  1.00  0.00     0.018 C 
HETATM   10  C   UNL     1       8.137  21.383  53.111  1.00  0.00     0.049 C 
HETATM   11  C   UNL     1       8.510  21.940  55.531  1.00  0.00     0.007 A 
HETATM   12  C   UNL     1       8.366  22.769  56.654  1.00  0.00     0.001 A 
HETATM   13  C   UNL     1       5.766  25.233  53.633  1.00  0.00     0.047 C 
HETATM   14  C   UNL     1       7.668  24.699  52.022  1.00  0.00     0.015 C 
ENDBRANCH   1   4
BRANCH   1  15
HETATM   15  C   UNL     1       6.659  28.079  55.332  1.00  0.00     0.240 C 
BRANCH  15  16
HETATM   16  C   UNL     1       6.250  28.175  56.817  1.00  0.00     0.040 C 
BRANCH  16  17
HETATM   17  C   UNL     1       5.628  29.549  57.111  1.00  0.00     0.170 C 
BRANCH  17  18
HETATM   18  O   UNL     1       4.551  29.394  58.034  1.00  0.00    -0.400 OA
HETATM   19  H   UNL     1       4.853  29.787  58.880  1.00  0.00     0.209 HD
ENDBRANCH  17  18
ENDBRANCH  16  17
BRANCH  16  20
HETATM   20  C   UNL     1       7.397  27.911  57.821  1.00  0.00     0.067 C 
BRANCH  20  21
HETATM   21  C   UNL     1       8.510  28.920  57.734  1.00  0.00     0.034 A 
HETATM   22  N   UNL     1       9.430  28.708  56.750  1.00  0.00    -0.266 NA
HETATM   23  C   UNL     1      10.439  29.611  56.663  1.00  0.00     0.117 A 
HETATM   24  C   UNL     1      10.595  30.686  57.522  1.00  0.00     0.019 A 
HETATM   25  C   UNL     1       9.656  30.863  58.530  1.00  0.00     0.003 A 
HETATM   26  C   UNL     1       8.595  29.971  58.642  1.00  0.00     0.027 A 
ENDBRANCH  20  21
ENDBRANCH  16  20
ENDBRANCH  15  16
ENDBRANCH   1  15
TORSDOF 7
ENDMDL
MODEL 4
REMARK VINA RESULT:      -8.2      2.286      3.603
REMARK  7 active torsions:
REMARK  status: ('A' for Active; 'I' for Inactive)
REMARK    1  A    between atoms: C_5  and  N_6 
REMARK    2  A    between atoms: N_6  and  C_9 
REMARK    3  A    between atoms: C_9  and  C_10 
REMARK    4  A    between atoms: C_10  and  C_11 
REMARK    5  A    between atoms: C_10  and  C_13 
REMARK    6  A    between atoms: C_11  and  O_12 
REMARK    7  A    between atoms: C_13  and  C_14 
ROOT
HETATM    1  N   UNL     1       6.717  24.745  52.773  1.00  0.00    -0.066 N 
HETATM    2  H   UNL     1       6.616  24.178  51.911  1.00  0.00     0.278 HD
HETATM    3  H   UNL     1       5.931  24.447  53.380  1.00  0.00     0.278 HD
ENDROOT
BRANCH   1   4
HETATM    4  C   UNL     1       8.033  24.357  53.322  1.00  0.00     0.220 C 
HETATM    5  C   UNL     1       8.071  22.893  53.639  1.00  0.00    -0.021 A 
HETATM    6  C   UNL     1       8.050  22.662  55.025  1.00  0.00    -0.040 A 
HETATM    7  C   UNL     1       8.077  21.838  52.735  1.00  0.00     0.010 A 
HETATM    8  C   UNL     1       8.081  21.365  55.536  1.00  0.00    -0.055 A 
HETATM    9  C   UNL     1       7.981  23.959  55.785  1.00  0.00     0.018 C 
HETATM   10  C   UNL     1       8.071  21.077  57.008  1.00  0.00     0.049 C 
HETATM   11  C   UNL     1       8.079  20.305  54.618  1.00  0.00     0.007 A 
HETATM   12  C   UNL     1       8.075  20.538  53.234  1.00  0.00     0.001 A 
HETATM   13  C   UNL     1       8.345  24.985  54.690  1.00  0.00     0.047 C 
HETATM   14  C   UNL     1       6.608  24.220  56.391  1.00  0.00     0.015 C 
ENDBRANCH   1   4
BRANCH   1  15
HETATM   15  C   UNL     1       6.502  26.155  52.357  1.00  0.00     0.240 C 
BRANCH  15  16
HETATM   16  C   UNL     1       5.949  26.999  53.525  1.00  0.00     0.040 C 
BRANCH  16  17
HETATM   17  C   UNL     1       4.453  27.281  53.317  1.00  0.00     0.170 C 
BRANCH  17  18
HETATM   18  O   UNL     1       3.751  26.046  53.181  1.00  0.00    -0.400 OA
HETATM   19  H   UNL     1       4.294  25.483  52.590  1.00  0.00     0.209 HD
ENDBRANCH  17  18
ENDBRANCH  16  17
BRANCH  16  20
HETATM   20  C   UNL     1       6.691  28.335  53.765  1.00  0.00     0.067 C 
BRANCH  20  21
HETATM   21  C   UNL     1       7.328  28.427  55.125  1.00  0.00     0.034 A 
HETATM   22  N   UNL     1       8.566  28.998  55.165  1.00  0.00    -0.266 NA
HETATM   23  C   UNL     1       9.151  29.085  56.386  1.00  0.00     0.117 A 
HETATM   24  C   UNL     1       8.584  28.604  57.554  1.00  0.00     0.019 A 
HETATM   25  C   UNL     1       7.332  28.007  57.479  1.00  0.00     0.003 A 
HETATM   26  C   UNL     1       6.690  27.914  56.250  1.00  0.00     0.027 A 
ENDBRANCH  20  21
ENDBRANCH  16  20
ENDBRANCH  15  16
ENDBRANCH   1  15
TORSDOF 7
ENDMDL
MODEL 5
REMARK VINA RESULT:      -8.0      2.162      3.399
REMARK  7 active torsions:
REMARK  status: ('A' for Active; 'I' for Inactive)
REMARK    1  A    between atoms: C_5  and  N_6 
REMARK    2  A    between atoms: N_6  and  C_9 
REMARK    3  A    between atoms: C_9  and  C_10 
REMARK    4  A    between atoms: C_10  and  C_11 
REMARK    5  A    between atoms: C_10  and  C_13 
REMARK    6  A    between atoms: C_11  and  O_12 
REMARK    7  A    between atoms: C_13  and  C_14 
ROOT
HETATM    1  N   UNL     1       8.346  27.587  57.324  1.00  0.00    -0.066 N 
HETATM    2  H   UNL     1       8.926  27.014  57.963  1.00  0.00     0.278 HD
HETATM    3  H   UNL     1       8.968  27.800  56.521  1.00  0.00     0.278 HD
ENDROOT
BRANCH   1   4
HETATM    4  C   UNL     1       7.223  26.703  56.947  1.00  0.00     0.220 C 
HETATM    5  C   UNL     1       7.722  25.455  56.285  1.00  0.00    -0.021 A 
HETATM    6  C   UNL     1       7.451  25.455  54.906  1.00  0.00    -0.040 A 
HETATM    7  C   UNL     1       8.417  24.409  56.879  1.00  0.00     0.010 A 
HETATM    8  C   UNL     1       7.831  24.383  54.100  1.00  0.00    -0.055 A 
HETATM    9  C   UNL     1       6.748  26.721  54.497  1.00  0.00     0.018 C 
HETATM   10  C   UNL     1       7.550  24.340  52.627  1.00  0.00     0.049 C 
HETATM   11  C   UNL     1       8.539  23.335  54.705  1.00  0.00     0.007 A 
HETATM   12  C   UNL     1       8.830  23.348  56.077  1.00  0.00     0.001 A 
HETATM   13  C   UNL     1       6.306  27.290  55.862  1.00  0.00     0.047 C 
HETATM   14  C   UNL     1       7.651  27.683  53.733  1.00  0.00     0.015 C 
ENDBRANCH   1   4
BRANCH   1  15
HETATM   15  C   UNL     1       8.052  28.844  58.059  1.00  0.00     0.240 C 
BRANCH  15  16
HETATM   16  C   UNL     1       8.889  30.017  57.508  1.00  0.00     0.040 C 
BRANCH  16  17
HETATM   17  C   UNL     1       9.714  29.560  56.294  1.00  0.00     0.170 C 
BRANCH  17  18
HETATM   18  O   UNL     1      11.044  29.256  56.712  1.00  0.00    -0.400 OA
HETATM   19  H   UNL     1      11.534  28.993  55.904  1.00  0.00     0.209 HD
ENDBRANCH  17  18
ENDBRANCH  16  17
BRANCH  16  20
HETATM   20  C   UNL     1       9.830  30.681  58.541  1.00  0.00     0.067 C 
BRANCH  20  21
HETATM   21  C   UNL     1       9.106  31.226  59.743  1.00  0.00     0.034 A 
HETATM   22  N   UNL     1       8.207  32.221  59.495  1.00  0.00    -0.266 NA
HETATM   23  C   UNL     1       7.550  32.722  60.570  1.00  0.00     0.117 A 
HETATM   24  C   UNL     1       7.767  32.308  61.874  1.00  0.00     0.019 A 
HETATM   25  C   UNL     1       8.705  31.309  62.099  1.00  0.00     0.003 A 
HETATM   26  C   UNL     1       9.388  30.756  61.021  1.00  0.00     0.027 A 
ENDBRANCH  20  21
ENDBRANCH  16  20
ENDBRANCH  15  16
ENDBRANCH   1  15
TORSDOF 7
ENDMDL
MODEL 6
REMARK VINA RESULT:      -7.9      2.645      3.453
REMARK  7 active torsions:
REMARK  status: ('A' for Active; 'I' for Inactive)
REMARK    1  A    between atoms: C_5  and  N_6 
REMARK    2  A    between atoms: N_6  and  C_9 
REMARK    3  A    between atoms: C_9  and  C_10 
REMARK    4  A    between atoms: C_10  and  C_11 
REMARK    5  A    between atoms: C_10  and  C_13 
REMARK    6  A    between atoms: C_11  and  O_12 
REMARK    7  A    between atoms: C_13  and  C_14 
ROOT
HETATM    1  N   UNL     1       7.658  25.750  55.488  1.00  0.00    -0.066 N 
HETATM    2  H   UNL     1       8.462  25.333  55.991  1.00  0.00     0.278 HD
HETATM    3  H   UNL     1       8.049  26.070  54.582  1.00  0.00     0.278 HD
ENDROOT
BRANCH   1   4
HETATM    4  C   UNL     1       6.701  24.635  55.327  1.00  0.00     0.220 C 
HETATM    5  C   UNL     1       7.392  23.312  55.464  1.00  0.00    -0.021 A 
HETATM    6  C   UNL     1       7.504  22.656  54.228  1.00  0.00    -0.040 A 
HETATM    7  C   UNL     1       7.924  22.760  56.622  1.00  0.00     0.010 A 
HETATM    8  C   UNL     1       8.114  21.405  54.132  1.00  0.00    -0.055 A 
HETATM    9  C   UNL     1       6.907  23.484  53.122  1.00  0.00     0.018 C 
HETATM   10  C   UNL     1       8.244  20.667  52.833  1.00  0.00     0.049 C 
HETATM   11  C   UNL     1       8.657  20.857  55.303  1.00  0.00     0.007 A 
HETATM   12  C   UNL     1       8.565  21.526  56.533  1.00  0.00     0.001 A 
HETATM   13  C   UNL     1       6.098  24.532  53.917  1.00  0.00     0.047 C 
HETATM   14  C   UNL     1       7.960  24.124  52.225  1.00  0.00     0.015 C 
ENDBRANCH   1   4
BRANCH   1  15
HETATM   15  C   UNL     1       7.250  26.934  56.286  1.00  0.00     0.240 C 
BRANCH  15  16
HETATM   16  C   UNL     1       6.579  28.000  55.395  1.00  0.00     0.040 C 
BRANCH  16  17
HETATM   17  C   UNL     1       7.245  28.034  54.011  1.00  0.00     0.170 C 
BRANCH  17  18
HETATM   18  O   UNL     1       8.517  28.673  54.112  1.00  0.00    -0.400 OA
HETATM   19  H   UNL     1       8.807  28.860  53.194  1.00  0.00     0.209 HD
ENDBRANCH  17  18
ENDBRANCH  16  17
BRANCH  16  20
HETATM   20  C   UNL     1       6.569  29.428  55.990  1.00  0.00     0.067 C 
BRANCH  20  21
HETATM   21  C   UNL     1       5.207  30.068  55.982  1.00  0.00     0.034 A 
HETATM   22  N   UNL     1       4.645  30.288  57.204  1.00  0.00    -0.266 NA
HETATM   23  C   UNL     1       3.416  30.864  57.209  1.00  0.00     0.117 A 
HETATM   24  C   UNL     1       2.711  31.196  56.064  1.00  0.00     0.019 A 
HETATM   25  C   UNL     1       3.299  30.939  54.833  1.00  0.00     0.003 A 
HETATM   26  C   UNL     1       4.565  30.367  54.784  1.00  0.00     0.027 A 
ENDBRANCH  20  21
ENDBRANCH  16  20
ENDBRANCH  15  16
ENDBRANCH   1  15
TORSDOF 7
ENDMDL
MODEL 7
REMARK VINA RESULT:      -7.9      3.895      6.128
REMARK  7 active torsions:
REMARK  status: ('A' for Active; 'I' for Inactive)
REMARK    1  A    between atoms: C_5  and  N_6 
REMARK    2  A    between atoms: N_6  and  C_9 
REMARK    3  A    between atoms: C_9  and  C_10 
REMARK    4  A    between atoms: C_10  and  C_11 
REMARK    5  A    between atoms: C_10  and  C_13 
REMARK    6  A    between atoms: C_11  and  O_12 
REMARK    7  A    between atoms: C_13  and  C_14 
ROOT
HETATM    1  N   UNL     1       6.310  26.893  54.564  1.00  0.00    -0.066 N 
HETATM    2  H   UNL     1       5.600  27.466  55.055  1.00  0.00     0.278 HD
HETATM    3  H   UNL     1       7.172  26.993  55.132  1.00  0.00     0.278 HD
ENDROOT
BRANCH   1   4
HETATM    4  C   UNL     1       5.767  25.518  54.600  1.00  0.00     0.220 C 
HETATM    5  C   UNL     1       6.748  24.571  55.221  1.00  0.00    -0.021 A 
HETATM    6  C   UNL     1       7.324  23.720  54.263  1.00  0.00    -0.040 A 
HETATM    7  C   UNL     1       7.130  24.513  56.555  1.00  0.00     0.010 A 
HETATM    8  C   UNL     1       8.264  22.758  54.631  1.00  0.00    -0.055 A 
HETATM    9  C   UNL     1       6.793  24.021  52.887  1.00  0.00     0.018 C 
HETATM   10  C   UNL     1       8.893  21.823  53.641  1.00  0.00     0.049 C 
HETATM   11  C   UNL     1       8.650  22.710  55.978  1.00  0.00     0.007 A 
HETATM   12  C   UNL     1       8.092  23.577  56.928  1.00  0.00     0.001 A 
HETATM   13  C   UNL     1       5.562  24.895  53.210  1.00  0.00     0.047 C 
HETATM   14  C   UNL     1       7.804  24.746  52.006  1.00  0.00     0.015 C 
ENDBRANCH   1   4
BRANCH   1  15
HETATM   15  C   UNL     1       6.518  27.546  53.246  1.00  0.00     0.240 C 
BRANCH  15  16
HETATM   16  C   UNL     1       5.418  28.591  52.965  1.00  0.00     0.040 C 
BRANCH  16  17
HETATM   17  C   UNL     1       4.901  29.188  54.283  1.00  0.00     0.170 C 
BRANCH  17  18
HETATM   18  O   UNL     1       5.999  29.711  55.030  1.00  0.00    -0.400 OA
HETATM   19  H   UNL     1       6.550  28.942  55.287  1.00  0.00     0.209 HD
ENDBRANCH  17  18
ENDBRANCH  16  17
BRANCH  16  20
HETATM   20  C   UNL     1       4.220  28.062  52.141  1.00  0.00     0.067 C 
BRANCH  20  21
HETATM   21  C   UNL     1       4.521  27.926  50.672  1.00  0.00     0.034 A 
HETATM   22  N   UNL     1       4.802  29.085  50.012  1.00  0.00    -0.266 NA
HETATM   23  C   UNL     1       5.073  28.974  48.688  1.00  0.00     0.117 A 
HETATM   24  C   UNL     1       5.043  27.780  47.987  1.00  0.00     0.019 A 
HETATM   25  C   UNL     1       4.730  26.619  48.681  1.00  0.00     0.003 A 
HETATM   26  C   UNL     1       4.464  26.686  50.044  1.00  0.00     0.027 A 
ENDBRANCH  20  21
ENDBRANCH  16  20
ENDBRANCH  15  16
ENDBRANCH   1  15
TORSDOF 7
ENDMDL
MODEL 8
REMARK VINA RESULT:      -7.8      5.235      7.987
REMARK  7 active torsions:
REMARK  status: ('A' for Active; 'I' for Inactive)
REMARK    1  A    between atoms: C_5  and  N_6 
REMARK    2  A    between atoms: N_6  and  C_9 
REMARK    3  A    between atoms: C_9  and  C_10 
REMARK    4  A    between atoms: C_10  and  C_11 
REMARK    5  A    between atoms: C_10  and  C_13 
REMARK    6  A    between atoms: C_11  and  O_12 
REMARK    7  A    between atoms: C_13  and  C_14 
ROOT
HETATM    1  N   UNL     1       5.444  27.401  52.953  1.00  0.00    -0.066 N 
HETATM    2  H   UNL     1       5.774  27.823  53.841  1.00  0.00     0.278 HD
HETATM    3  H   UNL     1       6.287  27.355  52.351  1.00  0.00     0.278 HD
ENDROOT
BRANCH   1   4
HETATM    4  C   UNL     1       4.952  26.061  53.338  1.00  0.00     0.220 C 
HETATM    5  C   UNL     1       5.654  25.566  54.566  1.00  0.00    -0.021 A 
HETATM    6  C   UNL     1       6.557  24.533  54.265  1.00  0.00    -0.040 A 
HETATM    7  C   UNL     1       5.518  26.047  55.862  1.00  0.00     0.010 A 
HETATM    8  C   UNL     1       7.314  23.928  55.268  1.00  0.00    -0.055 A 
HETATM    9  C   UNL     1       6.565  24.237  52.790  1.00  0.00     0.018 C 
HETATM   10  C   UNL     1       8.281  22.816  54.990  1.00  0.00     0.049 C 
HETATM   11  C   UNL     1       7.179  24.424  56.573  1.00  0.00     0.007 A 
HETATM   12  C   UNL     1       6.293  25.472  56.866  1.00  0.00     0.001 A 
HETATM   13  C   UNL     1       5.285  24.960  52.318  1.00  0.00     0.047 C 
HETATM   14  C   UNL     1       7.815  24.754  52.087  1.00  0.00     0.015 C 
ENDBRANCH   1   4
BRANCH   1  15
HETATM   15  C   UNL     1       4.484  28.376  52.373  1.00  0.00     0.240 C 
BRANCH  15  16
HETATM   16  C   UNL     1       4.515  28.334  50.831  1.00  0.00     0.040 C 
BRANCH  16  17
HETATM   17  C   UNL     1       5.504  29.378  50.289  1.00  0.00     0.170 C 
BRANCH  17  18
HETATM   18  O   UNL     1       6.111  30.068  51.381  1.00  0.00    -0.400 OA
HETATM   19  H   UNL     1       5.861  29.576  52.192  1.00  0.00     0.209 HD
ENDBRANCH  17  18
ENDBRANCH  16  17
BRANCH  16  20
HETATM   20  C   UNL     1       3.140  28.535  50.151  1.00  0.00     0.067 C 
BRANCH  20  21
HETATM   21  C   UNL     1       2.902  27.597  48.999  1.00  0.00     0.034 A 
HETATM   22  N   UNL     1       3.796  26.576  48.868  1.00  0.00    -0.266 NA
HETATM   23  C   UNL     1       3.593  25.724  47.832  1.00  0.00     0.117 A 
HETATM   24  C   UNL     1       2.571  25.858  46.907  1.00  0.00     0.019 A 
HETATM   25  C   UNL     1       1.689  26.922  47.052  1.00  0.00     0.003 A 
HETATM   26  C   UNL     1       1.851  27.807  48.112  1.00  0.00     0.027 A 
ENDBRANCH  20  21
ENDBRANCH  16  20
ENDBRANCH  15  16
ENDBRANCH   1  15
TORSDOF 7
ENDMDL
MODEL 9
REMARK VINA RESULT:      -7.8      4.165     10.403
REMARK  7 active torsions:
REMARK  status: ('A' for Active; 'I' for Inactive)
REMARK    1  A    between atoms: C_5  and  N_6 
REMARK    2  A    between atoms: N_6  and  C_9 
REMARK    3  A    between atoms: C_9  and  C_10 
REMARK    4  A    between atoms: C_10  and  C_11 
REMARK    5  A    between atoms: C_10  and  C_13 
REMARK    6  A    between atoms: C_11  and  O_12 
REMARK    7  A    between atoms: C_13  and  C_14 
ROOT
HETATM    1  N   UNL     1       7.307  31.144  61.050  1.00  0.00    -0.066 N 
HETATM    2  H   UNL     1       7.074  30.763  61.985  1.00  0.00     0.278 HD
HETATM    3  H   UNL     1       6.625  30.703  60.406  1.00  0.00     0.278 HD
ENDROOT
BRANCH   1   4
HETATM    4  C   UNL     1       7.099  32.602  61.180  1.00  0.00     0.220 C 
HETATM    5  C   UNL     1       6.889  32.986  62.614  1.00  0.00    -0.021 A 
HETATM    6  C   UNL     1       5.553  33.338  62.866  1.00  0.00    -0.040 A 
HETATM    7  C   UNL     1       7.834  32.976  63.632  1.00  0.00     0.010 A 
HETATM    8  C   UNL     1       5.143  33.731  64.139  1.00  0.00    -0.055 A 
HETATM    9  C   UNL     1       4.718  33.210  61.620  1.00  0.00     0.018 C 
HETATM   10  C   UNL     1       3.728  34.124  64.447  1.00  0.00     0.049 C 
HETATM   11  C   UNL     1       6.099  33.710  65.165  1.00  0.00     0.007 A 
HETATM   12  C   UNL     1       7.428  33.335  64.915  1.00  0.00     0.001 A 
HETATM   13  C   UNL     1       5.802  33.106  60.526  1.00  0.00     0.047 C 
HETATM   14  C   UNL     1       3.799  31.994  61.643  1.00  0.00     0.015 C 
ENDBRANCH   1   4
BRANCH   1  15
HETATM   15  C   UNL     1       8.669  30.641  60.734  1.00  0.00     0.240 C 
BRANCH  15  16
HETATM   16  C   UNL     1       8.785  30.253  59.245  1.00  0.00     0.040 C 
BRANCH  16  17
HETATM   17  C   UNL     1       9.605  31.305  58.483  1.00  0.00     0.170 C 
BRANCH  17  18
HETATM   18  O   UNL     1       9.767  32.465  59.300  1.00  0.00    -0.400 OA
HETATM   19  H   UNL     1      10.356  32.202  60.039  1.00  0.00     0.209 HD
ENDBRANCH  17  18
ENDBRANCH  16  17
BRANCH  16  20
HETATM   20  C   UNL     1       7.433  30.041  58.525  1.00  0.00     0.067 C 
BRANCH  20  21
HETATM   21  C   UNL     1       7.438  28.870  57.580  1.00  0.00     0.034 A 
HETATM   22  N   UNL     1       7.894  27.692  58.094  1.00  0.00    -0.266 NA
HETATM   23  C   UNL     1       7.905  26.629  57.251  1.00  0.00     0.117 A 
HETATM   24  C   UNL     1       7.519  26.689  55.923  1.00  0.00     0.019 A 
HETATM   25  C   UNL     1       7.081  27.908  55.420  1.00  0.00     0.003 A 
HETATM   26  C   UNL     1       7.036  29.018  56.256  1.00  0.00     0.027 A 
ENDBRANCH  20  21
ENDBRANCH  16  20
ENDBRANCH  15  16
ENDBRANCH   1  15
TORSDOF 7
ENDMDL
MODEL 10
REMARK VINA RESULT:      -7.7      5.585     11.613
REMARK  7 active torsions:
REMARK  status: ('A' for Active; 'I' for Inactive)
REMARK    1  A    between atoms: C_5  and  N_6 
REMARK    2  A    between atoms: N_6  and  C_9 
REMARK    3  A    between atoms: C_9  and  C_10 
REMARK    4  A    between atoms: C_10  and  C_11 
REMARK    5  A    between atoms: C_10  and  C_13 
REMARK    6  A    between atoms: C_11  and  O_12 
REMARK    7  A    between atoms: C_13  and  C_14 
ROOT
HETATM    1  N   UNL     1       6.420  32.726  61.835  1.00  0.00    -0.066 N 
HETATM    2  H   UNL     1       6.884  32.178  62.582  1.00  0.00     0.278 HD
HETATM    3  H   UNL     1       5.463  32.331  61.772  1.00  0.00     0.278 HD
ENDROOT
BRANCH   1   4
HETATM    4  C   UNL     1       6.425  34.117  62.335  1.00  0.00     0.220 C 
HETATM    5  C   UNL     1       6.317  34.149  63.829  1.00  0.00    -0.021 A 
HETATM    6  C   UNL     1       5.052  34.595  64.248  1.00  0.00    -0.040 A 
HETATM    7  C   UNL     1       7.282  33.758  64.749  1.00  0.00     0.010 A 
HETATM    8  C   UNL     1       4.742  34.702  65.603  1.00  0.00    -0.055 A 
HETATM    9  C   UNL     1       4.170  34.896  63.067  1.00  0.00     0.018 C 
HETATM   10  C   UNL     1       3.408  35.183  66.091  1.00  0.00     0.049 C 
HETATM   11  C   UNL     1       5.717  34.298  66.526  1.00  0.00     0.007 A 
HETATM   12  C   UNL     1       6.971  33.830  66.105  1.00  0.00     0.001 A 
HETATM   13  C   UNL     1       5.193  34.934  61.912  1.00  0.00     0.047 C 
HETATM   14  C   UNL     1       3.088  33.844  62.849  1.00  0.00     0.015 C 
ENDBRANCH   1   4
BRANCH   1  15
HETATM   15  C   UNL     1       7.158  32.412  60.584  1.00  0.00     0.240 C 
BRANCH  15  16
HETATM   16  C   UNL     1       8.049  31.165  60.764  1.00  0.00     0.040 C 
BRANCH  16  17
HETATM   17  C   UNL     1       8.272  30.880  62.257  1.00  0.00     0.170 C 
BRANCH  17  18
HETATM   18  O   UNL     1       9.007  29.666  62.404  1.00  0.00    -0.400 OA
HETATM   19  H   UNL     1       9.929  29.867  62.138  1.00  0.00     0.209 HD
ENDBRANCH  17  18
ENDBRANCH  16  17
BRANCH  16  20
HETATM   20  C   UNL     1       9.420  31.243  60.051  1.00  0.00     0.067 C 
BRANCH  20  21
HETATM   21  C   UNL     1       9.449  30.516  58.734  1.00  0.00     0.034 A 
HETATM   22  N   UNL     1      10.443  30.879  57.875  1.00  0.00    -0.266 NA
HETATM   23  C   UNL     1      10.479  30.231  56.683  1.00  0.00     0.117 A 
HETATM   24  C   UNL     1       9.559  29.272  56.295  1.00  0.00     0.019 A 
HETATM   25  C   UNL     1       8.543  28.939  57.181  1.00  0.00     0.003 A 
HETATM   26  C   UNL     1       8.482  29.566  58.420  1.00  0.00     0.027 A 
ENDBRANCH  20  21
ENDBRANCH  16  20
ENDBRANCH  15  16
ENDBRANCH   1  15
TORSDOF 7
ENDMDL
