MODEL 1
REMARK VINA RESULT:      -9.0      0.000      0.000
REMARK  9 active torsions:
REMARK  status: ('A' for Active; 'I' for Inactive)
REMARK    1  A    between atoms: C_3  and  O_4 
REMARK    2  A    between atoms: O_4  and  C_5 
REMARK    3  A    between atoms: C_5  and  C_6 
REMARK    4  A    between atoms: N_7  and  C_8 
REMARK    5  A    between atoms: C_8  and  C_9 
REMARK    6  A    between atoms: C_9  and  C_10 
REMARK    7  A    between atoms: C_16  and  S_17 
REMARK    8  A    between atoms: S_17  and  C_18 
REMARK    9  A    between atoms: C_18  and  C_19 
REMARK       I    between atoms: C_19  and  N_20 
ROOT
HETATM    1  C   UNL     1       7.034  26.146  56.938  1.00  0.00     0.155 A 
HETATM    2  N   UNL     1       6.403  27.349  56.680  1.00  0.00    -0.309 N 
HETATM    3  C   UNL     1       7.016  28.250  57.517  1.00  0.00     0.192 A 
HETATM    4  N   UNL     1       7.911  27.638  58.256  1.00  0.00    -0.123 NA
HETATM    5  N   UNL     1       7.930  26.326  57.891  1.00  0.00    -0.132 NA
ENDROOT
BRANCH   1   6
HETATM    6  C   UNL     1       6.731  24.826  56.318  1.00  0.00     0.256 C 
BRANCH   6   7
HETATM    7  O   UNL     1       7.722  24.568  55.327  1.00  0.00    -0.343 OA
BRANCH   7   8
HETATM    8  C   UNL     1       7.775  23.271  54.884  1.00  0.00     0.075 A 
HETATM    9  C   UNL     1       7.930  23.085  53.500  1.00  0.00    -0.029 A 
HETATM   10  C   UNL     1       8.079  24.257  52.570  1.00  0.00     0.051 C 
HETATM   11  C   UNL     1       8.017  21.781  52.990  1.00  0.00     0.009 A 
HETATM   12  C   UNL     1       7.915  20.678  53.837  1.00  0.00     0.001 A 
HETATM   13  C   UNL     1       7.724  20.867  55.203  1.00  0.00     0.003 A 
HETATM   14  C   UNL     1       7.649  22.159  55.726  1.00  0.00     0.037 A 
ENDBRANCH   7   8
ENDBRANCH   6   7
ENDBRANCH   1   6
BRANCH   2  15
HETATM   15  C   UNL     1       5.323  27.600  55.737  1.00  0.00     0.137 C 
BRANCH  15  16
HETATM   16  C   UNL     1       5.820  27.989  54.337  1.00  0.00     0.059 C 
BRANCH  16  17
HETATM   17  C   UNL     1       5.412  27.072  53.208  1.00  0.00    -0.057 A 
HETATM   18  C   UNL     1       4.942  25.774  53.448  1.00  0.00     0.007 A 
HETATM   19  C   UNL     1       4.659  24.911  52.387  1.00  0.00     0.001 A 
HETATM   20  C   UNL     1       4.853  25.328  51.071  1.00  0.00     0.000 A 
HETATM   21  C   UNL     1       5.325  26.612  50.816  1.00  0.00     0.001 A 
HETATM   22  C   UNL     1       5.602  27.479  51.876  1.00  0.00     0.007 A 
ENDBRANCH  16  17
ENDBRANCH  15  16
ENDBRANCH   2  15
BRANCH   3  23
HETATM   23  S   UNL     1       6.665  29.940  57.600  1.00  0.00    -0.081 SA
BRANCH  23  24
HETATM   24  C   UNL     1       7.702  30.447  59.005  1.00  0.00     0.185 C 
BRANCH  24  25
HETATM   25  C   UNL     1       9.054  30.966  58.544  1.00  0.00     0.226 C 
HETATM   26  N   UNL     1       9.850  30.026  57.921  1.00  0.00    -0.365 N 
HETATM   27  C   UNL     1      11.139  30.384  57.386  1.00  0.00     0.149 C 
HETATM   28  H   UNL     1       9.367  29.237  57.492  1.00  0.00     0.161 HD
HETATM   29  O   UNL     1       9.415  32.125  58.744  1.00  0.00    -0.273 OA
ENDBRANCH  24  25
ENDBRANCH  23  24
ENDBRANCH   3  23
TORSDOF 9
ENDMDL
MODEL 2
REMARK VINA RESULT:      -8.9      0.995      1.693
REMARK  9 active torsions:
REMARK  status: ('A' for Active; 'I' for Inactive)
REMARK    1  A    between atoms: C_3  and  O_4 
REMARK    2  A    between atoms: O_4  and  C_5 
REMARK    3  A    between atoms: C_5  and  C_6 
REMARK    4  A    between atoms: N_7  and  C_8 
REMARK    5  A    between atoms: C_8  and  C_9 
REMARK    6  A    between atoms: C_9  and  C_10 
REMARK    7  A    between atoms: C_16  and  S_17 
REMARK    8  A    between atoms: S_17  and  C_18 
REMARK    9  A    between atoms: C_18  and  C_19 
REMARK       I    between atoms: C_19  and  N_20 
ROOT
HETATM    1  C   UNL     1       7.100  26.048  56.953  1.00  0.00     0.155 A 
HETATM    2  N   UNL     1       6.387  27.216  56.750  1.00  0.00    -0.309 N 
HETATM    3  C   UNL     1       7.037  28.156  57.512  1.00  0.00     0.192 A 
HETATM    4  N   UNL     1       8.031  27.599  58.162  1.00  0.00    -0.123 NA
HETATM    5  N   UNL     1       8.078  26.284  57.808  1.00  0.00    -0.132 NA
ENDROOT
BRANCH   1   6
HETATM    6  C   UNL     1       6.801  24.706  56.379  1.00  0.00     0.256 C 
BRANCH   6   7
HETATM    7  O   UNL     1       7.689  24.489  55.286  1.00  0.00    -0.343 OA
BRANCH   7   8
HETATM    8  C   UNL     1       7.762  23.191  54.849  1.00  0.00     0.075 A 
HETATM    9  C   UNL     1       7.938  23.002  53.468  1.00  0.00    -0.029 A 
HETATM   10  C   UNL     1       8.088  24.171  52.535  1.00  0.00     0.051 C 
HETATM   11  C   UNL     1       8.047  21.697  52.964  1.00  0.00     0.009 A 
HETATM   12  C   UNL     1       7.946  20.595  53.814  1.00  0.00     0.001 A 
HETATM   13  C   UNL     1       7.734  20.788  55.176  1.00  0.00     0.003 A 
HETATM   14  C   UNL     1       7.637  22.080  55.693  1.00  0.00     0.037 A 
ENDBRANCH   7   8
ENDBRANCH   6   7
ENDBRANCH   1   6
BRANCH   2  15
HETATM   15  C   UNL     1       5.205  27.401  55.920  1.00  0.00     0.137 C 
BRANCH  15  16
HETATM   16  C   UNL     1       5.521  28.004  54.544  1.00  0.00     0.059 C 
BRANCH  16  17
HETATM   17  C   UNL     1       5.392  27.071  53.363  1.00  0.00    -0.057 A 
HETATM   18  C   UNL     1       5.647  27.500  52.054  1.00  0.00     0.007 A 
HETATM   19  C   UNL     1       5.433  26.647  50.970  1.00  0.00     0.001 A 
HETATM   20  C   UNL     1       4.947  25.357  51.176  1.00  0.00     0.000 A 
HETATM   21  C   UNL     1       4.683  24.916  52.469  1.00  0.00     0.001 A 
HETATM   22  C   UNL     1       4.904  25.766  53.556  1.00  0.00     0.007 A 
ENDBRANCH  16  17
ENDBRANCH  15  16
ENDBRANCH   2  15
BRANCH   3  23
HETATM   23  S   UNL     1       6.612  29.828  57.615  1.00  0.00    -0.081 SA
BRANCH  23  24
HETATM   24  C   UNL     1       8.199  30.565  58.112  1.00  0.00     0.185 C 
BRANCH  24  25
HETATM   25  C   UNL     1       8.020  31.577  59.232  1.00  0.00     0.226 C 
HETATM   26  N   UNL     1       6.924  31.355  60.040  1.00  0.00    -0.365 N 
HETATM   27  C   UNL     1       6.654  32.202  61.173  1.00  0.00     0.149 C 
HETATM   28  H   UNL     1       6.577  30.396  60.079  1.00  0.00     0.161 HD
HETATM   29  O   UNL     1       8.779  32.534  59.377  1.00  0.00    -0.273 OA
ENDBRANCH  24  25
ENDBRANCH  23  24
ENDBRANCH   3  23
TORSDOF 9
ENDMDL
MODEL 3
REMARK VINA RESULT:      -8.8      0.989      2.053
REMARK  9 active torsions:
REMARK  status: ('A' for Active; 'I' for Inactive)
REMARK    1  A    between atoms: C_3  and  O_4 
REMARK    2  A    between atoms: O_4  and  C_5 
REMARK    3  A    between atoms: C_5  and  C_6 
REMARK    4  A    between atoms: N_7  and  C_8 
REMARK    5  A    between atoms: C_8  and  C_9 
REMARK    6  A    between atoms: C_9  and  C_10 
REMARK    7  A    between atoms: C_16  and  S_17 
REMARK    8  A    between atoms: S_17  and  C_18 
REMARK    9  A    between atoms: C_18  and  C_19 
REMARK       I    between atoms: C_19  and  N_20 
ROOT
HETATM    1  C   UNL     1       6.912  26.052  57.141  1.00  0.00     0.155 A 
HETATM    2  N   UNL     1       6.253  27.238  56.876  1.00  0.00    -0.309 N 
HETATM    3  C   UNL     1       6.971  28.193  57.554  1.00  0.00     0.192 A 
HETATM    4  N   UNL     1       7.954  27.631  58.215  1.00  0.00    -0.123 NA
HETATM    5  N   UNL     1       7.925  26.294  57.953  1.00  0.00    -0.132 NA
ENDROOT
BRANCH   1   6
HETATM    6  C   UNL     1       6.529  24.691  56.669  1.00  0.00     0.256 C 
BRANCH   6   7
HETATM    7  O   UNL     1       7.721  23.920  56.540  1.00  0.00    -0.343 OA
BRANCH   7   8
HETATM    8  C   UNL     1       7.837  23.226  55.363  1.00  0.00     0.075 A 
HETATM    9  C   UNL     1       8.077  21.846  55.468  1.00  0.00    -0.029 A 
HETATM   10  C   UNL     1       8.151  21.169  56.809  1.00  0.00     0.051 C 
HETATM   11  C   UNL     1       8.179  21.077  54.299  1.00  0.00     0.009 A 
HETATM   12  C   UNL     1       8.080  21.676  53.043  1.00  0.00     0.001 A 
HETATM   13  C   UNL     1       7.879  23.050  52.944  1.00  0.00     0.003 A 
HETATM   14  C   UNL     1       7.762  23.825  54.099  1.00  0.00     0.037 A 
ENDBRANCH   7   8
ENDBRANCH   6   7
ENDBRANCH   1   6
BRANCH   2  15
HETATM   15  C   UNL     1       5.059  27.428  56.064  1.00  0.00     0.137 C 
BRANCH  15  16
HETATM   16  C   UNL     1       5.352  28.059  54.695  1.00  0.00     0.059 C 
BRANCH  16  17
HETATM   17  C   UNL     1       5.339  27.119  53.513  1.00  0.00    -0.057 A 
HETATM   18  C   UNL     1       5.729  27.538  52.235  1.00  0.00     0.007 A 
HETATM   19  C   UNL     1       5.622  26.680  51.139  1.00  0.00     0.001 A 
HETATM   20  C   UNL     1       5.110  25.394  51.301  1.00  0.00     0.000 A 
HETATM   21  C   UNL     1       4.711  24.963  52.563  1.00  0.00     0.001 A 
HETATM   22  C   UNL     1       4.825  25.818  53.662  1.00  0.00     0.007 A 
ENDBRANCH  16  17
ENDBRANCH  15  16
ENDBRANCH   2  15
BRANCH   3  23
HETATM   23  S   UNL     1       6.634  29.889  57.551  1.00  0.00    -0.081 SA
BRANCH  23  24
HETATM   24  C   UNL     1       8.299  30.580  57.792  1.00  0.00     0.185 C 
BRANCH  24  25
HETATM   25  C   UNL     1       8.431  31.267  59.141  1.00  0.00     0.226 C 
HETATM   26  N   UNL     1       8.021  30.506  60.217  1.00  0.00    -0.365 N 
HETATM   27  C   UNL     1       8.134  31.005  61.564  1.00  0.00     0.149 C 
HETATM   28  H   UNL     1       8.041  29.493  60.090  1.00  0.00     0.161 HD
HETATM   29  O   UNL     1       8.839  32.421  59.252  1.00  0.00    -0.273 OA
ENDBRANCH  24  25
ENDBRANCH  23  24
ENDBRANCH   3  23
TORSDOF 9
ENDMDL
MODEL 4
REMARK VINA RESULT:      -8.5      2.484      7.173
REMARK  9 active torsions:
REMARK  status: ('A' for Active; 'I' for Inactive)
REMARK    1  A    between atoms: C_3  and  O_4 
REMARK    2  A    between atoms: O_4  and  C_5 
REMARK    3  A    between atoms: C_5  and  C_6 
REMARK    4  A    between atoms: N_7  and  C_8 
REMARK    5  A    between atoms: C_8  and  C_9 
REMARK    6  A    between atoms: C_9  and  C_10 
REMARK    7  A    between atoms: C_16  and  S_17 
REMARK    8  A    between atoms: S_17  and  C_18 
REMARK    9  A    between atoms: C_18  and  C_19 
REMARK       I    between atoms: C_19  and  N_20 
ROOT
HETATM    1  C   UNL     1       6.495  27.259  56.127  1.00  0.00     0.155 A 
HETATM    2  N   UNL     1       6.141  26.044  55.570  1.00  0.00    -0.309 N 
HETATM    3  C   UNL     1       5.530  26.371  54.383  1.00  0.00     0.192 A 
HETATM    4  N   UNL     1       5.474  27.675  54.252  1.00  0.00    -0.123 NA
HETATM    5  N   UNL     1       6.083  28.232  55.336  1.00  0.00    -0.132 NA
ENDROOT
BRANCH   1   6
HETATM    6  C   UNL     1       7.166  27.479  57.439  1.00  0.00     0.256 C 
BRANCH   6   7
HETATM    7  O   UNL     1       7.201  28.882  57.685  1.00  0.00    -0.343 OA
BRANCH   7   8
HETATM    8  C   UNL     1       8.451  29.446  57.650  1.00  0.00     0.075 A 
HETATM    9  C   UNL     1       8.626  30.631  58.383  1.00  0.00    -0.029 A 
HETATM   10  C   UNL     1       7.507  31.214  59.199  1.00  0.00     0.051 C 
HETATM   11  C   UNL     1       9.890  31.240  58.407  1.00  0.00     0.009 A 
HETATM   12  C   UNL     1      10.954  30.700  57.685  1.00  0.00     0.001 A 
HETATM   13  C   UNL     1      10.765  29.546  56.930  1.00  0.00     0.003 A 
HETATM   14  C   UNL     1       9.517  28.922  56.907  1.00  0.00     0.037 A 
ENDBRANCH   7   8
ENDBRANCH   6   7
ENDBRANCH   1   6
BRANCH   2  15
HETATM   15  C   UNL     1       6.360  24.716  56.124  1.00  0.00     0.137 C 
BRANCH  15  16
HETATM   16  C   UNL     1       7.753  24.151  55.811  1.00  0.00     0.059 C 
BRANCH  16  17
HETATM   17  C   UNL     1       7.786  22.863  55.023  1.00  0.00    -0.057 A 
HETATM   18  C   UNL     1       7.791  21.613  55.656  1.00  0.00     0.007 A 
HETATM   19  C   UNL     1       7.915  20.438  54.912  1.00  0.00     0.001 A 
HETATM   20  C   UNL     1       8.050  20.494  53.526  1.00  0.00     0.000 A 
HETATM   21  C   UNL     1       8.053  21.728  52.882  1.00  0.00     0.001 A 
HETATM   22  C   UNL     1       7.921  22.904  53.624  1.00  0.00     0.007 A 
ENDBRANCH  16  17
ENDBRANCH  15  16
ENDBRANCH   2  15
BRANCH   3  23
HETATM   23  S   UNL     1       4.915  25.241  53.229  1.00  0.00    -0.081 SA
BRANCH  23  24
HETATM   24  C   UNL     1       5.981  25.585  51.796  1.00  0.00     0.185 C 
BRANCH  24  25
HETATM   25  C   UNL     1       5.305  26.521  50.808  1.00  0.00     0.226 C 
HETATM   26  N   UNL     1       5.482  27.864  51.073  1.00  0.00    -0.365 N 
HETATM   27  C   UNL     1       4.943  28.870  50.195  1.00  0.00     0.149 C 
HETATM   28  H   UNL     1       6.307  28.112  51.621  1.00  0.00     0.161 HD
HETATM   29  O   UNL     1       4.629  26.105  49.868  1.00  0.00    -0.273 OA
ENDBRANCH  24  25
ENDBRANCH  23  24
ENDBRANCH   3  23
TORSDOF 9
ENDMDL
MODEL 5
REMARK VINA RESULT:      -8.2      3.037      6.465
REMARK  9 active torsions:
REMARK  status: ('A' for Active; 'I' for Inactive)
REMARK    1  A    between atoms: C_3  and  O_4 
REMARK    2  A    between atoms: O_4  and  C_5 
REMARK    3  A    between atoms: C_5  and  C_6 
REMARK    4  A    between atoms: N_7  and  C_8 
REMARK    5  A    between atoms: C_8  and  C_9 
REMARK    6  A    between atoms: C_9  and  C_10 
REMARK    7  A    between atoms: C_16  and  S_17 
REMARK    8  A    between atoms: S_17  and  C_18 
REMARK    9  A    between atoms: C_18  and  C_19 
REMARK       I    between atoms: C_19  and  N_20 
ROOT
HETATM    1  C   UNL     1       5.305  26.952  52.183  1.00  0.00     0.155 A 
HETATM    2  N   UNL     1       5.528  25.987  53.148  1.00  0.00    -0.309 N 
HETATM    3  C   UNL     1       5.509  26.675  54.337  1.00  0.00     0.192 A 
HETATM    4  N   UNL     1       5.339  27.956  54.113  1.00  0.00    -0.123 NA
HETATM    5  N   UNL     1       5.202  28.131  52.768  1.00  0.00    -0.132 NA
ENDROOT
BRANCH   1   6
HETATM    6  C   UNL     1       5.256  26.746  50.708  1.00  0.00     0.256 C 
BRANCH   6   7
HETATM    7  O   UNL     1       4.397  27.740  50.154  1.00  0.00    -0.343 OA
BRANCH   7   8
HETATM    8  C   UNL     1       3.590  27.304  49.135  1.00  0.00     0.075 A 
HETATM    9  C   UNL     1       2.359  27.965  48.982  1.00  0.00    -0.029 A 
HETATM   10  C   UNL     1       1.982  29.121  49.866  1.00  0.00     0.051 C 
HETATM   11  C   UNL     1       1.501  27.582  47.941  1.00  0.00     0.009 A 
HETATM   12  C   UNL     1       1.844  26.534  47.086  1.00  0.00     0.001 A 
HETATM   13  C   UNL     1       3.047  25.858  47.265  1.00  0.00     0.003 A 
HETATM   14  C   UNL     1       3.917  26.237  48.289  1.00  0.00     0.037 A 
ENDBRANCH   7   8
ENDBRANCH   6   7
ENDBRANCH   1   6
BRANCH   2  15
HETATM   15  C   UNL     1       5.743  24.562  52.945  1.00  0.00     0.137 C 
BRANCH  15  16
HETATM   16  C   UNL     1       7.220  24.153  53.035  1.00  0.00     0.059 C 
BRANCH  16  17
HETATM   17  C   UNL     1       7.502  22.817  53.681  1.00  0.00    -0.057 A 
HETATM   18  C   UNL     1       7.490  22.656  55.073  1.00  0.00     0.007 A 
HETATM   19  C   UNL     1       7.844  21.436  55.652  1.00  0.00     0.001 A 
HETATM   20  C   UNL     1       8.228  20.362  54.851  1.00  0.00     0.000 A 
HETATM   21  C   UNL     1       8.250  20.507  53.467  1.00  0.00     0.001 A 
HETATM   22  C   UNL     1       7.889  21.725  52.885  1.00  0.00     0.007 A 
ENDBRANCH  16  17
ENDBRANCH  15  16
ENDBRANCH   2  15
BRANCH   3  23
HETATM   23  S   UNL     1       5.692  25.971  55.905  1.00  0.00    -0.081 SA
BRANCH  23  24
HETATM   24  C   UNL     1       5.748  27.455  56.955  1.00  0.00     0.185 C 
BRANCH  24  25
HETATM   25  C   UNL     1       7.174  27.930  57.178  1.00  0.00     0.226 C 
HETATM   26  N   UNL     1       7.618  28.867  56.266  1.00  0.00    -0.365 N 
HETATM   27  C   UNL     1       8.931  29.447  56.380  1.00  0.00     0.149 C 
HETATM   28  H   UNL     1       6.899  29.422  55.801  1.00  0.00     0.161 HD
HETATM   29  O   UNL     1       7.879  27.484  58.081  1.00  0.00    -0.273 OA
ENDBRANCH  24  25
ENDBRANCH  23  24
ENDBRANCH   3  23
TORSDOF 9
ENDMDL
MODEL 6
REMARK VINA RESULT:      -8.2      2.755      5.963
REMARK  9 active torsions:
REMARK  status: ('A' for Active; 'I' for Inactive)
REMARK    1  A    between atoms: C_3  and  O_4 
REMARK    2  A    between atoms: O_4  and  C_5 
REMARK    3  A    between atoms: C_5  and  C_6 
REMARK    4  A    between atoms: N_7  and  C_8 
REMARK    5  A    between atoms: C_8  and  C_9 
REMARK    6  A    between atoms: C_9  and  C_10 
REMARK    7  A    between atoms: C_16  and  S_17 
REMARK    8  A    between atoms: S_17  and  C_18 
REMARK    9  A    between atoms: C_18  and  C_19 
REMARK       I    between atoms: C_19  and  N_20 
ROOT
HETATM    1  C   UNL     1       5.799  25.474  54.858  1.00  0.00     0.155 A 
HETATM    2  N   UNL     1       5.750  26.855  54.811  1.00  0.00    -0.309 N 
HETATM    3  C   UNL     1       4.984  27.137  53.706  1.00  0.00     0.192 A 
HETATM    4  N   UNL     1       4.636  26.025  53.104  1.00  0.00    -0.123 NA
HETATM    5  N   UNL     1       5.136  24.983  53.827  1.00  0.00    -0.132 NA
ENDROOT
BRANCH   1   6
HETATM    6  C   UNL     1       6.530  24.638  55.852  1.00  0.00     0.256 C 
BRANCH   6   7
HETATM    7  O   UNL     1       7.770  24.246  55.269  1.00  0.00    -0.343 OA
BRANCH   7   8
HETATM    8  C   UNL     1       7.943  22.892  55.131  1.00  0.00     0.075 A 
HETATM    9  C   UNL     1       8.019  22.400  53.817  1.00  0.00    -0.029 A 
HETATM   10  C   UNL     1       7.964  23.325  52.634  1.00  0.00     0.051 C 
HETATM   11  C   UNL     1       8.222  21.027  53.612  1.00  0.00     0.009 A 
HETATM   12  C   UNL     1       8.311  20.151  54.694  1.00  0.00     0.001 A 
HETATM   13  C   UNL     1       8.197  20.640  55.993  1.00  0.00     0.003 A 
HETATM   14  C   UNL     1       8.009  22.005  56.212  1.00  0.00     0.037 A 
ENDBRANCH   7   8
ENDBRANCH   6   7
ENDBRANCH   1   6
BRANCH   2  15
HETATM   15  C   UNL     1       6.380  27.796  55.725  1.00  0.00     0.137 C 
BRANCH  15  16
HETATM   16  C   UNL     1       7.717  28.344  55.204  1.00  0.00     0.059 C 
BRANCH  16  17
HETATM   17  C   UNL     1       8.541  29.135  56.192  1.00  0.00    -0.057 A 
HETATM   18  C   UNL     1       9.864  29.506  55.917  1.00  0.00     0.007 A 
HETATM   19  C   UNL     1      10.637  30.156  56.881  1.00  0.00     0.001 A 
HETATM   20  C   UNL     1      10.106  30.433  58.139  1.00  0.00     0.000 A 
HETATM   21  C   UNL     1       8.795  30.066  58.431  1.00  0.00     0.001 A 
HETATM   22  C   UNL     1       8.018  29.422  57.466  1.00  0.00     0.007 A 
ENDBRANCH  16  17
ENDBRANCH  15  16
ENDBRANCH   2  15
BRANCH   3  23
HETATM   23  S   UNL     1       4.543  28.721  53.172  1.00  0.00    -0.081 SA
BRANCH  23  24
HETATM   24  C   UNL     1       5.611  28.910  51.712  1.00  0.00     0.185 C 
BRANCH  24  25
HETATM   25  C   UNL     1       4.925  28.418  50.448  1.00  0.00     0.226 C 
HETATM   26  N   UNL     1       5.264  27.134  50.072  1.00  0.00    -0.365 N 
HETATM   27  C   UNL     1       4.655  26.513  48.923  1.00  0.00     0.149 C 
HETATM   28  H   UNL     1       5.602  26.519  50.813  1.00  0.00     0.161 HD
HETATM   29  O   UNL     1       4.155  29.126  49.801  1.00  0.00    -0.273 OA
ENDBRANCH  24  25
ENDBRANCH  23  24
ENDBRANCH   3  23
TORSDOF 9
ENDMDL
MODEL 7
REMARK VINA RESULT:      -8.2      2.343      4.933
REMARK  9 active torsions:
REMARK  status: ('A' for Active; 'I' for Inactive)
REMARK    1  A    between atoms: C_3  and  O_4 
REMARK    2  A    between atoms: O_4  and  C_5 
REMARK    3  A    between atoms: C_5  and  C_6 
REMARK    4  A    between atoms: N_7  and  C_8 
REMARK    5  A    between atoms: C_8  and  C_9 
REMARK    6  A    between atoms: C_9  and  C_10 
REMARK    7  A    between atoms: C_16  and  S_17 
REMARK    8  A    between atoms: S_17  and  C_18 
REMARK    9  A    between atoms: C_18  and  C_19 
REMARK       I    between atoms: C_19  and  N_20 
ROOT
HETATM    1  C   UNL     1       5.432  27.008  55.215  1.00  0.00     0.155 A 
HETATM    2  N   UNL     1       5.752  28.002  56.122  1.00  0.00    -0.309 N 
HETATM    3  C   UNL     1       5.257  29.155  55.563  1.00  0.00     0.192 A 
HETATM    4  N   UNL     1       4.724  28.894  54.393  1.00  0.00    -0.123 NA
HETATM    5  N   UNL     1       4.825  27.552  54.177  1.00  0.00    -0.132 NA
ENDROOT
BRANCH   1   6
HETATM    6  C   UNL     1       5.766  25.560  55.320  1.00  0.00     0.256 C 
BRANCH   6   7
HETATM    7  O   UNL     1       7.048  25.360  54.730  1.00  0.00    -0.343 OA
BRANCH   7   8
HETATM    8  C   UNL     1       7.375  24.051  54.484  1.00  0.00     0.075 A 
HETATM    9  C   UNL     1       7.689  23.722  53.155  1.00  0.00    -0.029 A 
HETATM   10  C   UNL     1       7.711  24.769  52.077  1.00  0.00     0.051 C 
HETATM   11  C   UNL     1       8.058  22.404  52.846  1.00  0.00     0.009 A 
HETATM   12  C   UNL     1       8.078  21.420  53.834  1.00  0.00     0.001 A 
HETATM   13  C   UNL     1       7.730  21.744  55.142  1.00  0.00     0.003 A 
HETATM   14  C   UNL     1       7.374  23.054  55.467  1.00  0.00     0.037 A 
ENDBRANCH   7   8
ENDBRANCH   6   7
ENDBRANCH   1   6
BRANCH   2  15
HETATM   15  C   UNL     1       6.464  27.855  57.384  1.00  0.00     0.137 C 
BRANCH  15  16
HETATM   16  C   UNL     1       7.984  27.729  57.211  1.00  0.00     0.059 C 
BRANCH  16  17
HETATM   17  C   UNL     1       8.802  28.934  57.611  1.00  0.00    -0.057 A 
HETATM   18  C   UNL     1       8.341  29.851  58.565  1.00  0.00     0.007 A 
HETATM   19  C   UNL     1       9.071  31.007  58.852  1.00  0.00     0.001 A 
HETATM   20  C   UNL     1      10.264  31.269  58.182  1.00  0.00     0.000 A 
HETATM   21  C   UNL     1      10.733  30.371  57.228  1.00  0.00     0.001 A 
HETATM   22  C   UNL     1      10.008  29.211  56.944  1.00  0.00     0.007 A 
ENDBRANCH  16  17
ENDBRANCH  15  16
ENDBRANCH   2  15
BRANCH   3  23
HETATM   23  S   UNL     1       5.328  30.726  56.280  1.00  0.00    -0.081 SA
BRANCH  23  24
HETATM   24  C   UNL     1       3.898  30.666  57.402  1.00  0.00     0.185 C 
BRANCH  24  25
HETATM   25  C   UNL     1       4.062  31.626  58.569  1.00  0.00     0.226 C 
HETATM   26  N   UNL     1       5.300  31.586  59.178  1.00  0.00    -0.365 N 
HETATM   27  C   UNL     1       5.619  32.475  60.266  1.00  0.00     0.149 C 
HETATM   28  H   UNL     1       6.075  31.248  58.606  1.00  0.00     0.161 HD
HETATM   29  O   UNL     1       3.146  32.351  58.955  1.00  0.00    -0.273 OA
ENDBRANCH  24  25
ENDBRANCH  23  24
ENDBRANCH   3  23
TORSDOF 9
ENDMDL
MODEL 8
REMARK VINA RESULT:      -8.1      2.276      5.760
REMARK  9 active torsions:
REMARK  status: ('A' for Active; 'I' for Inactive)
REMARK    1  A    between atoms: C_3  and  O_4 
REMARK    2  A    between atoms: O_4  and  C_5 
REMARK    3  A    between atoms: C_5  and  C_6 
REMARK    4  A    between atoms: N_7  and  C_8 
REMARK    5  A    between atoms: C_8  and  C_9 
REMARK    6  A    between atoms: C_9  and  C_10 
REMARK    7  A    between atoms: C_16  and  S_17 
REMARK    8  A    between atoms: S_17  and  C_18 
REMARK    9  A    between atoms: C_18  and  C_19 
REMARK       I    between atoms: C_19  and  N_20 
ROOT
HETATM    1  C   UNL     1       6.063  27.049  53.439  1.00  0.00     0.155 A 
HETATM    2  N   UNL     1       6.445  26.347  54.567  1.00  0.00    -0.309 N 
HETATM    3  C   UNL     1       6.740  27.316  55.496  1.00  0.00     0.192 A 
HETATM    4  N   UNL     1       6.597  28.506  54.964  1.00  0.00    -0.123 NA
HETATM    5  N   UNL     1       6.166  28.343  53.682  1.00  0.00    -0.132 NA
ENDROOT
BRANCH   1   6
HETATM    6  C   UNL     1       5.665  26.478  52.122  1.00  0.00     0.256 C 
BRANCH   6   7
HETATM    7  O   UNL     1       4.739  27.375  51.515  1.00  0.00    -0.343 OA
BRANCH   7   8
HETATM    8  C   UNL     1       4.818  27.452  50.148  1.00  0.00     0.075 A 
HETATM    9  C   UNL     1       5.182  28.697  49.609  1.00  0.00    -0.029 A 
HETATM   10  C   UNL     1       5.514  29.863  50.498  1.00  0.00     0.051 C 
HETATM   11  C   UNL     1       5.306  28.831  48.218  1.00  0.00     0.009 A 
HETATM   12  C   UNL     1       5.036  27.755  47.373  1.00  0.00     0.001 A 
HETATM   13  C   UNL     1       4.639  26.534  47.911  1.00  0.00     0.003 A 
HETATM   14  C   UNL     1       4.525  26.382  49.293  1.00  0.00     0.037 A 
ENDBRANCH   7   8
ENDBRANCH   6   7
ENDBRANCH   1   6
BRANCH   2  15
HETATM   15  C   UNL     1       6.524  24.902  54.729  1.00  0.00     0.137 C 
BRANCH  15  16
HETATM   16  C   UNL     1       7.801  24.295  54.131  1.00  0.00     0.059 C 
BRANCH  16  17
HETATM   17  C   UNL     1       7.968  22.803  54.297  1.00  0.00    -0.057 A 
HETATM   18  C   UNL     1       8.207  22.225  55.550  1.00  0.00     0.007 A 
HETATM   19  C   UNL     1       8.450  20.855  55.669  1.00  0.00     0.001 A 
HETATM   20  C   UNL     1       8.473  20.045  54.535  1.00  0.00     0.000 A 
HETATM   21  C   UNL     1       8.244  20.604  53.281  1.00  0.00     0.001 A 
HETATM   22  C   UNL     1       7.992  21.973  53.162  1.00  0.00     0.007 A 
ENDBRANCH  16  17
ENDBRANCH  15  16
ENDBRANCH   2  15
BRANCH   3  23
HETATM   23  S   UNL     1       7.236  27.023  57.125  1.00  0.00    -0.081 SA
BRANCH  23  24
HETATM   24  C   UNL     1       8.497  28.315  57.348  1.00  0.00     0.185 C 
BRANCH  24  25
HETATM   25  C   UNL     1       7.988  29.449  58.223  1.00  0.00     0.226 C 
HETATM   26  N   UNL     1       7.000  30.221  57.648  1.00  0.00    -0.365 N 
HETATM   27  C   UNL     1       6.385  31.301  58.376  1.00  0.00     0.149 C 
HETATM   28  H   UNL     1       6.447  29.777  56.914  1.00  0.00     0.161 HD
HETATM   29  O   UNL     1       8.451  29.673  59.340  1.00  0.00    -0.273 OA
ENDBRANCH  24  25
ENDBRANCH  23  24
ENDBRANCH   3  23
TORSDOF 9
ENDMDL
MODEL 9
REMARK VINA RESULT:      -8.0      2.957      5.387
REMARK  9 active torsions:
REMARK  status: ('A' for Active; 'I' for Inactive)
REMARK    1  A    between atoms: C_3  and  O_4 
REMARK    2  A    between atoms: O_4  and  C_5 
REMARK    3  A    between atoms: C_5  and  C_6 
REMARK    4  A    between atoms: N_7  and  C_8 
REMARK    5  A    between atoms: C_8  and  C_9 
REMARK    6  A    between atoms: C_9  and  C_10 
REMARK    7  A    between atoms: C_16  and  S_17 
REMARK    8  A    between atoms: S_17  and  C_18 
REMARK    9  A    between atoms: C_18  and  C_19 
REMARK       I    between atoms: C_19  and  N_20 
ROOT
HETATM    1  C   UNL     1       6.902  25.545  52.943  1.00  0.00     0.155 A 
HETATM    2  N   UNL     1       6.813  26.920  53.061  1.00  0.00    -0.309 N 
HETATM    3  C   UNL     1       5.701  27.260  52.329  1.00  0.00     0.192 A 
HETATM    4  N   UNL     1       5.185  26.190  51.773  1.00  0.00    -0.123 NA
HETATM    5  N   UNL     1       5.929  25.116  52.162  1.00  0.00    -0.132 NA
ENDROOT
BRANCH   1   6
HETATM    6  C   UNL     1       7.953  24.664  53.526  1.00  0.00     0.256 C 
BRANCH   6   7
HETATM    7  O   UNL     1       7.478  23.321  53.474  1.00  0.00    -0.343 OA
BRANCH   7   8
HETATM    8  C   UNL     1       7.800  22.551  54.563  1.00  0.00     0.075 A 
HETATM    9  C   UNL     1       7.983  21.178  54.328  1.00  0.00    -0.029 A 
HETATM   10  C   UNL     1       7.878  20.604  52.943  1.00  0.00     0.051 C 
HETATM   11  C   UNL     1       8.339  20.343  55.398  1.00  0.00     0.009 A 
HETATM   12  C   UNL     1       8.475  20.857  56.687  1.00  0.00     0.001 A 
HETATM   13  C   UNL     1       8.256  22.212  56.920  1.00  0.00     0.003 A 
HETATM   14  C   UNL     1       7.915  23.057  55.864  1.00  0.00     0.037 A 
ENDBRANCH   7   8
ENDBRANCH   6   7
ENDBRANCH   1   6
BRANCH   2  15
HETATM   15  C   UNL     1       7.706  27.808  53.792  1.00  0.00     0.137 C 
BRANCH  15  16
HETATM   16  C   UNL     1       7.487  27.771  55.311  1.00  0.00     0.059 C 
BRANCH  16  17
HETATM   17  C   UNL     1       8.359  28.692  56.131  1.00  0.00    -0.057 A 
HETATM   18  C   UNL     1       9.544  29.233  55.618  1.00  0.00     0.007 A 
HETATM   19  C   UNL     1      10.382  30.007  56.423  1.00  0.00     0.001 A 
HETATM   20  C   UNL     1      10.055  30.240  57.758  1.00  0.00     0.000 A 
HETATM   21  C   UNL     1       8.884  29.704  58.286  1.00  0.00     0.001 A 
HETATM   22  C   UNL     1       8.041  28.936  57.479  1.00  0.00     0.007 A 
ENDBRANCH  16  17
ENDBRANCH  15  16
ENDBRANCH   2  15
BRANCH   3  23
HETATM   23  S   UNL     1       5.070  28.859  52.151  1.00  0.00    -0.081 SA
BRANCH  23  24
HETATM   24  C   UNL     1       3.694  28.830  53.340  1.00  0.00     0.185 C 
BRANCH  24  25
HETATM   25  C   UNL     1       4.142  29.267  54.725  1.00  0.00     0.226 C 
HETATM   26  N   UNL     1       4.888  30.428  54.750  1.00  0.00    -0.365 N 
HETATM   27  C   UNL     1       5.340  30.992  55.996  1.00  0.00     0.149 C 
HETATM   28  H   UNL     1       4.755  31.068  53.966  1.00  0.00     0.161 HD
HETATM   29  O   UNL     1       3.884  28.612  55.734  1.00  0.00    -0.273 OA
ENDBRANCH  24  25
ENDBRANCH  23  24
ENDBRANCH   3  23
TORSDOF 9
ENDMDL
MODEL 10
REMARK VINA RESULT:      -8.0      2.566      5.239
REMARK  9 active torsions:
REMARK  status: ('A' for Active; 'I' for Inactive)
REMARK    1  A    between atoms: C_3  and  O_4 
REMARK    2  A    between atoms: O_4  and  C_5 
REMARK    3  A    between atoms: C_5  and  C_6 
REMARK    4  A    between atoms: N_7  and  C_8 
REMARK    5  A    between atoms: C_8  and  C_9 
REMARK    6  A    between atoms: C_9  and  C_10 
REMARK    7  A    between atoms: C_16  and  S_17 
REMARK    8  A    between atoms: S_17  and  C_18 
REMARK    9  A    between atoms: C_18  and  C_19 
REMARK       I    between atoms: C_19  and  N_20 
ROOT
HETATM    1  C   UNL     1       6.532  26.223  53.483  1.00  0.00     0.155 A 
HETATM    2  N   UNL     1       6.535  27.489  54.039  1.00  0.00    -0.309 N 
HETATM    3  C   UNL     1       5.244  27.936  53.892  1.00  0.00     0.192 A 
HETATM    4  N   UNL     1       4.528  27.039  53.256  1.00  0.00    -0.123 NA
HETATM    5  N   UNL     1       5.328  25.965  53.007  1.00  0.00    -0.132 NA
ENDROOT
BRANCH   1   6
HETATM    6  C   UNL     1       7.695  25.300  53.354  1.00  0.00     0.256 C 
BRANCH   6   7
HETATM    7  O   UNL     1       7.796  24.550  54.562  1.00  0.00    -0.343 OA
BRANCH   7   8
HETATM    8  C   UNL     1       7.909  23.194  54.394  1.00  0.00     0.075 A 
HETATM    9  C   UNL     1       8.179  22.438  55.547  1.00  0.00    -0.029 A 
HETATM   10  C   UNL     1       8.287  23.090  56.897  1.00  0.00     0.051 C 
HETATM   11  C   UNL     1       8.280  21.043  55.443  1.00  0.00     0.009 A 
HETATM   12  C   UNL     1       8.150  20.410  54.207  1.00  0.00     0.001 A 
HETATM   13  C   UNL     1       7.920  21.167  53.061  1.00  0.00     0.003 A 
HETATM   14  C   UNL     1       7.804  22.555  53.152  1.00  0.00     0.037 A 
ENDBRANCH   7   8
ENDBRANCH   6   7
ENDBRANCH   1   6
BRANCH   2  15
HETATM   15  C   UNL     1       7.660  28.192  54.639  1.00  0.00     0.137 C 
BRANCH  15  16
HETATM   16  C   UNL     1       7.845  27.878  56.131  1.00  0.00     0.059 C 
BRANCH  16  17
HETATM   17  C   UNL     1       8.661  28.871  56.923  1.00  0.00    -0.057 A 
HETATM   18  C   UNL     1       8.217  29.374  58.153  1.00  0.00     0.007 A 
HETATM   19  C   UNL     1       8.942  30.360  58.824  1.00  0.00     0.001 A 
HETATM   20  C   UNL     1      10.116  30.869  58.270  1.00  0.00     0.000 A 
HETATM   21  C   UNL     1      10.568  30.385  57.046  1.00  0.00     0.001 A 
HETATM   22  C   UNL     1       9.847  29.393  56.377  1.00  0.00     0.007 A 
ENDBRANCH  16  17
ENDBRANCH  15  16
ENDBRANCH   2  15
BRANCH   3  23
HETATM   23  S   UNL     1       4.642  29.457  54.448  1.00  0.00    -0.081 SA
BRANCH  23  24
HETATM   24  C   UNL     1       4.266  29.073  56.186  1.00  0.00     0.185 C 
BRANCH  24  25
HETATM   25  C   UNL     1       3.963  30.331  56.984  1.00  0.00     0.226 C 
HETATM   26  N   UNL     1       3.707  30.115  58.323  1.00  0.00    -0.365 N 
HETATM   27  C   UNL     1       3.454  31.216  59.216  1.00  0.00     0.149 C 
HETATM   28  H   UNL     1       4.099  29.264  58.728  1.00  0.00     0.161 HD
HETATM   29  O   UNL     1       3.919  31.444  56.463  1.00  0.00    -0.273 OA
ENDBRANCH  24  25
ENDBRANCH  23  24
ENDBRANCH   3  23
TORSDOF 9
ENDMDL
