MODEL 1
REMARK VINA RESULT:      -8.2      0.000      0.000
REMARK  6 active torsions:
REMARK  status: ('A' for Active; 'I' for Inactive)
REMARK    1  A    between atoms: C_2  and  N_3 
REMARK    2  A    between atoms: C_2  and  C_17 
REMARK       I    between atoms: N_3  and  C_4 
REMARK    3  A    between atoms: C_4  and  C_5 
REMARK    4  A    between atoms: C_6  and  O_7 
REMARK    5  A    between atoms: O_7  and  C_8 
REMARK    6  A    between atoms: C_8  and  C_9 
ROOT
HETATM    1  N   UNL     1       6.886  28.143  56.341  1.00  0.00    -0.346 N 
HETATM    2  C   UNL     1       7.763  27.986  57.390  1.00  0.00     0.256 C 
HETATM    3  O   UNL     1       7.713  27.042  58.168  1.00  0.00    -0.267 OA
HETATM    4  H   UNL     1       6.944  28.937  55.715  1.00  0.00     0.163 HD
ENDROOT
BRANCH   1   5
HETATM    5  C   UNL     1       5.770  27.239  56.144  1.00  0.00     0.150 C 
HETATM    6  C   UNL     1       4.658  27.912  55.345  1.00  0.00     0.040 C 
BRANCH   5   7
HETATM    7  C   UNL     1       6.304  26.036  55.431  1.00  0.00     0.127 A 
HETATM    8  N   UNL     1       6.632  25.943  54.155  1.00  0.00    -0.231 NA
HETATM    9  C   UNL     1       7.072  24.654  53.981  1.00  0.00     0.085 A 
HETATM   10  C   UNL     1       7.048  23.953  55.182  1.00  0.00     0.062 A 
HETATM   11  C   UNL     1       7.514  24.005  52.819  1.00  0.00     0.034 A 
HETATM   12  N   UNL     1       6.563  24.857  56.090  1.00  0.00    -0.341 N 
HETATM   13  C   UNL     1       7.456  22.623  55.304  1.00  0.00     0.032 A 
HETATM   14  H   UNL     1       6.424  24.690  57.076  1.00  0.00     0.167 HD
HETATM   15  C   UNL     1       7.896  21.992  54.134  1.00  0.00     0.002 A 
HETATM   16  C   UNL     1       7.923  22.667  52.911  1.00  0.00     0.002 A 
ENDBRANCH   5   7
ENDBRANCH   1   5
BRANCH   2  17
HETATM   17  C   UNL     1       8.778  29.050  57.544  1.00  0.00     0.084 A 
HETATM   18  C   UNL     1       8.493  30.227  58.232  1.00  0.00     0.180 A 
HETATM   19  N   UNL     1       9.392  31.234  58.382  1.00  0.00    -0.236 NA
HETATM   20  C   UNL     1      10.601  31.073  57.802  1.00  0.00     0.119 A 
HETATM   21  C   UNL     1      10.968  29.945  57.085  1.00  0.00     0.020 A 
HETATM   22  C   UNL     1      10.040  28.917  56.954  1.00  0.00     0.023 A 
BRANCH  18  23
HETATM   23  O   UNL     1       7.278  30.346  58.870  1.00  0.00    -0.328 OA
BRANCH  23  24
HETATM   24  C   UNL     1       6.580  31.557  58.552  1.00  0.00     0.248 C 
BRANCH  24  25
HETATM   25  C   UNL     1       5.407  31.227  57.645  1.00  0.00     0.377 C 
HETATM   26  F   UNL     1       5.837  31.119  56.360  1.00  0.00    -0.212 F 
HETATM   27  F   UNL     1       4.885  30.017  57.975  1.00  0.00    -0.212 F 
ENDBRANCH  24  25
ENDBRANCH  23  24
ENDBRANCH  18  23
ENDBRANCH   2  17
TORSDOF 6
ENDMDL
MODEL 2
REMARK VINA RESULT:      -8.2      2.855      6.871
REMARK  6 active torsions:
REMARK  status: ('A' for Active; 'I' for Inactive)
REMARK    1  A    between atoms: C_2  and  N_3 
REMARK    2  A    between atoms: C_2  and  C_17 
REMARK       I    between atoms: N_3  and  C_4 
REMARK    3  A    between atoms: C_4  and  C_5 
REMARK    4  A    between atoms: C_6  and  O_7 
REMARK    5  A    between atoms: O_7  and  C_8 
REMARK    6  A    between atoms: C_8  and  C_9 
ROOT
HETATM    1  N   UNL     1       6.998  25.362  54.203  1.00  0.00    -0.346 N 
HETATM    2  C   UNL     1       7.825  24.680  53.340  1.00  0.00     0.256 C 
HETATM    3  O   UNL     1       8.326  25.195  52.348  1.00  0.00    -0.267 OA
HETATM    4  H   UNL     1       6.590  24.911  55.014  1.00  0.00     0.163 HD
ENDROOT
BRANCH   1   5
HETATM    5  C   UNL     1       6.582  26.724  53.937  1.00  0.00     0.150 C 
HETATM    6  C   UNL     1       5.071  26.871  54.087  1.00  0.00     0.040 C 
BRANCH   5   7
HETATM    7  C   UNL     1       7.314  27.601  54.904  1.00  0.00     0.127 A 
HETATM    8  N   UNL     1       8.466  28.217  54.711  1.00  0.00    -0.231 NA
HETATM    9  C   UNL     1       8.720  28.897  55.876  1.00  0.00     0.085 A 
HETATM   10  C   UNL     1       7.686  28.725  56.790  1.00  0.00     0.062 A 
HETATM   11  C   UNL     1       9.820  29.692  56.231  1.00  0.00     0.034 A 
HETATM   12  N   UNL     1       6.800  27.903  56.143  1.00  0.00    -0.341 N 
HETATM   13  C   UNL     1       7.671  29.315  58.054  1.00  0.00     0.032 A 
HETATM   14  H   UNL     1       5.917  27.577  56.510  1.00  0.00     0.167 HD
HETATM   15  C   UNL     1       8.776  30.106  58.390  1.00  0.00     0.002 A 
HETATM   16  C   UNL     1       9.835  30.291  57.499  1.00  0.00     0.002 A 
ENDBRANCH   5   7
ENDBRANCH   1   5
BRANCH   2  17
HETATM   17  C   UNL     1       8.067  23.259  53.669  1.00  0.00     0.084 A 
HETATM   18  C   UNL     1       8.712  22.889  54.846  1.00  0.00     0.180 A 
HETATM   19  N   UNL     1       8.967  21.598  55.177  1.00  0.00    -0.236 NA
HETATM   20  C   UNL     1       8.594  20.648  54.292  1.00  0.00     0.119 A 
HETATM   21  C   UNL     1       7.961  20.922  53.090  1.00  0.00     0.020 A 
HETATM   22  C   UNL     1       7.694  22.250  52.773  1.00  0.00     0.023 A 
BRANCH  18  23
HETATM   23  O   UNL     1       9.029  23.866  55.765  1.00  0.00    -0.328 OA
BRANCH  23  24
HETATM   24  C   UNL     1       8.487  23.623  57.070  1.00  0.00     0.248 C 
BRANCH  24  25
HETATM   25  C   UNL     1       8.349  24.947  57.802  1.00  0.00     0.377 C 
HETATM   26  F   UNL     1       9.086  25.899  57.171  1.00  0.00    -0.212 F 
HETATM   27  F   UNL     1       7.060  25.374  57.758  1.00  0.00    -0.212 F 
ENDBRANCH  24  25
ENDBRANCH  23  24
ENDBRANCH  18  23
ENDBRANCH   2  17
TORSDOF 6
ENDMDL
MODEL 3
REMARK VINA RESULT:      -8.1      3.186      6.790
REMARK  6 active torsions:
REMARK  status: ('A' for Active; 'I' for Inactive)
REMARK    1  A    between atoms: C_2  and  N_3 
REMARK    2  A    between atoms: C_2  and  C_17 
REMARK       I    between atoms: N_3  and  C_4 
REMARK    3  A    between atoms: C_4  and  C_5 
REMARK    4  A    between atoms: C_6  and  O_7 
REMARK    5  A    between atoms: O_7  and  C_8 
REMARK    6  A    between atoms: C_8  and  C_9 
ROOT
HETATM    1  N   UNL     1       6.448  24.141  53.983  1.00  0.00    -0.346 N 
HETATM    2  C   UNL     1       7.619  23.507  53.635  1.00  0.00     0.256 C 
HETATM    3  O   UNL     1       8.329  23.877  52.707  1.00  0.00    -0.267 OA
HETATM    4  H   UNL     1       5.875  23.812  54.751  1.00  0.00     0.163 HD
ENDROOT
BRANCH   1   5
HETATM    5  C   UNL     1       5.922  25.244  53.203  1.00  0.00     0.150 C 
HETATM    6  C   UNL     1       4.536  24.912  52.659  1.00  0.00     0.040 C 
BRANCH   5   7
HETATM    7  C   UNL     1       5.883  26.437  54.106  1.00  0.00     0.127 A 
HETATM    8  N   UNL     1       6.899  27.201  54.466  1.00  0.00    -0.231 NA
HETATM    9  C   UNL     1       6.364  28.161  55.289  1.00  0.00     0.085 A 
HETATM   10  C   UNL     1       4.988  28.005  55.408  1.00  0.00     0.062 A 
HETATM   11  C   UNL     1       6.996  29.208  55.976  1.00  0.00     0.034 A 
HETATM   12  N   UNL     1       4.706  26.906  54.639  1.00  0.00    -0.341 N 
HETATM   13  C   UNL     1       4.182  28.850  56.173  1.00  0.00     0.032 A 
HETATM   14  H   UNL     1       3.790  26.510  54.485  1.00  0.00     0.167 HD
HETATM   15  C   UNL     1       4.829  29.891  56.850  1.00  0.00     0.002 A 
HETATM   16  C   UNL     1       6.212  30.068  56.757  1.00  0.00     0.002 A 
ENDBRANCH   5   7
ENDBRANCH   1   5
BRANCH   2  17
HETATM   17  C   UNL     1       7.973  22.320  54.442  1.00  0.00     0.084 A 
HETATM   18  C   UNL     1       8.005  22.376  55.833  1.00  0.00     0.180 A 
HETATM   19  N   UNL     1       8.340  21.315  56.610  1.00  0.00    -0.236 NA
HETATM   20  C   UNL     1       8.682  20.171  55.978  1.00  0.00     0.119 A 
HETATM   21  C   UNL     1       8.695  20.026  54.600  1.00  0.00     0.020 A 
HETATM   22  C   UNL     1       8.334  21.120  53.819  1.00  0.00     0.023 A 
BRANCH  18  23
HETATM   23  O   UNL     1       7.592  23.531  56.462  1.00  0.00    -0.328 OA
BRANCH  23  24
HETATM   24  C   UNL     1       8.654  24.237  57.117  1.00  0.00     0.248 C 
BRANCH  24  25
HETATM   25  C   UNL     1       8.104  25.529  57.697  1.00  0.00     0.377 C 
HETATM   26  F   UNL     1       8.737  26.591  57.131  1.00  0.00    -0.212 F 
HETATM   27  F   UNL     1       6.788  25.660  57.385  1.00  0.00    -0.212 F 
ENDBRANCH  24  25
ENDBRANCH  23  24
ENDBRANCH  18  23
ENDBRANCH   2  17
TORSDOF 6
ENDMDL
MODEL 4
REMARK VINA RESULT:      -7.9      4.843      9.323
REMARK  6 active torsions:
REMARK  status: ('A' for Active; 'I' for Inactive)
REMARK    1  A    between atoms: C_2  and  N_3 
REMARK    2  A    between atoms: C_2  and  C_17 
REMARK       I    between atoms: N_3  and  C_4 
REMARK    3  A    between atoms: C_4  and  C_5 
REMARK    4  A    between atoms: C_6  and  O_7 
REMARK    5  A    between atoms: O_7  and  C_8 
REMARK    6  A    between atoms: C_8  and  C_9 
ROOT
HETATM    1  N   UNL     1       5.856  31.927  60.194  1.00  0.00    -0.346 N 
HETATM    2  C   UNL     1       6.215  32.009  58.868  1.00  0.00     0.256 C 
HETATM    3  O   UNL     1       5.740  32.834  58.097  1.00  0.00    -0.267 OA
HETATM    4  H   UNL     1       6.258  31.232  60.811  1.00  0.00     0.163 HD
ENDROOT
BRANCH   1   5
HETATM    5  C   UNL     1       4.806  32.759  60.748  1.00  0.00     0.150 C 
HETATM    6  C   UNL     1       3.457  32.048  60.684  1.00  0.00     0.040 C 
BRANCH   5   7
HETATM    7  C   UNL     1       5.194  33.069  62.160  1.00  0.00     0.127 A 
HETATM    8  N   UNL     1       6.415  33.224  62.638  1.00  0.00    -0.231 NA
HETATM    9  C   UNL     1       6.255  33.499  63.974  1.00  0.00     0.085 A 
HETATM   10  C   UNL     1       4.908  33.551  64.315  1.00  0.00     0.062 A 
HETATM   11  C   UNL     1       7.220  33.722  64.967  1.00  0.00     0.034 A 
HETATM   12  N   UNL     1       4.253  33.282  63.141  1.00  0.00    -0.341 N 
HETATM   13  C   UNL     1       4.451  33.827  65.605  1.00  0.00     0.032 A 
HETATM   14  H   UNL     1       3.252  33.250  63.014  1.00  0.00     0.167 HD
HETATM   15  C   UNL     1       5.429  34.048  66.582  1.00  0.00     0.002 A 
HETATM   16  C   UNL     1       6.790  33.994  66.273  1.00  0.00     0.002 A 
ENDBRANCH   5   7
ENDBRANCH   1   5
BRANCH   2  17
HETATM   17  C   UNL     1       7.211  31.017  58.409  1.00  0.00     0.084 A 
HETATM   18  C   UNL     1       8.575  31.221  58.600  1.00  0.00     0.180 A 
HETATM   19  N   UNL     1       9.521  30.344  58.180  1.00  0.00    -0.236 NA
HETATM   20  C   UNL     1       9.094  29.243  57.523  1.00  0.00     0.119 A 
HETATM   21  C   UNL     1       7.760  28.964  57.274  1.00  0.00     0.020 A 
HETATM   22  C   UNL     1       6.802  29.867  57.725  1.00  0.00     0.023 A 
BRANCH  18  23
HETATM   23  O   UNL     1       8.988  32.317  59.327  1.00  0.00    -0.328 OA
BRANCH  23  24
HETATM   24  C   UNL     1       9.932  31.999  60.357  1.00  0.00     0.248 C 
BRANCH  24  25
HETATM   25  C   UNL     1       9.195  31.358  61.521  1.00  0.00     0.377 C 
HETATM   26  F   UNL     1       9.853  30.237  61.918  1.00  0.00    -0.212 F 
HETATM   27  F   UNL     1       9.190  32.195  62.591  1.00  0.00    -0.212 F 
ENDBRANCH  24  25
ENDBRANCH  23  24
ENDBRANCH  18  23
ENDBRANCH   2  17
TORSDOF 6
ENDMDL
MODEL 5
REMARK VINA RESULT:      -7.9      3.467      5.275
REMARK  6 active torsions:
REMARK  status: ('A' for Active; 'I' for Inactive)
REMARK    1  A    between atoms: C_2  and  N_3 
REMARK    2  A    between atoms: C_2  and  C_17 
REMARK       I    between atoms: N_3  and  C_4 
REMARK    3  A    between atoms: C_4  and  C_5 
REMARK    4  A    between atoms: C_6  and  O_7 
REMARK    5  A    between atoms: O_7  and  C_8 
REMARK    6  A    between atoms: C_8  and  C_9 
ROOT
HETATM    1  N   UNL     1       6.760  26.700  55.526  1.00  0.00    -0.346 N 
HETATM    2  C   UNL     1       6.894  28.032  55.206  1.00  0.00     0.256 C 
HETATM    3  O   UNL     1       7.889  28.690  55.486  1.00  0.00    -0.267 OA
HETATM    4  H   UNL     1       5.924  26.180  55.289  1.00  0.00     0.163 HD
ENDROOT
BRANCH   1   5
HETATM    5  C   UNL     1       7.760  26.005  56.312  1.00  0.00     0.150 C 
HETATM    6  C   UNL     1       7.379  25.994  57.789  1.00  0.00     0.040 C 
BRANCH   5   7
HETATM    7  C   UNL     1       7.858  24.616  55.762  1.00  0.00     0.127 A 
HETATM    8  N   UNL     1       7.945  23.490  56.446  1.00  0.00    -0.231 NA
HETATM    9  C   UNL     1       8.005  22.491  55.506  1.00  0.00     0.085 A 
HETATM   10  C   UNL     1       7.917  23.013  54.219  1.00  0.00     0.062 A 
HETATM   11  C   UNL     1       8.134  21.105  55.674  1.00  0.00     0.034 A 
HETATM   12  N   UNL     1       7.816  24.366  54.411  1.00  0.00    -0.341 N 
HETATM   13  C   UNL     1       7.938  22.224  53.068  1.00  0.00     0.032 A 
HETATM   14  H   UNL     1       7.722  25.062  53.685  1.00  0.00     0.167 HD
HETATM   15  C   UNL     1       8.066  20.843  53.256  1.00  0.00     0.002 A 
HETATM   16  C   UNL     1       8.165  20.290  54.534  1.00  0.00     0.002 A 
ENDBRANCH   5   7
ENDBRANCH   1   5
BRANCH   2  17
HETATM   17  C   UNL     1       5.743  28.646  54.509  1.00  0.00     0.084 A 
HETATM   18  C   UNL     1       5.405  28.276  53.210  1.00  0.00     0.180 A 
HETATM   19  N   UNL     1       4.366  28.827  52.530  1.00  0.00    -0.236 NA
HETATM   20  C   UNL     1       3.663  29.796  53.156  1.00  0.00     0.119 A 
HETATM   21  C   UNL     1       3.936  30.238  54.440  1.00  0.00     0.020 A 
HETATM   22  C   UNL     1       4.995  29.653  55.128  1.00  0.00     0.023 A 
BRANCH  18  23
HETATM   23  O   UNL     1       6.093  27.243  52.612  1.00  0.00    -0.328 OA
BRANCH  23  24
HETATM   24  C   UNL     1       5.279  26.435  51.752  1.00  0.00     0.248 C 
BRANCH  24  25
HETATM   25  C   UNL     1       5.188  25.034  52.333  1.00  0.00     0.377 C 
HETATM   26  F   UNL     1       4.697  25.094  53.599  1.00  0.00    -0.212 F 
HETATM   27  F   UNL     1       4.306  24.287  51.618  1.00  0.00    -0.212 F 
ENDBRANCH  24  25
ENDBRANCH  23  24
ENDBRANCH  18  23
ENDBRANCH   2  17
TORSDOF 6
ENDMDL
MODEL 6
REMARK VINA RESULT:      -7.8      3.411      8.151
REMARK  6 active torsions:
REMARK  status: ('A' for Active; 'I' for Inactive)
REMARK    1  A    between atoms: C_2  and  N_3 
REMARK    2  A    between atoms: C_2  and  C_17 
REMARK       I    between atoms: N_3  and  C_4 
REMARK    3  A    between atoms: C_4  and  C_5 
REMARK    4  A    between atoms: C_6  and  O_7 
REMARK    5  A    between atoms: O_7  and  C_8 
REMARK    6  A    between atoms: C_8  and  C_9 
ROOT
HETATM    1  N   UNL     1       5.951  30.417  58.505  1.00  0.00    -0.346 N 
HETATM    2  C   UNL     1       6.129  29.820  57.278  1.00  0.00     0.256 C 
HETATM    3  O   UNL     1       6.033  30.427  56.219  1.00  0.00    -0.267 OA
HETATM    4  H   UNL     1       6.029  29.892  59.368  1.00  0.00     0.163 HD
ENDROOT
BRANCH   1   5
HETATM    5  C   UNL     1       5.536  31.801  58.621  1.00  0.00     0.150 C 
HETATM    6  C   UNL     1       4.029  31.936  58.428  1.00  0.00     0.040 C 
BRANCH   5   7
HETATM    7  C   UNL     1       5.957  32.270  59.979  1.00  0.00     0.127 A 
HETATM    8  N   UNL     1       5.440  33.264  60.677  1.00  0.00    -0.231 NA
HETATM    9  C   UNL     1       6.153  33.300  61.850  1.00  0.00     0.085 A 
HETATM   10  C   UNL     1       7.103  32.285  61.888  1.00  0.00     0.062 A 
HETATM   11  C   UNL     1       6.045  34.176  62.941  1.00  0.00     0.034 A 
HETATM   12  N   UNL     1       6.952  31.639  60.689  1.00  0.00    -0.341 N 
HETATM   13  C   UNL     1       7.961  32.075  62.968  1.00  0.00     0.032 A 
HETATM   14  H   UNL     1       7.477  30.834  60.379  1.00  0.00     0.167 HD
HETATM   15  C   UNL     1       7.838  32.958  64.048  1.00  0.00     0.002 A 
HETATM   16  C   UNL     1       6.900  33.993  64.036  1.00  0.00     0.002 A 
ENDBRANCH   5   7
ENDBRANCH   1   5
BRANCH   2  17
HETATM   17  C   UNL     1       6.430  28.372  57.305  1.00  0.00     0.084 A 
HETATM   18  C   UNL     1       7.700  27.904  57.631  1.00  0.00     0.180 A 
HETATM   19  N   UNL     1       8.021  26.585  57.651  1.00  0.00    -0.236 NA
HETATM   20  C   UNL     1       7.051  25.709  57.308  1.00  0.00     0.119 A 
HETATM   21  C   UNL     1       5.765  26.083  56.955  1.00  0.00     0.020 A 
HETATM   22  C   UNL     1       5.449  27.438  56.954  1.00  0.00     0.023 A 
BRANCH  18  23
HETATM   23  O   UNL     1       8.657  28.808  58.038  1.00  0.00    -0.328 OA
BRANCH  23  24
HETATM   24  C   UNL     1       9.598  29.148  57.012  1.00  0.00     0.248 C 
BRANCH  24  25
HETATM   25  C   UNL     1      10.699  30.003  57.615  1.00  0.00     0.377 C 
HETATM   26  F   UNL     1      11.902  29.628  57.106  1.00  0.00    -0.212 F 
HETATM   27  F   UNL     1      10.527  31.304  57.263  1.00  0.00    -0.212 F 
ENDBRANCH  24  25
ENDBRANCH  23  24
ENDBRANCH  18  23
ENDBRANCH   2  17
TORSDOF 6
ENDMDL
MODEL 7
REMARK VINA RESULT:      -7.7      3.815      6.258
REMARK  6 active torsions:
REMARK  status: ('A' for Active; 'I' for Inactive)
REMARK    1  A    between atoms: C_2  and  N_3 
REMARK    2  A    between atoms: C_2  and  C_17 
REMARK       I    between atoms: N_3  and  C_4 
REMARK    3  A    between atoms: C_4  and  C_5 
REMARK    4  A    between atoms: C_6  and  O_7 
REMARK    5  A    between atoms: O_7  and  C_8 
REMARK    6  A    between atoms: C_8  and  C_9 
ROOT
HETATM    1  N   UNL     1       6.301  26.205  53.839  1.00  0.00    -0.346 N 
HETATM    2  C   UNL     1       5.987  24.866  53.791  1.00  0.00     0.256 C 
HETATM    3  O   UNL     1       4.883  24.450  53.462  1.00  0.00    -0.267 OA
HETATM    4  H   UNL     1       7.220  26.525  54.121  1.00  0.00     0.163 HD
ENDROOT
BRANCH   1   5
HETATM    5  C   UNL     1       5.303  27.227  53.594  1.00  0.00     0.150 C 
HETATM    6  C   UNL     1       5.683  28.535  54.283  1.00  0.00     0.040 C 
BRANCH   5   7
HETATM    7  C   UNL     1       5.209  27.398  52.110  1.00  0.00     0.127 A 
HETATM    8  N   UNL     1       5.696  28.390  51.387  1.00  0.00    -0.231 NA
HETATM    9  C   UNL     1       5.361  28.098  50.088  1.00  0.00     0.085 A 
HETATM   10  C   UNL     1       4.687  26.884  50.008  1.00  0.00     0.062 A 
HETATM   11  C   UNL     1       5.602  28.824  48.913  1.00  0.00     0.034 A 
HETATM   12  N   UNL     1       4.610  26.456  51.307  1.00  0.00    -0.341 N 
HETATM   13  C   UNL     1       4.239  26.331  48.807  1.00  0.00     0.032 A 
HETATM   14  H   UNL     1       4.190  25.593  51.624  1.00  0.00     0.167 HD
HETATM   15  C   UNL     1       4.490  27.069  47.644  1.00  0.00     0.002 A 
HETATM   16  C   UNL     1       5.157  28.296  47.693  1.00  0.00     0.002 A 
ENDBRANCH   5   7
ENDBRANCH   1   5
BRANCH   2  17
HETATM   17  C   UNL     1       7.069  23.937  54.183  1.00  0.00     0.084 A 
HETATM   18  C   UNL     1       7.595  23.945  55.472  1.00  0.00     0.180 A 
HETATM   19  N   UNL     1       8.599  23.120  55.867  1.00  0.00    -0.236 NA
HETATM   20  C   UNL     1       9.111  22.282  54.939  1.00  0.00     0.119 A 
HETATM   21  C   UNL     1       8.661  22.215  53.631  1.00  0.00     0.020 A 
HETATM   22  C   UNL     1       7.622  23.057  53.246  1.00  0.00     0.023 A 
BRANCH  18  23
HETATM   23  O   UNL     1       7.019  24.761  56.421  1.00  0.00    -0.328 OA
BRANCH  23  24
HETATM   24  C   UNL     1       7.969  25.381  57.297  1.00  0.00     0.248 C 
BRANCH  24  25
HETATM   25  C   UNL     1       7.734  26.882  57.299  1.00  0.00     0.377 C 
HETATM   26  F   UNL     1       8.220  27.423  56.151  1.00  0.00    -0.212 F 
HETATM   27  F   UNL     1       6.401  27.147  57.309  1.00  0.00    -0.212 F 
ENDBRANCH  24  25
ENDBRANCH  23  24
ENDBRANCH  18  23
ENDBRANCH   2  17
TORSDOF 6
ENDMDL
MODEL 8
REMARK VINA RESULT:      -7.7      2.996      4.542
REMARK  6 active torsions:
REMARK  status: ('A' for Active; 'I' for Inactive)
REMARK    1  A    between atoms: C_2  and  N_3 
REMARK    2  A    between atoms: C_2  and  C_17 
REMARK       I    between atoms: N_3  and  C_4 
REMARK    3  A    between atoms: C_4  and  C_5 
REMARK    4  A    between atoms: C_6  and  O_7 
REMARK    5  A    between atoms: O_7  and  C_8 
REMARK    6  A    between atoms: C_8  and  C_9 
ROOT
HETATM    1  N   UNL     1       6.337  25.768  53.971  1.00  0.00    -0.346 N 
HETATM    2  C   UNL     1       5.266  26.632  53.998  1.00  0.00     0.256 C 
HETATM    3  O   UNL     1       4.334  26.566  53.206  1.00  0.00    -0.267 OA
HETATM    4  H   UNL     1       7.100  25.847  54.633  1.00  0.00     0.163 HD
ENDROOT
BRANCH   1   5
HETATM    5  C   UNL     1       6.481  24.772  52.927  1.00  0.00     0.150 C 
HETATM    6  C   UNL     1       7.354  25.296  51.791  1.00  0.00     0.040 C 
BRANCH   5   7
HETATM    7  C   UNL     1       7.082  23.558  53.564  1.00  0.00     0.127 A 
HETATM    8  N   UNL     1       7.604  22.510  52.952  1.00  0.00    -0.231 NA
HETATM    9  C   UNL     1       8.026  21.671  53.955  1.00  0.00     0.085 A 
HETATM   10  C   UNL     1       7.791  22.232  55.205  1.00  0.00     0.062 A 
HETATM   11  C   UNL     1       8.625  20.406  53.874  1.00  0.00     0.034 A 
HETATM   12  N   UNL     1       7.198  23.436  54.929  1.00  0.00    -0.341 N 
HETATM   13  C   UNL     1       8.133  21.605  56.405  1.00  0.00     0.032 A 
HETATM   14  H   UNL     1       6.899  24.120  55.609  1.00  0.00     0.167 HD
HETATM   15  C   UNL     1       8.731  20.343  56.305  1.00  0.00     0.002 A 
HETATM   16  C   UNL     1       8.972  19.750  55.063  1.00  0.00     0.002 A 
ENDBRANCH   5   7
ENDBRANCH   1   5
BRANCH   2  17
HETATM   17  C   UNL     1       5.309  27.677  55.043  1.00  0.00     0.084 A 
HETATM   18  C   UNL     1       5.555  27.357  56.375  1.00  0.00     0.180 A 
HETATM   19  N   UNL     1       5.587  28.285  57.366  1.00  0.00    -0.236 NA
HETATM   20  C   UNL     1       5.338  29.567  57.020  1.00  0.00     0.119 A 
HETATM   21  C   UNL     1       5.069  29.976  55.724  1.00  0.00     0.020 A 
HETATM   22  C   UNL     1       5.054  29.015  54.719  1.00  0.00     0.023 A 
BRANCH  18  23
HETATM   23  O   UNL     1       5.869  26.055  56.699  1.00  0.00    -0.328 OA
BRANCH  23  24
HETATM   24  C   UNL     1       6.927  25.943  57.660  1.00  0.00     0.248 C 
BRANCH  24  25
HETATM   25  C   UNL     1       8.260  26.057  56.942  1.00  0.00     0.377 C 
HETATM   26  F   UNL     1       8.873  27.218  57.294  1.00  0.00    -0.212 F 
HETATM   27  F   UNL     1       9.090  25.055  57.333  1.00  0.00    -0.212 F 
ENDBRANCH  24  25
ENDBRANCH  23  24
ENDBRANCH  18  23
ENDBRANCH   2  17
TORSDOF 6
ENDMDL
MODEL 9
REMARK VINA RESULT:      -7.6      5.115      7.929
REMARK  6 active torsions:
REMARK  status: ('A' for Active; 'I' for Inactive)
REMARK    1  A    between atoms: C_2  and  N_3 
REMARK    2  A    between atoms: C_2  and  C_17 
REMARK       I    between atoms: N_3  and  C_4 
REMARK    3  A    between atoms: C_4  and  C_5 
REMARK    4  A    between atoms: C_6  and  O_7 
REMARK    5  A    between atoms: O_7  and  C_8 
REMARK    6  A    between atoms: C_8  and  C_9 
ROOT
HETATM    1  N   UNL     1       6.395  32.074  61.550  1.00  0.00    -0.346 N 
HETATM    2  C   UNL     1       6.107  33.381  61.871  1.00  0.00     0.256 C 
HETATM    3  O   UNL     1       6.960  34.259  61.927  1.00  0.00    -0.267 OA
HETATM    4  H   UNL     1       5.673  31.364  61.517  1.00  0.00     0.163 HD
ENDROOT
BRANCH   1   5
HETATM    5  C   UNL     1       7.759  31.625  61.349  1.00  0.00     0.150 C 
HETATM    6  C   UNL     1       8.203  30.709  62.486  1.00  0.00     0.040 C 
BRANCH   5   7
HETATM    7  C   UNL     1       7.795  30.917  60.031  1.00  0.00     0.127 A 
HETATM    8  N   UNL     1       8.728  30.092  59.592  1.00  0.00    -0.231 NA
HETATM    9  C   UNL     1       8.315  29.700  58.343  1.00  0.00     0.085 A 
HETATM   10  C   UNL     1       7.085  30.266  58.024  1.00  0.00     0.062 A 
HETATM   11  C   UNL     1       8.939  28.853  57.415  1.00  0.00     0.034 A 
HETATM   12  N   UNL     1       6.773  31.029  59.118  1.00  0.00    -0.341 N 
HETATM   13  C   UNL     1       6.419  30.029  56.821  1.00  0.00     0.032 A 
HETATM   14  H   UNL     1       5.933  31.578  59.239  1.00  0.00     0.167 HD
HETATM   15  C   UNL     1       7.056  29.180  55.908  1.00  0.00     0.002 A 
HETATM   16  C   UNL     1       8.295  28.604  56.195  1.00  0.00     0.002 A 
ENDBRANCH   5   7
ENDBRANCH   1   5
BRANCH   2  17
HETATM   17  C   UNL     1       4.689  33.673  62.171  1.00  0.00     0.084 A 
HETATM   18  C   UNL     1       4.118  33.309  63.387  1.00  0.00     0.180 A 
HETATM   19  N   UNL     1       2.816  33.544  63.694  1.00  0.00    -0.236 NA
HETATM   20  C   UNL     1       2.055  34.134  62.747  1.00  0.00     0.119 A 
HETATM   21  C   UNL     1       2.533  34.517  61.504  1.00  0.00     0.020 A 
HETATM   22  C   UNL     1       3.872  34.282  61.211  1.00  0.00     0.023 A 
BRANCH  18  23
HETATM   23  O   UNL     1       4.924  32.765  64.364  1.00  0.00    -0.328 OA
BRANCH  23  24
HETATM   24  C   UNL     1       5.207  33.668  65.441  1.00  0.00     0.248 C 
BRANCH  24  25
HETATM   25  C   UNL     1       6.708  33.883  65.523  1.00  0.00     0.377 C 
HETATM   26  F   UNL     1       7.100  33.888  66.825  1.00  0.00    -0.212 F 
HETATM   27  F   UNL     1       7.363  32.849  64.933  1.00  0.00    -0.212 F 
ENDBRANCH  24  25
ENDBRANCH  23  24
ENDBRANCH  18  23
ENDBRANCH   2  17
TORSDOF 6
ENDMDL
MODEL 10
REMARK VINA RESULT:      -7.5      3.421      8.141
REMARK  6 active torsions:
REMARK  status: ('A' for Active; 'I' for Inactive)
REMARK    1  A    between atoms: C_2  and  N_3 
REMARK    2  A    between atoms: C_2  and  C_17 
REMARK       I    between atoms: N_3  and  C_4 
REMARK    3  A    between atoms: C_4  and  C_5 
REMARK    4  A    between atoms: C_6  and  O_7 
REMARK    5  A    between atoms: O_7  and  C_8 
REMARK    6  A    between atoms: C_8  and  C_9 
ROOT
HETATM    1  N   UNL     1       7.559  30.094  59.168  1.00  0.00    -0.346 N 
HETATM    2  C   UNL     1       7.739  29.163  58.170  1.00  0.00     0.256 C 
HETATM    3  O   UNL     1       8.818  28.631  57.939  1.00  0.00    -0.267 OA
HETATM    4  H   UNL     1       6.658  30.525  59.336  1.00  0.00     0.163 HD
ENDROOT
BRANCH   1   5
HETATM    5  C   UNL     1       8.672  30.584  59.957  1.00  0.00     0.150 C 
HETATM    6  C   UNL     1       9.536  31.542  59.142  1.00  0.00     0.040 C 
BRANCH   5   7
HETATM    7  C   UNL     1       8.091  31.261  61.159  1.00  0.00     0.127 A 
HETATM    8  N   UNL     1       8.736  31.963  62.071  1.00  0.00    -0.231 NA
HETATM    9  C   UNL     1       7.777  32.380  62.962  1.00  0.00     0.085 A 
HETATM   10  C   UNL     1       6.513  31.955  62.568  1.00  0.00     0.062 A 
HETATM   11  C   UNL     1       7.910  33.132  64.138  1.00  0.00     0.034 A 
HETATM   12  N   UNL     1       6.739  31.252  61.413  1.00  0.00    -0.341 N 
HETATM   13  C   UNL     1       5.348  32.248  63.279  1.00  0.00     0.032 A 
HETATM   14  H   UNL     1       6.035  30.807  60.842  1.00  0.00     0.167 HD
HETATM   15  C   UNL     1       5.500  33.001  64.449  1.00  0.00     0.002 A 
HETATM   16  C   UNL     1       6.757  33.434  64.875  1.00  0.00     0.002 A 
ENDBRANCH   5   7
ENDBRANCH   1   5
BRANCH   2  17
HETATM   17  C   UNL     1       6.541  28.846  57.363  1.00  0.00     0.084 A 
HETATM   18  C   UNL     1       5.727  29.853  56.852  1.00  0.00     0.180 A 
HETATM   19  N   UNL     1       4.611  29.603  56.120  1.00  0.00    -0.236 NA
HETATM   20  C   UNL     1       4.282  28.309  55.918  1.00  0.00     0.119 A 
HETATM   21  C   UNL     1       5.022  27.241  56.401  1.00  0.00     0.020 A 
HETATM   22  C   UNL     1       6.171  27.515  57.136  1.00  0.00     0.023 A 
BRANCH  18  23
HETATM   23  O   UNL     1       6.113  31.166  57.014  1.00  0.00    -0.328 OA
BRANCH  23  24
HETATM   24  C   UNL     1       5.014  32.086  57.045  1.00  0.00     0.248 C 
BRANCH  24  25
HETATM   25  C   UNL     1       4.831  32.589  58.467  1.00  0.00     0.377 C 
HETATM   26  F   UNL     1       4.416  31.570  59.264  1.00  0.00    -0.212 F 
HETATM   27  F   UNL     1       6.021  33.007  58.972  1.00  0.00    -0.212 F 
ENDBRANCH  24  25
ENDBRANCH  23  24
ENDBRANCH  18  23
ENDBRANCH   2  17
TORSDOF 6
ENDMDL
