MODEL 1
REMARK VINA RESULT:      -8.9      0.000      0.000
REMARK  8 active torsions:
REMARK  status: ('A' for Active; 'I' for Inactive)
REMARK    1  A    between atoms: O_2  and  C_3 
REMARK    2  A    between atoms: C_4  and  N_5 
REMARK    3  A    between atoms: N_5  and  C_6 
REMARK    4  A    between atoms: C_6  and  C_7 
REMARK       I    between atoms: C_7  and  N_8 
REMARK    5  A    between atoms: N_8  and  N_9 
REMARK    6  A    between atoms: N_9  and  C_10 
REMARK    7  A    between atoms: C_10  and  C_11 
REMARK       I    between atoms: C_11  and  N_12 
REMARK    8  A    between atoms: N_12  and  C_13 
ROOT
HETATM    1  C   UNL     1       6.763  29.854  57.538  1.00  0.00     0.245 C 
HETATM    2  N   UNL     1       7.306  28.883  58.377  1.00  0.00    -0.290 N 
HETATM    3  O   UNL     1       6.832  29.827  56.308  1.00  0.00    -0.271 OA
HETATM    4  H   UNL     1       7.410  29.102  59.367  1.00  0.00     0.183 HD
ENDROOT
BRANCH   2   5
HETATM    5  N   UNL     1       7.993  27.774  57.824  1.00  0.00    -0.229 NA
HETATM    6  H   UNL     1       8.320  28.021  56.885  1.00  0.00     0.147 HD
BRANCH   5   7
HETATM    7  C   UNL     1       7.101  26.600  57.727  1.00  0.00     0.213 C 
BRANCH   7   8
HETATM    8  C   UNL     1       7.819  25.463  56.997  1.00  0.00     0.236 C 
HETATM    9  N   UNL     1       7.009  24.827  56.068  1.00  0.00    -0.326 N 
HETATM   10  H   UNL     1       6.049  25.168  56.038  1.00  0.00     0.169 HD
HETATM   11  O   UNL     1       8.998  25.208  57.234  1.00  0.00    -0.272 OA
BRANCH   9  12
HETATM   12  C   UNL     1       7.352  23.760  55.214  1.00  0.00     0.036 A 
HETATM   13  C   UNL     1       7.700  22.482  55.664  1.00  0.00     0.056 A 
HETATM   14  C   UNL     1       8.023  21.475  54.748  1.00  0.00     0.074 A 
HETATM   15 CL   UNL     1       8.446  19.907  55.324  1.00  0.00    -0.081 Cl
HETATM   16  C   UNL     1       7.999  21.742  53.383  1.00  0.00     0.138 A 
HETATM   17  F   UNL     1       8.303  20.788  52.490  1.00  0.00    -0.204 F 
HETATM   18  C   UNL     1       7.656  23.006  52.920  1.00  0.00     0.046 A 
HETATM   19  C   UNL     1       7.334  24.014  53.834  1.00  0.00     0.032 A 
ENDBRANCH   9  12
ENDBRANCH   7   8
ENDBRANCH   5   7
ENDBRANCH   2   5
BRANCH   1  20
HETATM   20  C   UNL     1       6.124  31.029  58.291  1.00  0.00     0.196 C 
BRANCH  20  21
HETATM   21  N   UNL     1       7.112  32.116  58.419  1.00  0.00    -0.282 NA
HETATM   22  H   UNL     1       6.624  33.009  58.328  1.00  0.00     0.128 HD
BRANCH  21  23
HETATM   23  C   UNL     1       7.743  32.076  59.694  1.00  0.00     0.042 A 
HETATM   24  C   UNL     1       9.147  32.116  59.837  1.00  0.00     0.089 A 
HETATM   25  C   UNL     1       9.713  31.998  61.113  1.00  0.00     0.038 A 
HETATM   26  C   UNL     1       8.901  31.834  62.238  1.00  0.00     0.003 A 
HETATM   27  C   UNL     1       7.519  31.776  62.099  1.00  0.00     0.002 A 
HETATM   28  C   UNL     1       6.944  31.891  60.835  1.00  0.00     0.026 A 
BRANCH  24  29
HETATM   29  O   UNL     1       9.885  32.259  58.685  1.00  0.00    -0.354 OA
HETATM   30  C   UNL     1      10.314  31.050  58.066  1.00  0.00     0.210 C 
ENDBRANCH  24  29
ENDBRANCH  21  23
ENDBRANCH  20  21
ENDBRANCH   1  20
TORSDOF 8
ENDMDL
MODEL 2
REMARK VINA RESULT:      -8.8      5.059     10.433
REMARK  8 active torsions:
REMARK  status: ('A' for Active; 'I' for Inactive)
REMARK    1  A    between atoms: O_2  and  C_3 
REMARK    2  A    between atoms: C_4  and  N_5 
REMARK    3  A    between atoms: N_5  and  C_6 
REMARK    4  A    between atoms: C_6  and  C_7 
REMARK       I    between atoms: C_7  and  N_8 
REMARK    5  A    between atoms: N_8  and  N_9 
REMARK    6  A    between atoms: N_9  and  C_10 
REMARK    7  A    between atoms: C_10  and  C_11 
REMARK       I    between atoms: C_11  and  N_12 
REMARK    8  A    between atoms: N_12  and  C_13 
ROOT
HETATM    1  C   UNL     1       7.288  27.025  57.527  1.00  0.00     0.245 C 
HETATM    2  N   UNL     1       7.187  28.396  57.754  1.00  0.00    -0.290 N 
HETATM    3  O   UNL     1       7.937  26.250  58.232  1.00  0.00    -0.271 OA
HETATM    4  H   UNL     1       6.834  28.986  57.001  1.00  0.00     0.183 HD
ENDROOT
BRANCH   2   5
HETATM    5  N   UNL     1       7.859  28.983  58.854  1.00  0.00    -0.229 NA
HETATM    6  H   UNL     1       7.166  29.258  59.557  1.00  0.00     0.147 HD
BRANCH   5   7
HETATM    7  C   UNL     1       8.612  30.181  58.430  1.00  0.00     0.213 C 
BRANCH   7   8
HETATM    8  C   UNL     1       8.381  31.319  59.427  1.00  0.00     0.236 C 
HETATM    9  N   UNL     1       7.666  30.917  60.544  1.00  0.00    -0.326 N 
HETATM   10  H   UNL     1       7.354  29.946  60.522  1.00  0.00     0.169 HD
HETATM   11  O   UNL     1       8.834  32.442  59.215  1.00  0.00    -0.272 OA
BRANCH   9  12
HETATM   12  C   UNL     1       7.297  31.697  61.658  1.00  0.00     0.036 A 
HETATM   13  C   UNL     1       6.011  32.212  61.858  1.00  0.00     0.056 A 
HETATM   14  C   UNL     1       5.726  32.974  62.995  1.00  0.00     0.074 A 
HETATM   15 CL   UNL     1       4.135  33.596  63.223  1.00  0.00    -0.081 Cl
HETATM   16  C   UNL     1       6.721  33.224  63.934  1.00  0.00     0.138 A 
HETATM   17  F   UNL     1       6.465  33.951  65.032  1.00  0.00    -0.204 F 
HETATM   18  C   UNL     1       8.003  32.721  63.750  1.00  0.00     0.046 A 
HETATM   19  C   UNL     1       8.290  31.959  62.613  1.00  0.00     0.032 A 
ENDBRANCH   9  12
ENDBRANCH   7   8
ENDBRANCH   5   7
ENDBRANCH   2   5
BRANCH   1  20
HETATM   20  C   UNL     1       6.571  26.558  56.254  1.00  0.00     0.196 C 
BRANCH  20  21
HETATM   21  N   UNL     1       6.281  25.116  56.363  1.00  0.00    -0.282 NA
HETATM   22  H   UNL     1       5.268  24.992  56.407  1.00  0.00     0.128 HD
BRANCH  21  23
HETATM   23  C   UNL     1       6.771  24.417  55.224  1.00  0.00     0.042 A 
HETATM   24  C   UNL     1       7.684  23.346  55.338  1.00  0.00     0.089 A 
HETATM   25  C   UNL     1       8.188  22.744  54.178  1.00  0.00     0.038 A 
HETATM   26  C   UNL     1       7.802  23.200  52.915  1.00  0.00     0.003 A 
HETATM   27  C   UNL     1       6.916  24.266  52.799  1.00  0.00     0.002 A 
HETATM   28  C   UNL     1       6.409  24.873  53.946  1.00  0.00     0.026 A 
BRANCH  24  29
HETATM   29  O   UNL     1       8.037  22.963  56.612  1.00  0.00    -0.354 OA
HETATM   30  C   UNL     1       8.401  21.596  56.773  1.00  0.00     0.210 C 
ENDBRANCH  24  29
ENDBRANCH  21  23
ENDBRANCH  20  21
ENDBRANCH   1  20
TORSDOF 8
ENDMDL
MODEL 3
REMARK VINA RESULT:      -8.7      2.976      4.215
REMARK  8 active torsions:
REMARK  status: ('A' for Active; 'I' for Inactive)
REMARK    1  A    between atoms: O_2  and  C_3 
REMARK    2  A    between atoms: C_4  and  N_5 
REMARK    3  A    between atoms: N_5  and  C_6 
REMARK    4  A    between atoms: C_6  and  C_7 
REMARK       I    between atoms: C_7  and  N_8 
REMARK    5  A    between atoms: N_8  and  N_9 
REMARK    6  A    between atoms: N_9  and  C_10 
REMARK    7  A    between atoms: C_10  and  C_11 
REMARK       I    between atoms: C_11  and  N_12 
REMARK    8  A    between atoms: N_12  and  C_13 
ROOT
HETATM    1  C   UNL     1       8.204  31.881  60.086  1.00  0.00     0.245 C 
HETATM    2  N   UNL     1       7.862  30.532  60.144  1.00  0.00    -0.290 N 
HETATM    3  O   UNL     1       8.992  32.364  59.271  1.00  0.00    -0.271 OA
HETATM    4  H   UNL     1       7.397  30.186  60.983  1.00  0.00     0.183 HD
ENDROOT
BRANCH   2   5
HETATM    5  N   UNL     1       8.433  29.616  59.227  1.00  0.00    -0.229 NA
HETATM    6  H   UNL     1       9.313  30.006  58.874  1.00  0.00     0.147 HD
BRANCH   5   7
HETATM    7  C   UNL     1       7.524  29.379  58.087  1.00  0.00     0.213 C 
BRANCH   7   8
HETATM    8  C   UNL     1       8.038  28.208  57.247  1.00  0.00     0.236 C 
HETATM    9  N   UNL     1       7.018  27.391  56.785  1.00  0.00    -0.326 N 
HETATM   10  H   UNL     1       6.087  27.652  57.106  1.00  0.00     0.169 HD
HETATM   11  O   UNL     1       9.239  28.077  57.020  1.00  0.00    -0.272 OA
BRANCH   9  12
HETATM   12  C   UNL     1       7.133  26.244  55.974  1.00  0.00     0.036 A 
HETATM   13  C   UNL     1       7.462  26.280  54.615  1.00  0.00     0.056 A 
HETATM   14  C   UNL     1       7.561  25.093  53.881  1.00  0.00     0.074 A 
HETATM   15 CL   UNL     1       7.971  25.161  52.209  1.00  0.00    -0.081 Cl
HETATM   16  C   UNL     1       7.330  23.870  54.501  1.00  0.00     0.138 A 
HETATM   17  F   UNL     1       7.422  22.721  53.814  1.00  0.00    -0.204 F 
HETATM   18  C   UNL     1       7.001  23.817  55.850  1.00  0.00     0.046 A 
HETATM   19  C   UNL     1       6.902  25.002  56.585  1.00  0.00     0.032 A 
ENDBRANCH   9  12
ENDBRANCH   7   8
ENDBRANCH   5   7
ENDBRANCH   2   5
BRANCH   1  20
HETATM   20  C   UNL     1       7.564  32.726  61.196  1.00  0.00     0.196 C 
BRANCH  20  21
HETATM   21  N   UNL     1       6.825  31.839  62.114  1.00  0.00    -0.282 NA
HETATM   22  H   UNL     1       7.411  31.027  62.322  1.00  0.00     0.128 HD
BRANCH  21  23
HETATM   23  C   UNL     1       6.534  32.509  63.336  1.00  0.00     0.042 A 
HETATM   24  C   UNL     1       5.210  32.737  63.768  1.00  0.00     0.089 A 
HETATM   25  C   UNL     1       4.985  33.467  64.943  1.00  0.00     0.038 A 
HETATM   26  C   UNL     1       6.057  33.975  65.680  1.00  0.00     0.003 A 
HETATM   27  C   UNL     1       7.362  33.767  65.248  1.00  0.00     0.002 A 
HETATM   28  C   UNL     1       7.599  33.044  64.080  1.00  0.00     0.026 A 
BRANCH  24  29
HETATM   29  O   UNL     1       4.203  32.226  62.982  1.00  0.00    -0.354 OA
HETATM   30  C   UNL     1       3.507  33.167  62.171  1.00  0.00     0.210 C 
ENDBRANCH  24  29
ENDBRANCH  21  23
ENDBRANCH  20  21
ENDBRANCH   1  20
TORSDOF 8
ENDMDL
MODEL 4
REMARK VINA RESULT:      -8.7      5.185     10.495
REMARK  8 active torsions:
REMARK  status: ('A' for Active; 'I' for Inactive)
REMARK    1  A    between atoms: O_2  and  C_3 
REMARK    2  A    between atoms: C_4  and  N_5 
REMARK    3  A    between atoms: N_5  and  C_6 
REMARK    4  A    between atoms: C_6  and  C_7 
REMARK       I    between atoms: C_7  and  N_8 
REMARK    5  A    between atoms: N_8  and  N_9 
REMARK    6  A    between atoms: N_9  and  C_10 
REMARK    7  A    between atoms: C_10  and  C_11 
REMARK       I    between atoms: C_11  and  N_12 
REMARK    8  A    between atoms: N_12  and  C_13 
ROOT
HETATM    1  C   UNL     1       7.430  27.299  57.458  1.00  0.00     0.245 C 
HETATM    2  N   UNL     1       7.468  28.669  57.706  1.00  0.00    -0.290 N 
HETATM    3  O   UNL     1       7.751  26.436  58.276  1.00  0.00    -0.271 OA
HETATM    4  H   UNL     1       7.416  29.307  56.912  1.00  0.00     0.183 HD
ENDROOT
BRANCH   2   5
HETATM    5  N   UNL     1       7.899  29.149  58.967  1.00  0.00    -0.229 NA
HETATM    6  H   UNL     1       7.085  29.491  59.487  1.00  0.00     0.147 HD
BRANCH   5   7
HETATM    7  C   UNL     1       8.864  30.255  58.806  1.00  0.00     0.213 C 
BRANCH   7   8
HETATM    8  C   UNL     1       8.490  31.411  59.736  1.00  0.00     0.236 C 
HETATM    9  N   UNL     1       7.788  30.993  60.856  1.00  0.00    -0.326 N 
HETATM   10  H   UNL     1       7.579  29.995  60.878  1.00  0.00     0.169 HD
HETATM   11  O   UNL     1       8.829  32.563  59.475  1.00  0.00    -0.272 OA
BRANCH   9  12
HETATM   12  C   UNL     1       7.309  31.785  61.919  1.00  0.00     0.036 A 
HETATM   13  C   UNL     1       5.978  32.196  62.046  1.00  0.00     0.056 A 
HETATM   14  C   UNL     1       5.582  32.979  63.136  1.00  0.00     0.074 A 
HETATM   15 CL   UNL     1       3.937  33.471  63.275  1.00  0.00    -0.081 Cl
HETATM   16  C   UNL     1       6.514  33.353  64.099  1.00  0.00     0.138 A 
HETATM   17  F   UNL     1       6.152  34.101  65.152  1.00  0.00    -0.204 F 
HETATM   18  C   UNL     1       7.840  32.954  63.987  1.00  0.00     0.046 A 
HETATM   19  C   UNL     1       8.237  32.171  62.898  1.00  0.00     0.032 A 
ENDBRANCH   9  12
ENDBRANCH   7   8
ENDBRANCH   5   7
ENDBRANCH   2   5
BRANCH   1  20
HETATM   20  C   UNL     1       7.020  26.945  56.023  1.00  0.00     0.196 C 
BRANCH  20  21
HETATM   21  N   UNL     1       6.294  25.662  56.029  1.00  0.00    -0.282 NA
HETATM   22  H   UNL     1       5.351  25.821  55.667  1.00  0.00     0.128 HD
BRANCH  21  23
HETATM   23  C   UNL     1       6.943  24.712  55.192  1.00  0.00     0.042 A 
HETATM   24  C   UNL     1       6.430  24.355  53.926  1.00  0.00     0.089 A 
HETATM   25  C   UNL     1       7.073  23.359  53.178  1.00  0.00     0.038 A 
HETATM   26  C   UNL     1       8.207  22.715  53.679  1.00  0.00     0.003 A 
HETATM   27  C   UNL     1       8.704  23.052  54.933  1.00  0.00     0.002 A 
HETATM   28  C   UNL     1       8.073  24.040  55.686  1.00  0.00     0.026 A 
BRANCH  24  29
HETATM   29  O   UNL     1       5.299  25.015  53.505  1.00  0.00    -0.354 OA
HETATM   30  C   UNL     1       5.107  25.086  52.096  1.00  0.00     0.210 C 
ENDBRANCH  24  29
ENDBRANCH  21  23
ENDBRANCH  20  21
ENDBRANCH   1  20
TORSDOF 8
ENDMDL
MODEL 5
REMARK VINA RESULT:      -8.7      2.243      3.169
REMARK  8 active torsions:
REMARK  status: ('A' for Active; 'I' for Inactive)
REMARK    1  A    between atoms: O_2  and  C_3 
REMARK    2  A    between atoms: C_4  and  N_5 
REMARK    3  A    between atoms: N_5  and  C_6 
REMARK    4  A    between atoms: C_6  and  C_7 
REMARK       I    between atoms: C_7  and  N_8 
REMARK    5  A    between atoms: N_8  and  N_9 
REMARK    6  A    between atoms: N_9  and  C_10 
REMARK    7  A    between atoms: C_10  and  C_11 
REMARK       I    between atoms: C_11  and  N_12 
REMARK    8  A    between atoms: N_12  and  C_13 
ROOT
HETATM    1  C   UNL     1       8.116  30.529  59.690  1.00  0.00     0.245 C 
HETATM    2  N   UNL     1       7.509  29.818  58.657  1.00  0.00    -0.290 N 
HETATM    3  O   UNL     1       9.090  30.128  60.330  1.00  0.00    -0.271 OA
HETATM    4  H   UNL     1       6.582  30.111  58.349  1.00  0.00     0.183 HD
ENDROOT
BRANCH   2   5
HETATM    5  N   UNL     1       8.007  28.546  58.284  1.00  0.00    -0.229 NA
HETATM    6  H   UNL     1       8.859  28.673  57.730  1.00  0.00     0.147 HD
BRANCH   5   7
HETATM    7  C   UNL     1       7.014  27.811  57.475  1.00  0.00     0.213 C 
BRANCH   7   8
HETATM    8  C   UNL     1       7.620  26.496  56.978  1.00  0.00     0.236 C 
HETATM    9  N   UNL     1       6.980  26.002  55.852  1.00  0.00    -0.326 N 
HETATM   10  H   UNL     1       6.176  26.549  55.547  1.00  0.00     0.169 HD
HETATM   11  O   UNL     1       8.589  25.997  57.546  1.00  0.00    -0.272 OA
BRANCH   9  12
HETATM   12  C   UNL     1       7.289  24.833  55.129  1.00  0.00     0.036 A 
HETATM   13  C   UNL     1       7.279  23.548  55.682  1.00  0.00     0.056 A 
HETATM   14  C   UNL     1       7.594  22.437  54.892  1.00  0.00     0.074 A 
HETATM   15 CL   UNL     1       7.572  20.863  55.594  1.00  0.00    -0.081 Cl
HETATM   16  C   UNL     1       7.920  22.606  53.551  1.00  0.00     0.138 A 
HETATM   17  F   UNL     1       8.223  21.553  52.778  1.00  0.00    -0.204 F 
HETATM   18  C   UNL     1       7.937  23.876  52.987  1.00  0.00     0.046 A 
HETATM   19  C   UNL     1       7.622  24.987  53.775  1.00  0.00     0.032 A 
ENDBRANCH   9  12
ENDBRANCH   7   8
ENDBRANCH   5   7
ENDBRANCH   2   5
BRANCH   1  20
HETATM   20  C   UNL     1       7.411  31.849  60.026  1.00  0.00     0.196 C 
BRANCH  20  21
HETATM   21  N   UNL     1       6.280  31.577  60.931  1.00  0.00    -0.282 NA
HETATM   22  H   UNL     1       6.254  30.573  61.125  1.00  0.00     0.128 HD
BRANCH  21  23
HETATM   23  C   UNL     1       6.444  32.269  62.165  1.00  0.00     0.042 A 
HETATM   24  C   UNL     1       5.422  33.074  62.713  1.00  0.00     0.089 A 
HETATM   25  C   UNL     1       5.668  33.790  63.892  1.00  0.00     0.038 A 
HETATM   26  C   UNL     1       6.914  33.718  64.521  1.00  0.00     0.003 A 
HETATM   27  C   UNL     1       7.928  32.939  63.974  1.00  0.00     0.002 A 
HETATM   28  C   UNL     1       7.696  32.224  62.801  1.00  0.00     0.026 A 
BRANCH  24  29
HETATM   29  O   UNL     1       4.229  33.115  62.030  1.00  0.00    -0.354 OA
HETATM   30  C   UNL     1       3.136  33.714  62.720  1.00  0.00     0.210 C 
ENDBRANCH  24  29
ENDBRANCH  21  23
ENDBRANCH  20  21
ENDBRANCH   1  20
TORSDOF 8
ENDMDL
MODEL 6
REMARK VINA RESULT:      -8.6      2.118      3.569
REMARK  8 active torsions:
REMARK  status: ('A' for Active; 'I' for Inactive)
REMARK    1  A    between atoms: O_2  and  C_3 
REMARK    2  A    between atoms: C_4  and  N_5 
REMARK    3  A    between atoms: N_5  and  C_6 
REMARK    4  A    between atoms: C_6  and  C_7 
REMARK       I    between atoms: C_7  and  N_8 
REMARK    5  A    between atoms: N_8  and  N_9 
REMARK    6  A    between atoms: N_9  and  C_10 
REMARK    7  A    between atoms: C_10  and  C_11 
REMARK       I    between atoms: C_11  and  N_12 
REMARK    8  A    between atoms: N_12  and  C_13 
ROOT
HETATM    1  C   UNL     1       6.071  26.674  56.544  1.00  0.00     0.245 C 
HETATM    2  N   UNL     1       5.808  27.433  55.406  1.00  0.00    -0.290 N 
HETATM    3  O   UNL     1       5.558  25.579  56.783  1.00  0.00    -0.271 OA
HETATM    4  H   UNL     1       6.086  28.414  55.403  1.00  0.00     0.183 HD
ENDROOT
BRANCH   2   5
HETATM    5  N   UNL     1       4.899  26.955  54.430  1.00  0.00    -0.229 NA
HETATM    6  H   UNL     1       4.453  26.102  54.783  1.00  0.00     0.147 HD
BRANCH   5   7
HETATM    7  C   UNL     1       5.599  26.644  53.168  1.00  0.00     0.213 C 
BRANCH   7   8
HETATM    8  C   UNL     1       6.738  25.657  53.435  1.00  0.00     0.236 C 
HETATM    9  N   UNL     1       6.284  24.394  53.781  1.00  0.00    -0.326 N 
HETATM   10  H   UNL     1       5.270  24.314  53.858  1.00  0.00     0.169 HD
HETATM   11  O   UNL     1       7.911  26.003  53.310  1.00  0.00    -0.272 OA
BRANCH   9  12
HETATM   12  C   UNL     1       7.055  23.251  54.072  1.00  0.00     0.036 A 
HETATM   13  C   UNL     1       7.319  22.799  55.369  1.00  0.00     0.056 A 
HETATM   14  C   UNL     1       8.091  21.650  55.571  1.00  0.00     0.074 A 
HETATM   15 CL   UNL     1       8.402  21.108  57.177  1.00  0.00    -0.081 Cl
HETATM   16  C   UNL     1       8.600  20.951  54.481  1.00  0.00     0.138 A 
HETATM   17  F   UNL     1       9.340  19.846  54.656  1.00  0.00    -0.204 F 
HETATM   18  C   UNL     1       8.348  21.388  53.187  1.00  0.00     0.046 A 
HETATM   19  C   UNL     1       7.576  22.537  52.983  1.00  0.00     0.032 A 
ENDBRANCH   9  12
ENDBRANCH   7   8
ENDBRANCH   5   7
ENDBRANCH   2   5
BRANCH   1  20
HETATM   20  C   UNL     1       7.013  27.364  57.539  1.00  0.00     0.196 C 
BRANCH  20  21
HETATM   21  N   UNL     1       6.968  28.822  57.317  1.00  0.00    -0.282 NA
HETATM   22  H   UNL     1       6.391  29.243  58.048  1.00  0.00     0.128 HD
BRANCH  21  23
HETATM   23  C   UNL     1       8.273  29.383  57.394  1.00  0.00     0.042 A 
HETATM   24  C   UNL     1       8.653  30.257  58.436  1.00  0.00     0.089 A 
HETATM   25  C   UNL     1       9.928  30.837  58.418  1.00  0.00     0.038 A 
HETATM   26  C   UNL     1      10.819  30.564  57.377  1.00  0.00     0.003 A 
HETATM   27  C   UNL     1      10.442  29.717  56.340  1.00  0.00     0.002 A 
HETATM   28  C   UNL     1       9.176  29.135  56.346  1.00  0.00     0.026 A 
BRANCH  24  29
HETATM   29  O   UNL     1       7.719  30.497  59.417  1.00  0.00    -0.354 OA
HETATM   30  C   UNL     1       7.256  31.840  59.521  1.00  0.00     0.210 C 
ENDBRANCH  24  29
ENDBRANCH  21  23
ENDBRANCH  20  21
ENDBRANCH   1  20
TORSDOF 8
ENDMDL
MODEL 7
REMARK VINA RESULT:      -8.5      2.140      2.693
REMARK  8 active torsions:
REMARK  status: ('A' for Active; 'I' for Inactive)
REMARK    1  A    between atoms: O_2  and  C_3 
REMARK    2  A    between atoms: C_4  and  N_5 
REMARK    3  A    between atoms: N_5  and  C_6 
REMARK    4  A    between atoms: C_6  and  C_7 
REMARK       I    between atoms: C_7  and  N_8 
REMARK    5  A    between atoms: N_8  and  N_9 
REMARK    6  A    between atoms: N_9  and  C_10 
REMARK    7  A    between atoms: C_10  and  C_11 
REMARK       I    between atoms: C_11  and  N_12 
REMARK    8  A    between atoms: N_12  and  C_13 
ROOT
HETATM    1  C   UNL     1       7.974  28.349  56.795  1.00  0.00     0.245 C 
HETATM    2  N   UNL     1       7.759  29.115  55.652  1.00  0.00    -0.290 N 
HETATM    3  O   UNL     1       8.374  27.183  56.785  1.00  0.00    -0.271 OA
HETATM    4  H   UNL     1       7.211  29.971  55.739  1.00  0.00     0.183 HD
ENDROOT
BRANCH   2   5
HETATM    5  N   UNL     1       8.002  28.561  54.372  1.00  0.00    -0.229 NA
HETATM    6  H   UNL     1       8.504  29.249  53.802  1.00  0.00     0.147 HD
BRANCH   5   7
HETATM    7  C   UNL     1       6.733  28.217  53.699  1.00  0.00     0.213 C 
BRANCH   7   8
HETATM    8  C   UNL     1       6.475  26.713  53.812  1.00  0.00     0.236 C 
HETATM    9  N   UNL     1       7.644  25.975  53.919  1.00  0.00    -0.326 N 
HETATM   10  H   UNL     1       8.500  26.525  53.857  1.00  0.00     0.169 HD
HETATM   11  O   UNL     1       5.329  26.271  53.830  1.00  0.00    -0.272 OA
BRANCH   9  12
HETATM   12  C   UNL     1       7.773  24.579  54.058  1.00  0.00     0.036 A 
HETATM   13  C   UNL     1       7.979  23.933  55.282  1.00  0.00     0.056 A 
HETATM   14  C   UNL     1       8.092  22.540  55.334  1.00  0.00     0.074 A 
HETATM   15 CL   UNL     1       8.342  21.765  56.852  1.00  0.00    -0.081 Cl
HETATM   16  C   UNL     1       7.999  21.789  54.167  1.00  0.00     0.138 A 
HETATM   17  F   UNL     1       8.103  20.452  54.198  1.00  0.00    -0.204 F 
HETATM   18  C   UNL     1       7.796  22.415  52.943  1.00  0.00     0.046 A 
HETATM   19  C   UNL     1       7.684  23.808  52.889  1.00  0.00     0.032 A 
ENDBRANCH   9  12
ENDBRANCH   7   8
ENDBRANCH   5   7
ENDBRANCH   2   5
BRANCH   1  20
HETATM   20  C   UNL     1       7.589  29.064  58.097  1.00  0.00     0.196 C 
BRANCH  20  21
HETATM   21  N   UNL     1       8.082  30.453  58.050  1.00  0.00    -0.282 NA
HETATM   22  H   UNL     1       7.434  31.008  57.488  1.00  0.00     0.128 HD
BRANCH  21  23
HETATM   23  C   UNL     1       8.137  31.012  59.358  1.00  0.00     0.042 A 
HETATM   24  C   UNL     1       7.344  32.118  59.733  1.00  0.00     0.089 A 
HETATM   25  C   UNL     1       7.495  32.672  61.011  1.00  0.00     0.038 A 
HETATM   26  C   UNL     1       8.427  32.144  61.909  1.00  0.00     0.003 A 
HETATM   27  C   UNL     1       9.222  31.065  61.536  1.00  0.00     0.002 A 
HETATM   28  C   UNL     1       9.081  30.507  60.267  1.00  0.00     0.026 A 
BRANCH  24  29
HETATM   29  O   UNL     1       6.463  32.599  58.792  1.00  0.00    -0.354 OA
HETATM   30  C   UNL     1       5.088  32.311  59.021  1.00  0.00     0.210 C 
ENDBRANCH  24  29
ENDBRANCH  21  23
ENDBRANCH  20  21
ENDBRANCH   1  20
TORSDOF 8
ENDMDL
MODEL 8
REMARK VINA RESULT:      -8.5      4.899     10.452
REMARK  8 active torsions:
REMARK  status: ('A' for Active; 'I' for Inactive)
REMARK    1  A    between atoms: O_2  and  C_3 
REMARK    2  A    between atoms: C_4  and  N_5 
REMARK    3  A    between atoms: N_5  and  C_6 
REMARK    4  A    between atoms: C_6  and  C_7 
REMARK       I    between atoms: C_7  and  N_8 
REMARK    5  A    between atoms: N_8  and  N_9 
REMARK    6  A    between atoms: N_9  and  C_10 
REMARK    7  A    between atoms: C_10  and  C_11 
REMARK       I    between atoms: C_11  and  N_12 
REMARK    8  A    between atoms: N_12  and  C_13 
ROOT
HETATM    1  C   UNL     1       7.355  26.057  56.679  1.00  0.00     0.245 C 
HETATM    2  N   UNL     1       8.252  26.827  57.416  1.00  0.00    -0.290 N 
HETATM    3  O   UNL     1       6.162  26.329  56.532  1.00  0.00    -0.271 OA
HETATM    4  H   UNL     1       9.145  26.411  57.679  1.00  0.00     0.183 HD
ENDROOT
BRANCH   2   5
HETATM    5  N   UNL     1       7.809  28.010  58.057  1.00  0.00    -0.229 NA
HETATM    6  H   UNL     1       6.792  28.085  57.949  1.00  0.00     0.147 HD
BRANCH   5   7
HETATM    7  C   UNL     1       8.443  29.201  57.458  1.00  0.00     0.213 C 
BRANCH   7   8
HETATM    8  C   UNL     1       8.782  30.216  58.553  1.00  0.00     0.236 C 
HETATM    9  N   UNL     1       7.780  30.333  59.504  1.00  0.00    -0.326 N 
HETATM   10  H   UNL     1       6.949  29.773  59.316  1.00  0.00     0.169 HD
HETATM   11  O   UNL     1       9.858  30.810  58.548  1.00  0.00    -0.272 OA
BRANCH   9  12
HETATM   12  C   UNL     1       7.771  31.154  60.649  1.00  0.00     0.036 A 
HETATM   13  C   UNL     1       6.974  32.296  60.783  1.00  0.00     0.056 A 
HETATM   14  C   UNL     1       7.021  33.054  61.958  1.00  0.00     0.074 A 
HETATM   15 CL   UNL     1       6.030  34.456  62.103  1.00  0.00    -0.081 Cl
HETATM   16  C   UNL     1       7.862  32.675  62.999  1.00  0.00     0.138 A 
HETATM   17  F   UNL     1       7.919  33.389  64.134  1.00  0.00    -0.204 F 
HETATM   18  C   UNL     1       8.660  31.544  62.881  1.00  0.00     0.046 A 
HETATM   19  C   UNL     1       8.615  30.785  61.708  1.00  0.00     0.032 A 
ENDBRANCH   9  12
ENDBRANCH   7   8
ENDBRANCH   5   7
ENDBRANCH   2   5
BRANCH   1  20
HETATM   20  C   UNL     1       7.969  24.769  56.115  1.00  0.00     0.196 C 
BRANCH  20  21
HETATM   21  N   UNL     1       6.886  23.851  55.717  1.00  0.00    -0.282 NA
HETATM   22  H   UNL     1       6.230  24.362  55.124  1.00  0.00     0.128 HD
BRANCH  21  23
HETATM   23  C   UNL     1       7.405  22.754  54.972  1.00  0.00     0.042 A 
HETATM   24  C   UNL     1       7.431  22.752  53.561  1.00  0.00     0.089 A 
HETATM   25  C   UNL     1       7.885  21.614  52.881  1.00  0.00     0.038 A 
HETATM   26  C   UNL     1       8.302  20.484  53.588  1.00  0.00     0.003 A 
HETATM   27  C   UNL     1       8.262  20.476  54.978  1.00  0.00     0.002 A 
HETATM   28  C   UNL     1       7.811  21.601  55.665  1.00  0.00     0.026 A 
BRANCH  24  29
HETATM   29  O   UNL     1       6.986  23.891  52.930  1.00  0.00    -0.354 OA
HETATM   30  C   UNL     1       7.989  24.697  52.318  1.00  0.00     0.210 C 
ENDBRANCH  24  29
ENDBRANCH  21  23
ENDBRANCH  20  21
ENDBRANCH   1  20
TORSDOF 8
ENDMDL
MODEL 9
REMARK VINA RESULT:      -8.5      4.131      8.672
REMARK  8 active torsions:
REMARK  status: ('A' for Active; 'I' for Inactive)
REMARK    1  A    between atoms: O_2  and  C_3 
REMARK    2  A    between atoms: C_4  and  N_5 
REMARK    3  A    between atoms: N_5  and  C_6 
REMARK    4  A    between atoms: C_6  and  C_7 
REMARK       I    between atoms: C_7  and  N_8 
REMARK    5  A    between atoms: N_8  and  N_9 
REMARK    6  A    between atoms: N_9  and  C_10 
REMARK    7  A    between atoms: C_10  and  C_11 
REMARK       I    between atoms: C_11  and  N_12 
REMARK    8  A    between atoms: N_12  and  C_13 
ROOT
HETATM    1  C   UNL     1       5.445  25.837  56.089  1.00  0.00     0.245 C 
HETATM    2  N   UNL     1       5.306  25.941  54.707  1.00  0.00    -0.290 N 
HETATM    3  O   UNL     1       5.017  26.665  56.895  1.00  0.00    -0.271 OA
HETATM    4  H   UNL     1       5.887  25.347  54.116  1.00  0.00     0.183 HD
ENDROOT
BRANCH   2   5
HETATM    5  N   UNL     1       4.636  27.055  54.144  1.00  0.00    -0.229 NA
HETATM    6  H   UNL     1       3.972  26.721  53.439  1.00  0.00     0.147 HD
BRANCH   5   7
HETATM    7  C   UNL     1       5.596  27.975  53.501  1.00  0.00     0.213 C 
BRANCH   7   8
HETATM    8  C   UNL     1       6.810  28.179  54.410  1.00  0.00     0.236 C 
HETATM    9  N   UNL     1       6.576  29.101  55.418  1.00  0.00    -0.326 N 
HETATM   10  H   UNL     1       5.659  29.545  55.383  1.00  0.00     0.169 HD
HETATM   11  O   UNL     1       7.845  27.540  54.230  1.00  0.00    -0.272 OA
BRANCH   9  12
HETATM   12  C   UNL     1       7.461  29.510  56.435  1.00  0.00     0.036 A 
HETATM   13  C   UNL     1       8.855  29.456  56.323  1.00  0.00     0.056 A 
HETATM   14  C   UNL     1       9.664  29.887  57.380  1.00  0.00     0.074 A 
HETATM   15 CL   UNL     1      11.378  29.814  57.220  1.00  0.00    -0.081 Cl
HETATM   16  C   UNL     1       9.086  30.371  58.548  1.00  0.00     0.138 A 
HETATM   17  F   UNL     1       9.846  30.791  59.570  1.00  0.00    -0.204 F 
HETATM   18  C   UNL     1       7.704  30.430  58.675  1.00  0.00     0.046 A 
HETATM   19  C   UNL     1       6.893  30.000  57.621  1.00  0.00     0.032 A 
ENDBRANCH   9  12
ENDBRANCH   7   8
ENDBRANCH   5   7
ENDBRANCH   2   5
BRANCH   1  20
HETATM   20  C   UNL     1       6.263  24.618  56.535  1.00  0.00     0.196 C 
BRANCH  20  21
HETATM   21  N   UNL     1       7.581  24.652  55.874  1.00  0.00    -0.282 NA
HETATM   22  H   UNL     1       8.305  24.663  56.596  1.00  0.00     0.128 HD
BRANCH  21  23
HETATM   23  C   UNL     1       7.769  23.495  55.066  1.00  0.00     0.042 A 
HETATM   24  C   UNL     1       7.912  23.575  53.664  1.00  0.00     0.089 A 
HETATM   25  C   UNL     1       8.020  22.397  52.914  1.00  0.00     0.038 A 
HETATM   26  C   UNL     1       7.979  21.149  53.541  1.00  0.00     0.003 A 
HETATM   27  C   UNL     1       7.820  21.066  54.920  1.00  0.00     0.002 A 
HETATM   28  C   UNL     1       7.711  22.231  55.677  1.00  0.00     0.026 A 
BRANCH  24  29
HETATM   29  O   UNL     1       7.923  24.835  53.112  1.00  0.00    -0.354 OA
HETATM   30  C   UNL     1       7.374  24.948  51.803  1.00  0.00     0.210 C 
ENDBRANCH  24  29
ENDBRANCH  21  23
ENDBRANCH  20  21
ENDBRANCH   1  20
TORSDOF 8
ENDMDL
MODEL 10
REMARK VINA RESULT:      -8.4      4.669      9.734
REMARK  8 active torsions:
REMARK  status: ('A' for Active; 'I' for Inactive)
REMARK    1  A    between atoms: O_2  and  C_3 
REMARK    2  A    between atoms: C_4  and  N_5 
REMARK    3  A    between atoms: N_5  and  C_6 
REMARK    4  A    between atoms: C_6  and  C_7 
REMARK       I    between atoms: C_7  and  N_8 
REMARK    5  A    between atoms: N_8  and  N_9 
REMARK    6  A    between atoms: N_9  and  C_10 
REMARK    7  A    between atoms: C_10  and  C_11 
REMARK       I    between atoms: C_11  and  N_12 
REMARK    8  A    between atoms: N_12  and  C_13 
ROOT
HETATM    1  C   UNL     1       6.466  27.056  54.995  1.00  0.00     0.245 C 
HETATM    2  N   UNL     1       7.179  28.188  54.607  1.00  0.00    -0.290 N 
HETATM    3  O   UNL     1       5.890  26.935  56.077  1.00  0.00    -0.271 OA
HETATM    4  H   UNL     1       7.812  28.112  53.811  1.00  0.00     0.183 HD
ENDROOT
BRANCH   2   5
HETATM    5  N   UNL     1       7.275  29.299  55.481  1.00  0.00    -0.229 NA
HETATM    6  H   UNL     1       7.202  30.160  54.931  1.00  0.00     0.147 HD
BRANCH   5   7
HETATM    7  C   UNL     1       8.569  29.294  56.194  1.00  0.00     0.213 C 
BRANCH   7   8
HETATM    8  C   UNL     1       8.333  29.439  57.699  1.00  0.00     0.236 C 
HETATM    9  N   UNL     1       8.593  30.719  58.162  1.00  0.00    -0.326 N 
HETATM   10  H   UNL     1       8.948  31.362  57.455  1.00  0.00     0.169 HD
HETATM   11  O   UNL     1       7.928  28.489  58.366  1.00  0.00    -0.272 OA
BRANCH   9  12
HETATM   12  C   UNL     1       8.462  31.203  59.479  1.00  0.00     0.036 A 
HETATM   13  C   UNL     1       7.383  31.974  59.922  1.00  0.00     0.056 A 
HETATM   14  C   UNL     1       7.326  32.411  61.250  1.00  0.00     0.074 A 
HETATM   15 CL   UNL     1       5.986  33.357  61.776  1.00  0.00    -0.081 Cl
HETATM   16  C   UNL     1       8.346  32.081  62.136  1.00  0.00     0.138 A 
HETATM   17  F   UNL     1       8.308  32.490  63.413  1.00  0.00    -0.204 F 
HETATM   18  C   UNL     1       9.426  31.317  61.711  1.00  0.00     0.046 A 
HETATM   19  C   UNL     1       9.484  30.879  60.384  1.00  0.00     0.032 A 
ENDBRANCH   9  12
ENDBRANCH   7   8
ENDBRANCH   5   7
ENDBRANCH   2   5
BRANCH   1  20
HETATM   20  C   UNL     1       6.524  25.913  53.973  1.00  0.00     0.196 C 
BRANCH  20  21
HETATM   21  N   UNL     1       7.873  25.318  53.988  1.00  0.00    -0.282 NA
HETATM   22  H   UNL     1       8.384  25.695  54.789  1.00  0.00     0.128 HD
BRANCH  21  23
HETATM   23  C   UNL     1       7.797  23.903  54.129  1.00  0.00     0.042 A 
HETATM   24  C   UNL     1       7.721  23.279  55.393  1.00  0.00     0.089 A 
HETATM   25  C   UNL     1       7.723  21.880  55.471  1.00  0.00     0.038 A 
HETATM   26  C   UNL     1       7.809  21.103  54.313  1.00  0.00     0.003 A 
HETATM   27  C   UNL     1       7.901  21.715  53.068  1.00  0.00     0.002 A 
HETATM   28  C   UNL     1       7.901  23.106  52.977  1.00  0.00     0.026 A 
BRANCH  24  29
HETATM   29  O   UNL     1       7.661  24.105  56.491  1.00  0.00    -0.354 OA
HETATM   30  C   UNL     1       8.838  24.166  57.290  1.00  0.00     0.210 C 
ENDBRANCH  24  29
ENDBRANCH  21  23
ENDBRANCH  20  21
ENDBRANCH   1  20
TORSDOF 8
ENDMDL
