MODEL 1
REMARK VINA RESULT:      -9.1      0.000      0.000
REMARK  8 active torsions:
REMARK  status: ('A' for Active; 'I' for Inactive)
REMARK    1  A    between atoms: C_2  and  N_3 
REMARK    2  A    between atoms: N_3  and  C_5 
REMARK    3  A    between atoms: N_3  and  C_30 
REMARK    4  A    between atoms: C_5  and  C_6 
REMARK    5  A    between atoms: C_6  and  N_7 
REMARK       I    between atoms: N_7  and  C_8 
REMARK    6  A    between atoms: C_8  and  C_9 
REMARK    7  A    between atoms: C_9  and  O_10 
REMARK    8  A    between atoms: N_11  and  C_12 
ROOT
HETATM    1  C   UNL     1       6.141  26.228  54.339  1.00  0.00     0.256 C 
HETATM    2  N   UNL     1       6.928  25.222  53.617  1.00  0.00    -0.254 N 
HETATM    3  C   UNL     1       7.518  25.608  52.415  1.00  0.00     0.330 C 
HETATM    4  O   UNL     1       8.501  25.097  51.884  1.00  0.00    -0.246 OA
HETATM    5  N   UNL     1       6.886  26.620  51.729  1.00  0.00    -0.308 N 
HETATM    6  C   UNL     1       5.673  27.196  52.106  1.00  0.00     0.048 A 
HETATM    7  C   UNL     1       5.231  27.001  53.414  1.00  0.00     0.034 A 
HETATM    8  C   UNL     1       4.953  27.978  51.207  1.00  0.00     0.030 A 
HETATM    9  C   UNL     1       3.754  28.560  51.616  1.00  0.00     0.002 A 
HETATM   10  C   UNL     1       3.291  28.368  52.918  1.00  0.00     0.001 A 
HETATM   11  C   UNL     1       4.029  27.597  53.818  1.00  0.00     0.015 A 
HETATM   12  H   UNL     1       7.228  26.744  50.782  1.00  0.00     0.170 HD
ENDROOT
BRANCH   1  13
HETATM   13  C   UNL     1       7.178  27.194  55.075  1.00  0.00     0.279 C 
HETATM   14  N   UNL     1       7.319  27.091  56.450  1.00  0.00    -0.355 N 
HETATM   15  H   UNL     1       6.876  26.305  56.917  1.00  0.00     0.162 HD
HETATM   16  O   UNL     1       7.805  28.066  54.463  1.00  0.00    -0.268 OA
BRANCH  14  17
HETATM   17  C   UNL     1       8.364  27.808  57.153  1.00  0.00     0.150 C 
BRANCH  17  18
HETATM   18  C   UNL     1       7.880  29.114  57.810  1.00  0.00     0.254 C 
BRANCH  18  19
HETATM   19  N   UNL     1       8.904  30.247  57.749  1.00  0.00    -0.070 N 
HETATM   20  H   UNL     1       8.374  31.063  57.411  1.00  0.00     0.279 HD
BRANCH  19  21
HETATM   21  C   UNL     1      10.011  30.036  56.726  1.00  0.00     0.230 C 
HETATM   22  C   UNL     1      11.381  30.017  57.375  1.00  0.00     0.034 C 
ENDBRANCH  19  21
BRANCH  19  23
HETATM   23  C   UNL     1       9.489  30.665  59.087  1.00  0.00     0.230 C 
HETATM   24  C   UNL     1       8.927  31.994  59.555  1.00  0.00     0.034 C 
ENDBRANCH  19  23
ENDBRANCH  18  19
ENDBRANCH  17  18
ENDBRANCH  14  17
ENDBRANCH   1  13
BRANCH   1  25
HETATM   25  O   UNL     1       5.345  25.661  55.380  1.00  0.00    -0.359 OA
HETATM   26  H   UNL     1       5.122  24.762  55.070  1.00  0.00     0.213 HD
ENDBRANCH   1  25
BRANCH   2  27
HETATM   27  C   UNL     1       7.196  23.929  54.172  1.00  0.00     0.043 A 
HETATM   28  C   UNL     1       7.445  22.839  53.325  1.00  0.00     0.037 A 
HETATM   29  C   UNL     1       7.786  21.568  53.823  1.00  0.00    -0.054 A 
HETATM   30  C   UNL     1       8.067  20.451  52.855  1.00  0.00     0.049 C 
HETATM   31  C   UNL     1       7.881  21.379  55.212  1.00  0.00    -0.056 A 
HETATM   32  C   UNL     1       8.291  20.057  55.803  1.00  0.00     0.049 C 
HETATM   33  C   UNL     1       7.660  22.472  56.061  1.00  0.00     0.009 A 
HETATM   34  C   UNL     1       7.328  23.730  55.547  1.00  0.00     0.030 A 
ENDBRANCH   2  27
TORSDOF 8
ENDMDL
MODEL 2
REMARK VINA RESULT:      -9.1      1.930      6.425
REMARK  8 active torsions:
REMARK  status: ('A' for Active; 'I' for Inactive)
REMARK    1  A    between atoms: C_2  and  N_3 
REMARK    2  A    between atoms: N_3  and  C_5 
REMARK    3  A    between atoms: N_3  and  C_30 
REMARK    4  A    between atoms: C_5  and  C_6 
REMARK    5  A    between atoms: C_6  and  N_7 
REMARK       I    between atoms: N_7  and  C_8 
REMARK    6  A    between atoms: C_8  and  C_9 
REMARK    7  A    between atoms: C_9  and  O_10 
REMARK    8  A    between atoms: N_11  and  C_12 
ROOT
HETATM    1  C   UNL     1       7.255  26.890  54.648  1.00  0.00     0.256 C 
HETATM    2  N   UNL     1       6.895  25.596  55.241  1.00  0.00    -0.254 N 
HETATM    3  C   UNL     1       6.045  25.609  56.345  1.00  0.00     0.330 C 
HETATM    4  O   UNL     1       5.321  24.691  56.722  1.00  0.00    -0.246 OA
HETATM    5  N   UNL     1       6.081  26.744  57.123  1.00  0.00    -0.308 N 
HETATM    6  C   UNL     1       6.962  27.808  56.932  1.00  0.00     0.048 A 
HETATM    7  C   UNL     1       7.611  27.912  55.702  1.00  0.00     0.034 A 
HETATM    8  C   UNL     1       7.148  28.759  57.931  1.00  0.00     0.030 A 
HETATM    9  C   UNL     1       8.019  29.824  57.707  1.00  0.00     0.002 A 
HETATM   10  C   UNL     1       8.684  29.939  56.486  1.00  0.00     0.001 A 
HETATM   11  C   UNL     1       8.477  28.991  55.482  1.00  0.00     0.015 A 
HETATM   12  H   UNL     1       5.598  26.644  58.010  1.00  0.00     0.170 HD
ENDROOT
BRANCH   1  13
HETATM   13  C   UNL     1       6.007  27.367  53.774  1.00  0.00     0.279 C 
HETATM   14  N   UNL     1       6.087  27.263  52.394  1.00  0.00    -0.355 N 
HETATM   15  H   UNL     1       6.867  26.745  51.999  1.00  0.00     0.162 HD
HETATM   16  O   UNL     1       5.008  27.883  54.288  1.00  0.00    -0.268 OA
BRANCH  14  17
HETATM   17  C   UNL     1       4.931  27.509  51.555  1.00  0.00     0.150 C 
BRANCH  17  18
HETATM   18  C   UNL     1       4.919  26.673  50.262  1.00  0.00     0.254 C 
BRANCH  18  19
HETATM   19  N   UNL     1       3.664  26.876  49.413  1.00  0.00    -0.070 N 
HETATM   20  H   UNL     1       2.936  26.316  49.881  1.00  0.00     0.279 HD
BRANCH  19  21
HETATM   21  C   UNL     1       3.762  26.307  48.004  1.00  0.00     0.230 C 
HETATM   22  C   UNL     1       3.001  25.002  47.870  1.00  0.00     0.034 C 
ENDBRANCH  19  21
BRANCH  19  23
HETATM   23  C   UNL     1       3.128  28.296  49.377  1.00  0.00     0.230 C 
HETATM   24  C   UNL     1       1.630  28.326  49.138  1.00  0.00     0.034 C 
ENDBRANCH  19  23
ENDBRANCH  18  19
ENDBRANCH  17  18
ENDBRANCH  14  17
ENDBRANCH   1  13
BRANCH   1  25
HETATM   25  O   UNL     1       8.346  26.791  53.733  1.00  0.00    -0.359 OA
HETATM   26  H   UNL     1       8.911  27.564  53.925  1.00  0.00     0.213 HD
ENDBRANCH   1  25
BRANCH   2  27
HETATM   27  C   UNL     1       7.289  24.355  54.645  1.00  0.00     0.043 A 
HETATM   28  C   UNL     1       7.973  23.396  55.407  1.00  0.00     0.037 A 
HETATM   29  C   UNL     1       8.314  22.133  54.887  1.00  0.00    -0.054 A 
HETATM   30  C   UNL     1       9.023  21.143  55.771  1.00  0.00     0.049 C 
HETATM   31  C   UNL     1       7.961  21.819  53.565  1.00  0.00    -0.056 A 
HETATM   32  C   UNL     1       8.253  20.467  52.969  1.00  0.00     0.049 C 
HETATM   33  C   UNL     1       7.253  22.763  52.809  1.00  0.00     0.009 A 
HETATM   34  C   UNL     1       6.917  24.012  53.345  1.00  0.00     0.030 A 
ENDBRANCH   2  27
TORSDOF 8
ENDMDL
MODEL 3
REMARK VINA RESULT:      -8.6      1.600      2.669
REMARK  8 active torsions:
REMARK  status: ('A' for Active; 'I' for Inactive)
REMARK    1  A    between atoms: C_2  and  N_3 
REMARK    2  A    between atoms: N_3  and  C_5 
REMARK    3  A    between atoms: N_3  and  C_30 
REMARK    4  A    between atoms: C_5  and  C_6 
REMARK    5  A    between atoms: C_6  and  N_7 
REMARK       I    between atoms: N_7  and  C_8 
REMARK    6  A    between atoms: C_8  and  C_9 
REMARK    7  A    between atoms: C_9  and  O_10 
REMARK    8  A    between atoms: N_11  and  C_12 
ROOT
HETATM    1  C   UNL     1       5.208  26.751  54.150  1.00  0.00     0.256 C 
HETATM    2  N   UNL     1       6.623  26.516  53.837  1.00  0.00    -0.254 N 
HETATM    3  C   UNL     1       7.421  27.632  53.593  1.00  0.00     0.330 C 
HETATM    4  O   UNL     1       8.641  27.701  53.716  1.00  0.00    -0.246 OA
HETATM    5  N   UNL     1       6.774  28.742  53.097  1.00  0.00    -0.308 N 
HETATM    6  C   UNL     1       5.426  28.781  52.745  1.00  0.00     0.048 A 
HETATM    7  C   UNL     1       4.590  27.774  53.227  1.00  0.00     0.034 A 
HETATM    8  C   UNL     1       4.929  29.824  51.968  1.00  0.00     0.030 A 
HETATM    9  C   UNL     1       3.572  29.851  51.647  1.00  0.00     0.002 A 
HETATM   10  C   UNL     1       2.723  28.847  52.113  1.00  0.00     0.001 A 
HETATM   11  C   UNL     1       3.226  27.815  52.906  1.00  0.00     0.015 A 
HETATM   12  H   UNL     1       7.404  29.461  52.757  1.00  0.00     0.170 HD
ENDROOT
BRANCH   1  13
HETATM   13  C   UNL     1       5.138  27.226  55.673  1.00  0.00     0.279 C 
HETATM   14  N   UNL     1       5.314  28.571  55.957  1.00  0.00    -0.355 N 
HETATM   15  H   UNL     1       5.324  29.225  55.179  1.00  0.00     0.162 HD
HETATM   16  O   UNL     1       4.998  26.422  56.602  1.00  0.00    -0.268 OA
BRANCH  14  17
HETATM   17  C   UNL     1       5.087  29.093  57.290  1.00  0.00     0.150 C 
BRANCH  17  18
HETATM   18  C   UNL     1       6.116  30.154  57.720  1.00  0.00     0.254 C 
BRANCH  18  19
HETATM   19  N   UNL     1       7.380  29.564  58.346  1.00  0.00    -0.070 N 
HETATM   20  H   UNL     1       7.056  28.728  58.854  1.00  0.00     0.279 HD
BRANCH  19  21
HETATM   21  C   UNL     1       8.027  30.449  59.402  1.00  0.00     0.230 C 
HETATM   22  C   UNL     1       7.199  31.689  59.680  1.00  0.00     0.034 C 
ENDBRANCH  19  21
BRANCH  19  23
HETATM   23  C   UNL     1       8.420  29.066  57.359  1.00  0.00     0.230 C 
HETATM   24  C   UNL     1       8.438  27.551  57.277  1.00  0.00     0.034 C 
ENDBRANCH  19  23
ENDBRANCH  18  19
ENDBRANCH  17  18
ENDBRANCH  14  17
ENDBRANCH   1  13
BRANCH   1  25
HETATM   25  O   UNL     1       4.426  25.559  54.087  1.00  0.00    -0.359 OA
HETATM   26  H   UNL     1       3.747  25.735  53.406  1.00  0.00     0.213 HD
ENDBRANCH   1  25
BRANCH   2  27
HETATM   27  C   UNL     1       7.206  25.211  53.902  1.00  0.00     0.043 A 
HETATM   28  C   UNL     1       7.542  24.651  55.143  1.00  0.00     0.037 A 
HETATM   29  C   UNL     1       8.048  23.343  55.263  1.00  0.00    -0.054 A 
HETATM   30  C   UNL     1       8.362  22.799  56.630  1.00  0.00     0.049 C 
HETATM   31  C   UNL     1       8.224  22.569  54.104  1.00  0.00    -0.056 A 
HETATM   32  C   UNL     1       8.712  21.147  54.171  1.00  0.00     0.049 C 
HETATM   33  C   UNL     1       7.863  23.113  52.864  1.00  0.00     0.009 A 
HETATM   34  C   UNL     1       7.356  24.414  52.766  1.00  0.00     0.030 A 
ENDBRANCH   2  27
TORSDOF 8
ENDMDL
MODEL 4
REMARK VINA RESULT:      -8.5      2.131      6.359
REMARK  8 active torsions:
REMARK  status: ('A' for Active; 'I' for Inactive)
REMARK    1  A    between atoms: C_2  and  N_3 
REMARK    2  A    between atoms: N_3  and  C_5 
REMARK    3  A    between atoms: N_3  and  C_30 
REMARK    4  A    between atoms: C_5  and  C_6 
REMARK    5  A    between atoms: C_6  and  N_7 
REMARK       I    between atoms: N_7  and  C_8 
REMARK    6  A    between atoms: C_8  and  C_9 
REMARK    7  A    between atoms: C_9  and  O_10 
REMARK    8  A    between atoms: N_11  and  C_12 
ROOT
HETATM    1  C   UNL     1       5.240  27.889  55.277  1.00  0.00     0.256 C 
HETATM    2  N   UNL     1       6.126  27.962  54.110  1.00  0.00    -0.254 N 
HETATM    3  C   UNL     1       7.462  28.292  54.335  1.00  0.00     0.330 C 
HETATM    4  O   UNL     1       8.416  28.020  53.611  1.00  0.00    -0.246 OA
HETATM    5  N   UNL     1       7.714  29.062  55.449  1.00  0.00    -0.308 N 
HETATM    6  C   UNL     1       6.732  29.594  56.283  1.00  0.00     0.048 A 
HETATM    7  C   UNL     1       5.447  29.056  56.214  1.00  0.00     0.034 A 
HETATM    8  C   UNL     1       7.046  30.604  57.188  1.00  0.00     0.030 A 
HETATM    9  C   UNL     1       6.050  31.105  58.026  1.00  0.00     0.002 A 
HETATM   10  C   UNL     1       4.757  30.585  57.964  1.00  0.00     0.001 A 
HETATM   11  C   UNL     1       4.455  29.559  57.067  1.00  0.00     0.015 A 
HETATM   12  H   UNL     1       8.656  29.437  55.477  1.00  0.00     0.170 HD
ENDROOT
BRANCH   1  13
HETATM   13  C   UNL     1       5.537  26.500  56.005  1.00  0.00     0.279 C 
HETATM   14  N   UNL     1       6.548  25.693  55.506  1.00  0.00    -0.355 N 
HETATM   15  H   UNL     1       7.162  26.083  54.797  1.00  0.00     0.162 HD
HETATM   16  O   UNL     1       4.853  26.100  56.953  1.00  0.00    -0.268 OA
BRANCH  14  17
HETATM   17  C   UNL     1       6.986  24.511  56.220  1.00  0.00     0.150 C 
BRANCH  17  18
HETATM   18  C   UNL     1       8.451  24.128  55.939  1.00  0.00     0.254 C 
BRANCH  18  19
HETATM   19  N   UNL     1       8.615  22.732  55.337  1.00  0.00    -0.070 N 
HETATM   20  H   UNL     1       9.556  22.736  54.918  1.00  0.00     0.279 HD
BRANCH  19  21
HETATM   21  C   UNL     1       7.666  22.430  54.187  1.00  0.00     0.230 C 
HETATM   22  C   UNL     1       7.985  23.263  52.961  1.00  0.00     0.034 C 
ENDBRANCH  19  21
BRANCH  19  23
HETATM   23  C   UNL     1       8.618  21.592  56.340  1.00  0.00     0.230 C 
HETATM   24  C   UNL     1       7.629  20.506  55.958  1.00  0.00     0.034 C 
ENDBRANCH  19  23
ENDBRANCH  18  19
ENDBRANCH  17  18
ENDBRANCH  14  17
ENDBRANCH   1  13
BRANCH   1  25
HETATM   25  O   UNL     1       3.859  27.843  54.918  1.00  0.00    -0.359 OA
HETATM   26  H   UNL     1       3.848  27.549  53.986  1.00  0.00     0.213 HD
ENDBRANCH   1  25
BRANCH   2  27
HETATM   27  C   UNL     1       5.686  27.587  52.801  1.00  0.00     0.043 A 
HETATM   28  C   UNL     1       5.404  28.574  51.844  1.00  0.00     0.037 A 
HETATM   29  C   UNL     1       5.040  28.253  50.523  1.00  0.00    -0.054 A 
HETATM   30  C   UNL     1       4.779  29.364  49.543  1.00  0.00     0.049 C 
HETATM   31  C   UNL     1       4.955  26.902  50.145  1.00  0.00    -0.056 A 
HETATM   32  C   UNL     1       4.621  26.497  48.735  1.00  0.00     0.049 C 
HETATM   33  C   UNL     1       5.262  25.914  51.089  1.00  0.00     0.009 A 
HETATM   34  C   UNL     1       5.628  26.252  52.397  1.00  0.00     0.030 A 
ENDBRANCH   2  27
TORSDOF 8
ENDMDL
MODEL 5
REMARK VINA RESULT:      -8.4      1.556      6.918
REMARK  8 active torsions:
REMARK  status: ('A' for Active; 'I' for Inactive)
REMARK    1  A    between atoms: C_2  and  N_3 
REMARK    2  A    between atoms: N_3  and  C_5 
REMARK    3  A    between atoms: N_3  and  C_30 
REMARK    4  A    between atoms: C_5  and  C_6 
REMARK    5  A    between atoms: C_6  and  N_7 
REMARK       I    between atoms: N_7  and  C_8 
REMARK    6  A    between atoms: C_8  and  C_9 
REMARK    7  A    between atoms: C_9  and  O_10 
REMARK    8  A    between atoms: N_11  and  C_12 
ROOT
HETATM    1  C   UNL     1       6.904  28.157  54.499  1.00  0.00     0.256 C 
HETATM    2  N   UNL     1       6.487  28.598  55.835  1.00  0.00    -0.254 N 
HETATM    3  C   UNL     1       5.232  28.191  56.284  1.00  0.00     0.330 C 
HETATM    4  O   UNL     1       4.868  28.094  57.453  1.00  0.00    -0.246 OA
HETATM    5  N   UNL     1       4.292  27.943  55.308  1.00  0.00    -0.308 N 
HETATM    6  C   UNL     1       4.488  28.163  53.945  1.00  0.00     0.048 A 
HETATM    7  C   UNL     1       5.796  28.311  53.484  1.00  0.00     0.034 A 
HETATM    8  C   UNL     1       3.405  28.188  53.071  1.00  0.00     0.030 A 
HETATM    9  C   UNL     1       3.630  28.389  51.710  1.00  0.00     0.002 A 
HETATM   10  C   UNL     1       4.931  28.548  51.232  1.00  0.00     0.001 A 
HETATM   11  C   UNL     1       6.013  28.503  52.113  1.00  0.00     0.015 A 
HETATM   12  H   UNL     1       3.351  27.835  55.670  1.00  0.00     0.170 HD
ENDROOT
BRANCH   1  13
HETATM   13  C   UNL     1       7.364  26.633  54.631  1.00  0.00     0.279 C 
HETATM   14  N   UNL     1       7.402  25.851  53.487  1.00  0.00    -0.355 N 
HETATM   15  H   UNL     1       7.287  26.314  52.590  1.00  0.00     0.162 HD
HETATM   16  O   UNL     1       7.623  26.122  55.726  1.00  0.00    -0.268 OA
BRANCH  14  17
HETATM   17  C   UNL     1       7.977  24.521  53.506  1.00  0.00     0.150 C 
BRANCH  17  18
HETATM   18  C   UNL     1       7.001  23.436  53.998  1.00  0.00     0.254 C 
BRANCH  18  19
HETATM   19  N   UNL     1       7.696  22.203  54.576  1.00  0.00    -0.070 N 
HETATM   20  H   UNL     1       6.962  21.482  54.616  1.00  0.00     0.279 HD
BRANCH  19  21
HETATM   21  C   UNL     1       8.174  22.369  56.012  1.00  0.00     0.230 C 
HETATM   22  C   UNL     1       8.391  21.031  56.690  1.00  0.00     0.034 C 
ENDBRANCH  19  21
BRANCH  19  23
HETATM   23  C   UNL     1       8.799  21.617  53.712  1.00  0.00     0.230 C 
HETATM   24  C   UNL     1       8.294  20.469  52.858  1.00  0.00     0.034 C 
ENDBRANCH  19  23
ENDBRANCH  18  19
ENDBRANCH  17  18
ENDBRANCH  14  17
ENDBRANCH   1  13
BRANCH   1  25
HETATM   25  O   UNL     1       8.050  28.861  54.020  1.00  0.00    -0.359 OA
HETATM   26  H   UNL     1       8.282  28.428  53.176  1.00  0.00     0.213 HD
ENDBRANCH   1  25
BRANCH   2  27
HETATM   27  C   UNL     1       7.371  29.309  56.708  1.00  0.00     0.043 A 
HETATM   28  C   UNL     1       8.760  29.162  56.574  1.00  0.00     0.037 A 
HETATM   29  C   UNL     1       9.669  29.897  57.358  1.00  0.00    -0.054 A 
HETATM   30  C   UNL     1      11.146  29.708  57.141  1.00  0.00     0.049 C 
HETATM   31  C   UNL     1       9.175  30.807  58.307  1.00  0.00    -0.056 A 
HETATM   32  C   UNL     1      10.096  31.658  59.139  1.00  0.00     0.049 C 
HETATM   33  C   UNL     1       7.789  30.978  58.425  1.00  0.00     0.009 A 
HETATM   34  C   UNL     1       6.901  30.243  57.632  1.00  0.00     0.030 A 
ENDBRANCH   2  27
TORSDOF 8
ENDMDL
MODEL 6
REMARK VINA RESULT:      -8.2      2.691      6.893
REMARK  8 active torsions:
REMARK  status: ('A' for Active; 'I' for Inactive)
REMARK    1  A    between atoms: C_2  and  N_3 
REMARK    2  A    between atoms: N_3  and  C_5 
REMARK    3  A    between atoms: N_3  and  C_30 
REMARK    4  A    between atoms: C_5  and  C_6 
REMARK    5  A    between atoms: C_6  and  N_7 
REMARK       I    between atoms: N_7  and  C_8 
REMARK    6  A    between atoms: C_8  and  C_9 
REMARK    7  A    between atoms: C_9  and  O_10 
REMARK    8  A    between atoms: N_11  and  C_12 
ROOT
HETATM    1  C   UNL     1       5.272  26.289  53.031  1.00  0.00     0.256 C 
HETATM    2  N   UNL     1       5.181  27.368  52.041  1.00  0.00    -0.254 N 
HETATM    3  C   UNL     1       6.021  28.468  52.209  1.00  0.00     0.330 C 
HETATM    4  O   UNL     1       6.395  29.245  51.334  1.00  0.00    -0.246 OA
HETATM    5  N   UNL     1       6.408  28.741  53.502  1.00  0.00    -0.308 N 
HETATM    6  C   UNL     1       5.944  28.062  54.628  1.00  0.00     0.048 A 
HETATM    7  C   UNL     1       5.328  26.825  54.442  1.00  0.00     0.034 A 
HETATM    8  C   UNL     1       6.133  28.593  55.901  1.00  0.00     0.030 A 
HETATM    9  C   UNL     1       5.678  27.884  57.012  1.00  0.00     0.002 A 
HETATM   10  C   UNL     1       5.052  26.649  56.844  1.00  0.00     0.001 A 
HETATM   11  C   UNL     1       4.882  26.115  55.566  1.00  0.00     0.015 A 
HETATM   12  H   UNL     1       6.856  29.645  53.609  1.00  0.00     0.170 HD
ENDROOT
BRANCH   1  13
HETATM   13  C   UNL     1       6.576  25.439  52.679  1.00  0.00     0.279 C 
HETATM   14  N   UNL     1       6.690  24.157  53.194  1.00  0.00    -0.355 N 
HETATM   15  H   UNL     1       5.875  23.750  53.644  1.00  0.00     0.162 HD
HETATM   16  O   UNL     1       7.507  25.913  52.019  1.00  0.00    -0.268 OA
BRANCH  14  17
HETATM   17  C   UNL     1       7.756  23.270  52.772  1.00  0.00     0.150 C 
BRANCH  17  18
HETATM   18  C   UNL     1       8.552  22.663  53.941  1.00  0.00     0.254 C 
BRANCH  18  19
HETATM   19  N   UNL     1       7.672  22.162  55.087  1.00  0.00    -0.070 N 
HETATM   20  H   UNL     1       6.706  22.302  54.758  1.00  0.00     0.279 HD
BRANCH  19  21
HETATM   21  C   UNL     1       7.783  22.980  56.365  1.00  0.00     0.230 C 
HETATM   22  C   UNL     1       8.742  24.143  56.207  1.00  0.00     0.034 C 
ENDBRANCH  19  21
BRANCH  19  23
HETATM   23  C   UNL     1       7.789  20.679  55.391  1.00  0.00     0.230 C 
HETATM   24  C   UNL     1       9.022  20.371  56.221  1.00  0.00     0.034 C 
ENDBRANCH  19  23
ENDBRANCH  18  19
ENDBRANCH  17  18
ENDBRANCH  14  17
ENDBRANCH   1  13
BRANCH   1  25
HETATM   25  O   UNL     1       4.182  25.370  52.944  1.00  0.00    -0.359 OA
HETATM   26  H   UNL     1       4.385  24.671  53.596  1.00  0.00     0.213 HD
ENDBRANCH   1  25
BRANCH   2  27
HETATM   27  C   UNL     1       4.362  27.257  50.872  1.00  0.00     0.043 A 
HETATM   28  C   UNL     1       3.341  28.191  50.637  1.00  0.00     0.037 A 
HETATM   29  C   UNL     1       2.559  28.166  49.467  1.00  0.00    -0.054 A 
HETATM   30  C   UNL     1       1.500  29.216  49.270  1.00  0.00     0.049 C 
HETATM   31  C   UNL     1       2.804  27.176  48.501  1.00  0.00    -0.056 A 
HETATM   32  C   UNL     1       2.037  27.129  47.207  1.00  0.00     0.049 C 
HETATM   33  C   UNL     1       3.840  26.259  48.718  1.00  0.00     0.009 A 
HETATM   34  C   UNL     1       4.611  26.303  49.885  1.00  0.00     0.030 A 
ENDBRANCH   2  27
TORSDOF 8
ENDMDL
MODEL 7
REMARK VINA RESULT:      -8.2      3.347      6.805
REMARK  8 active torsions:
REMARK  status: ('A' for Active; 'I' for Inactive)
REMARK    1  A    between atoms: C_2  and  N_3 
REMARK    2  A    between atoms: N_3  and  C_5 
REMARK    3  A    between atoms: N_3  and  C_30 
REMARK    4  A    between atoms: C_5  and  C_6 
REMARK    5  A    between atoms: C_6  and  N_7 
REMARK       I    between atoms: N_7  and  C_8 
REMARK    6  A    between atoms: C_8  and  C_9 
REMARK    7  A    between atoms: C_9  and  O_10 
REMARK    8  A    between atoms: N_11  and  C_12 
ROOT
HETATM    1  C   UNL     1       4.637  27.941  52.704  1.00  0.00     0.256 C 
HETATM    2  N   UNL     1       4.522  28.483  51.345  1.00  0.00    -0.254 N 
HETATM    3  C   UNL     1       5.030  29.761  51.116  1.00  0.00     0.330 C 
HETATM    4  O   UNL     1       5.400  30.221  50.039  1.00  0.00    -0.246 OA
HETATM    5  N   UNL     1       5.049  30.606  52.203  1.00  0.00    -0.308 N 
HETATM    6  C   UNL     1       4.516  30.300  53.454  1.00  0.00     0.048 A 
HETATM    7  C   UNL     1       4.257  28.962  53.750  1.00  0.00     0.034 A 
HETATM    8  C   UNL     1       4.294  31.305  54.392  1.00  0.00     0.030 A 
HETATM    9  C   UNL     1       3.780  30.970  55.644  1.00  0.00     0.002 A 
HETATM   10  C   UNL     1       3.506  29.638  55.953  1.00  0.00     0.001 A 
HETATM   11  C   UNL     1       3.749  28.634  55.014  1.00  0.00     0.015 A 
HETATM   12  H   UNL     1       5.244  31.572  51.962  1.00  0.00     0.170 HD
ENDROOT
BRANCH   1  13
HETATM   13  C   UNL     1       6.146  27.454  52.888  1.00  0.00     0.279 C 
HETATM   14  N   UNL     1       6.440  26.116  52.676  1.00  0.00    -0.355 N 
HETATM   15  H   UNL     1       5.722  25.530  52.261  1.00  0.00     0.162 HD
HETATM   16  O   UNL     1       7.037  28.219  53.275  1.00  0.00    -0.268 OA
BRANCH  14  17
HETATM   17  C   UNL     1       7.811  25.644  52.651  1.00  0.00     0.150 C 
BRANCH  17  18
HETATM   18  C   UNL     1       7.939  24.118  52.802  1.00  0.00     0.254 C 
BRANCH  18  19
HETATM   19  N   UNL     1       7.451  23.592  54.152  1.00  0.00    -0.070 N 
HETATM   20  H   UNL     1       6.430  23.724  54.132  1.00  0.00     0.279 HD
BRANCH  19  21
HETATM   21  C   UNL     1       7.936  24.396  55.350  1.00  0.00     0.230 C 
HETATM   22  C   UNL     1       8.784  23.556  56.285  1.00  0.00     0.034 C 
ENDBRANCH  19  21
BRANCH  19  23
HETATM   23  C   UNL     1       7.666  22.107  54.385  1.00  0.00     0.230 C 
HETATM   24  C   UNL     1       8.041  21.386  53.104  1.00  0.00     0.034 C 
ENDBRANCH  19  23
ENDBRANCH  18  19
ENDBRANCH  17  18
ENDBRANCH  14  17
ENDBRANCH   1  13
BRANCH   1  25
HETATM   25  O   UNL     1       3.834  26.778  52.901  1.00  0.00    -0.359 OA
HETATM   26  H   UNL     1       3.618  26.775  53.854  1.00  0.00     0.213 HD
ENDBRANCH   1  25
BRANCH   2  27
HETATM   27  C   UNL     1       4.029  27.696  50.255  1.00  0.00     0.043 A 
HETATM   28  C   UNL     1       2.809  28.027  49.645  1.00  0.00     0.037 A 
HETATM   29  C   UNL     1       2.319  27.330  48.525  1.00  0.00    -0.054 A 
HETATM   30  C   UNL     1       1.017  27.757  47.906  1.00  0.00     0.049 C 
HETATM   31  C   UNL     1       3.072  26.268  47.997  1.00  0.00    -0.056 A 
HETATM   32  C   UNL     1       2.627  25.518  46.770  1.00  0.00     0.049 C 
HETATM   33  C   UNL     1       4.304  25.952  48.585  1.00  0.00     0.009 A 
HETATM   34  C   UNL     1       4.777  26.661  49.695  1.00  0.00     0.030 A 
ENDBRANCH   2  27
TORSDOF 8
ENDMDL
MODEL 8
REMARK VINA RESULT:      -8.2      1.779      5.563
REMARK  8 active torsions:
REMARK  status: ('A' for Active; 'I' for Inactive)
REMARK    1  A    between atoms: C_2  and  N_3 
REMARK    2  A    between atoms: N_3  and  C_5 
REMARK    3  A    between atoms: N_3  and  C_30 
REMARK    4  A    between atoms: C_5  and  C_6 
REMARK    5  A    between atoms: C_6  and  N_7 
REMARK       I    between atoms: N_7  and  C_8 
REMARK    6  A    between atoms: C_8  and  C_9 
REMARK    7  A    between atoms: C_9  and  O_10 
REMARK    8  A    between atoms: N_11  and  C_12 
ROOT
HETATM    1  C   UNL     1       7.400  27.028  54.816  1.00  0.00     0.256 C 
HETATM    2  N   UNL     1       7.041  25.728  55.395  1.00  0.00    -0.254 N 
HETATM    3  C   UNL     1       6.267  25.733  56.554  1.00  0.00     0.330 C 
HETATM    4  O   UNL     1       5.542  24.826  56.955  1.00  0.00    -0.246 OA
HETATM    5  N   UNL     1       6.391  26.843  57.359  1.00  0.00    -0.308 N 
HETATM    6  C   UNL     1       7.290  27.885  57.138  1.00  0.00     0.048 A 
HETATM    7  C   UNL     1       7.858  28.006  55.871  1.00  0.00     0.034 A 
HETATM    8  C   UNL     1       7.572  28.800  58.149  1.00  0.00     0.030 A 
HETATM    9  C   UNL     1       8.459  29.846  57.896  1.00  0.00     0.002 A 
HETATM   10  C   UNL     1       9.044  29.977  56.637  1.00  0.00     0.001 A 
HETATM   11  C   UNL     1       8.741  29.066  55.623  1.00  0.00     0.015 A 
HETATM   12  H   UNL     1       5.966  26.730  58.274  1.00  0.00     0.170 HD
ENDROOT
BRANCH   1  13
HETATM   13  C   UNL     1       6.113  27.567  54.041  1.00  0.00     0.279 C 
HETATM   14  N   UNL     1       6.028  27.361  52.673  1.00  0.00    -0.355 N 
HETATM   15  H   UNL     1       6.707  26.741  52.242  1.00  0.00     0.162 HD
HETATM   16  O   UNL     1       5.230  28.215  54.615  1.00  0.00    -0.268 OA
BRANCH  14  17
HETATM   17  C   UNL     1       4.813  27.664  51.943  1.00  0.00     0.150 C 
BRANCH  17  18
HETATM   18  C   UNL     1       5.014  28.690  50.813  1.00  0.00     0.254 C 
BRANCH  18  19
HETATM   19  N   UNL     1       4.039  29.866  50.871  1.00  0.00    -0.070 N 
HETATM   20  H   UNL     1       3.430  29.744  50.049  1.00  0.00     0.279 HD
BRANCH  19  21
HETATM   21  C   UNL     1       4.690  31.230  50.687  1.00  0.00     0.230 C 
HETATM   22  C   UNL     1       4.241  31.898  49.403  1.00  0.00     0.034 C 
ENDBRANCH  19  21
BRANCH  19  23
HETATM   23  C   UNL     1       3.109  29.877  52.071  1.00  0.00     0.230 C 
HETATM   24  C   UNL     1       3.485  30.961  53.064  1.00  0.00     0.034 C 
ENDBRANCH  19  23
ENDBRANCH  18  19
ENDBRANCH  17  18
ENDBRANCH  14  17
ENDBRANCH   1  13
BRANCH   1  25
HETATM   25  O   UNL     1       8.425  26.924  53.826  1.00  0.00    -0.359 OA
HETATM   26  H   UNL     1       8.289  26.052  53.409  1.00  0.00     0.213 HD
ENDBRANCH   1  25
BRANCH   2  27
HETATM   27  C   UNL     1       7.355  24.494  54.740  1.00  0.00     0.043 A 
HETATM   28  C   UNL     1       8.079  23.502  55.419  1.00  0.00     0.037 A 
HETATM   29  C   UNL     1       8.347  22.246  54.843  1.00  0.00    -0.054 A 
HETATM   30  C   UNL     1       9.107  21.221  55.640  1.00  0.00     0.049 C 
HETATM   31  C   UNL     1       7.876  21.972  53.549  1.00  0.00    -0.056 A 
HETATM   32  C   UNL     1       8.086  20.630  52.900  1.00  0.00     0.049 C 
HETATM   33  C   UNL     1       7.129  22.949  52.878  1.00  0.00     0.009 A 
HETATM   34  C   UNL     1       6.867  24.190  53.469  1.00  0.00     0.030 A 
ENDBRANCH   2  27
TORSDOF 8
ENDMDL
MODEL 9
REMARK VINA RESULT:      -8.0      2.710      7.800
REMARK  8 active torsions:
REMARK  status: ('A' for Active; 'I' for Inactive)
REMARK    1  A    between atoms: C_2  and  N_3 
REMARK    2  A    between atoms: N_3  and  C_5 
REMARK    3  A    between atoms: N_3  and  C_30 
REMARK    4  A    between atoms: C_5  and  C_6 
REMARK    5  A    between atoms: C_6  and  N_7 
REMARK       I    between atoms: N_7  and  C_8 
REMARK    6  A    between atoms: C_8  and  C_9 
REMARK    7  A    between atoms: C_9  and  O_10 
REMARK    8  A    between atoms: N_11  and  C_12 
ROOT
HETATM    1  C   UNL     1       5.920  28.584  56.744  1.00  0.00     0.256 C 
HETATM    2  N   UNL     1       7.147  29.302  57.107  1.00  0.00    -0.254 N 
HETATM    3  C   UNL     1       8.248  29.160  56.264  1.00  0.00     0.330 C 
HETATM    4  O   UNL     1       9.186  29.945  56.145  1.00  0.00    -0.246 OA
HETATM    5  N   UNL     1       8.315  27.984  55.550  1.00  0.00    -0.308 N 
HETATM    6  C   UNL     1       7.425  26.920  55.691  1.00  0.00     0.048 A 
HETATM    7  C   UNL     1       6.204  27.163  56.320  1.00  0.00     0.034 A 
HETATM    8  C   UNL     1       7.737  25.666  55.175  1.00  0.00     0.030 A 
HETATM    9  C   UNL     1       6.821  24.624  55.310  1.00  0.00     0.002 A 
HETATM   10  C   UNL     1       5.599  24.845  55.945  1.00  0.00     0.001 A 
HETATM   11  C   UNL     1       5.286  26.111  56.443  1.00  0.00     0.015 A 
HETATM   12  H   UNL     1       9.212  27.834  55.100  1.00  0.00     0.170 HD
ENDROOT
BRANCH   1  13
HETATM   13  C   UNL     1       5.221  29.412  55.571  1.00  0.00     0.279 C 
HETATM   14  N   UNL     1       5.182  28.857  54.301  1.00  0.00    -0.355 N 
HETATM   15  H   UNL     1       5.456  27.885  54.198  1.00  0.00     0.162 HD
HETATM   16  O   UNL     1       4.777  30.552  55.751  1.00  0.00    -0.268 OA
BRANCH  14  17
HETATM   17  C   UNL     1       4.411  29.472  53.238  1.00  0.00     0.150 C 
BRANCH  17  18
HETATM   18  C   UNL     1       3.900  28.467  52.189  1.00  0.00     0.254 C 
BRANCH  18  19
HETATM   19  N   UNL     1       5.017  27.724  51.456  1.00  0.00    -0.070 N 
HETATM   20  H   UNL     1       5.889  28.120  51.835  1.00  0.00     0.279 HD
BRANCH  19  21
HETATM   21  C   UNL     1       5.071  27.995  49.959  1.00  0.00     0.230 C 
HETATM   22  C   UNL     1       4.115  27.104  49.191  1.00  0.00     0.034 C 
ENDBRANCH  19  21
BRANCH  19  23
HETATM   23  C   UNL     1       5.091  26.233  51.730  1.00  0.00     0.230 C 
HETATM   24  C   UNL     1       6.525  25.739  51.770  1.00  0.00     0.034 C 
ENDBRANCH  19  23
ENDBRANCH  18  19
ENDBRANCH  17  18
ENDBRANCH  14  17
ENDBRANCH   1  13
BRANCH   1  25
HETATM   25  O   UNL     1       4.967  28.552  57.807  1.00  0.00    -0.359 OA
HETATM   26  H   UNL     1       4.684  29.479  57.924  1.00  0.00     0.213 HD
ENDBRANCH   1  25
BRANCH   2  27
HETATM   27  C   UNL     1       7.191  30.218  58.206  1.00  0.00     0.043 A 
HETATM   28  C   UNL     1       8.101  30.014  59.255  1.00  0.00     0.037 A 
HETATM   29  C   UNL     1       8.233  30.925  60.319  1.00  0.00    -0.054 A 
HETATM   30  C   UNL     1       9.249  30.655  61.395  1.00  0.00     0.049 C 
HETATM   31  C   UNL     1       7.431  32.079  60.336  1.00  0.00    -0.056 A 
HETATM   32  C   UNL     1       7.562  33.116  61.419  1.00  0.00     0.049 C 
HETATM   33  C   UNL     1       6.541  32.301  59.277  1.00  0.00     0.009 A 
HETATM   34  C   UNL     1       6.428  31.386  58.224  1.00  0.00     0.030 A 
ENDBRANCH   2  27
TORSDOF 8
ENDMDL
MODEL 10
REMARK VINA RESULT:      -7.9      4.417      8.748
REMARK  8 active torsions:
REMARK  status: ('A' for Active; 'I' for Inactive)
REMARK    1  A    between atoms: C_2  and  N_3 
REMARK    2  A    between atoms: N_3  and  C_5 
REMARK    3  A    between atoms: N_3  and  C_30 
REMARK    4  A    between atoms: C_5  and  C_6 
REMARK    5  A    between atoms: C_6  and  N_7 
REMARK       I    between atoms: N_7  and  C_8 
REMARK    6  A    between atoms: C_8  and  C_9 
REMARK    7  A    between atoms: C_9  and  O_10 
REMARK    8  A    between atoms: N_11  and  C_12 
ROOT
HETATM    1  C   UNL     1       4.675  28.774  49.490  1.00  0.00     0.256 C 
HETATM    2  N   UNL     1       4.101  30.116  49.346  1.00  0.00    -0.254 N 
HETATM    3  C   UNL     1       2.719  30.243  49.483  1.00  0.00     0.330 C 
HETATM    4  O   UNL     1       2.105  31.259  49.799  1.00  0.00    -0.246 OA
HETATM    5  N   UNL     1       1.975  29.130  49.161  1.00  0.00    -0.308 N 
HETATM    6  C   UNL     1       2.501  27.953  48.630  1.00  0.00     0.048 A 
HETATM    7  C   UNL     1       3.873  27.736  48.741  1.00  0.00     0.034 A 
HETATM    8  C   UNL     1       1.663  27.007  48.045  1.00  0.00     0.030 A 
HETATM    9  C   UNL     1       2.210  25.828  47.540  1.00  0.00     0.002 A 
HETATM   10  C   UNL     1       3.583  25.599  47.634  1.00  0.00     0.001 A 
HETATM   11  C   UNL     1       4.413  26.544  48.239  1.00  0.00     0.015 A 
HETATM   12  H   UNL     1       0.980  29.314  49.090  1.00  0.00     0.170 HD
ENDROOT
BRANCH   1  13
HETATM   13  C   UNL     1       4.727  28.452  51.053  1.00  0.00     0.279 C 
HETATM   14  N   UNL     1       5.963  28.404  51.679  1.00  0.00    -0.355 N 
HETATM   15  H   UNL     1       6.773  28.728  51.159  1.00  0.00     0.162 HD
HETATM   16  O   UNL     1       3.708  28.182  51.699  1.00  0.00    -0.268 OA
BRANCH  14  17
HETATM   17  C   UNL     1       6.070  28.295  53.120  1.00  0.00     0.150 C 
BRANCH  17  18
HETATM   18  C   UNL     1       6.895  27.081  53.586  1.00  0.00     0.254 C 
BRANCH  18  19
HETATM   19  N   UNL     1       6.769  25.865  52.667  1.00  0.00    -0.070 N 
HETATM   20  H   UNL     1       6.487  26.253  51.756  1.00  0.00     0.279 HD
BRANCH  19  21
HETATM   21  C   UNL     1       5.657  24.900  53.054  1.00  0.00     0.230 C 
HETATM   22  C   UNL     1       4.636  24.745  51.944  1.00  0.00     0.034 C 
ENDBRANCH  19  21
BRANCH  19  23
HETATM   23  C   UNL     1       8.062  25.112  52.409  1.00  0.00     0.230 C 
HETATM   24  C   UNL     1       7.989  23.682  52.908  1.00  0.00     0.034 C 
ENDBRANCH  19  23
ENDBRANCH  18  19
ENDBRANCH  17  18
ENDBRANCH  14  17
ENDBRANCH   1  13
BRANCH   1  25
HETATM   25  O   UNL     1       6.029  28.704  49.042  1.00  0.00    -0.359 OA
HETATM   26  H   UNL     1       6.295  29.631  48.889  1.00  0.00     0.213 HD
ENDBRANCH   1  25
BRANCH   2  27
HETATM   27  C   UNL     1       4.922  31.279  49.199  1.00  0.00     0.043 A 
HETATM   28  C   UNL     1       5.172  31.807  47.923  1.00  0.00     0.037 A 
HETATM   29  C   UNL     1       5.910  32.990  47.733  1.00  0.00    -0.054 A 
HETATM   30  C   UNL     1       6.115  33.512  46.337  1.00  0.00     0.049 C 
HETATM   31  C   UNL     1       6.417  33.668  48.855  1.00  0.00    -0.056 A 
HETATM   32  C   UNL     1       7.170  34.963  48.720  1.00  0.00     0.049 C 
HETATM   33  C   UNL     1       6.147  33.160  50.132  1.00  0.00     0.009 A 
HETATM   34  C   UNL     1       5.405  31.985  50.301  1.00  0.00     0.030 A 
ENDBRANCH   2  27
TORSDOF 8
ENDMDL
