MODEL 1
REMARK VINA RESULT:     -10.6      0.000      0.000
REMARK  7 active torsions:
REMARK  status: ('A' for Active; 'I' for Inactive)
REMARK    1  A    between atoms: C_4  and  C_5 
REMARK    2  A    between atoms: C_5  and  C_6 
REMARK    3  A    between atoms: C_6  and  C_7 
REMARK    4  A    between atoms: C_7  and  N_8 
REMARK    5  A    between atoms: C_12  and  O_13 
REMARK    6  A    between atoms: C_12  and  C_14 
REMARK    7  A    between atoms: C_19  and  C_20 
REMARK       I    between atoms: C_20  and  N_21 
ROOT
HETATM    1  C   UNL     1       7.366  29.934  56.769  1.00  0.00    -0.023 A 
HETATM    2  C   UNL     1       7.522  30.592  58.012  1.00  0.00     0.024 A 
HETATM    3  C   UNL     1       6.508  31.438  58.509  1.00  0.00     0.001 A 
HETATM    4  C   UNL     1       5.350  31.595  57.767  1.00  0.00     0.086 A 
HETATM    5  O   UNL     1       4.486  32.435  58.400  1.00  0.00    -0.304 OA
HETATM    6  C   UNL     1       5.082  32.838  59.564  1.00  0.00     0.144 A 
HETATM    7  C   UNL     1       6.321  32.224  59.674  1.00  0.00     0.057 A 
HETATM    8  C   UNL     1       5.120  30.951  56.558  1.00  0.00     0.039 A 
HETATM    9  C   UNL     1       6.143  30.111  56.086  1.00  0.00     0.013 A 
ENDROOT
BRANCH   1  10
HETATM   10  C   UNL     1       8.444  28.978  56.234  1.00  0.00     0.088 C 
HETATM   11  C   UNL     1       8.270  28.547  54.764  1.00  0.00     0.071 C 
HETATM   12  C   UNL     1       7.071  27.635  54.567  1.00  0.00     0.238 C 
HETATM   13  N   UNL     1       7.207  26.400  55.430  1.00  0.00    -0.071 N 
HETATM   14  H   UNL     1       8.034  25.876  55.109  1.00  0.00     0.279 HD
HETATM   15  C   UNL     1       7.432  26.744  56.889  1.00  0.00     0.238 C 
HETATM   16  C   UNL     1       8.623  27.672  57.035  1.00  0.00     0.071 C 
BRANCH  13  17
HETATM   17  C   UNL     1       6.010  25.459  55.308  1.00  0.00     0.235 C 
BRANCH  17  18
HETATM   18  C   UNL     1       6.037  24.680  53.992  1.00  0.00     0.038 C 
BRANCH  18  19
HETATM   19  C   UNL     1       7.475  24.298  53.584  1.00  0.00     0.040 C 
HETATM   20  C   UNL     1       7.769  24.762  52.155  1.00  0.00     0.017 C 
BRANCH  19  21
HETATM   21  C   UNL     1       7.693  22.828  53.740  1.00  0.00     0.057 A 
HETATM   22  O   UNL     1       7.663  22.365  55.025  1.00  0.00    -0.319 OA
HETATM   23  C   UNL     1       7.882  21.022  54.975  1.00  0.00     0.049 A 
HETATM   24  C   UNL     1       7.938  20.317  56.271  1.00  0.00     0.076 C 
HETATM   25  C   UNL     1       8.014  20.613  53.666  1.00  0.00     0.035 A 
HETATM   26  C   UNL     1       7.890  21.777  52.869  1.00  0.00     0.035 A 
ENDBRANCH  19  21
ENDBRANCH  18  19
ENDBRANCH  17  18
ENDBRANCH  13  17
BRANCH  10  27
HETATM   27  O   UNL     1       9.697  29.663  56.304  1.00  0.00    -0.385 OA
HETATM   28  H   UNL     1      10.241  29.447  55.524  1.00  0.00     0.211 HD
ENDBRANCH  10  27
ENDBRANCH   1  10
BRANCH   6  29
HETATM   29  C   UNL     1       4.412  33.712  60.514  1.00  0.00     0.277 C 
HETATM   30  N   UNL     1       3.726  33.195  61.627  1.00  0.00    -0.345 N 
HETATM   31  C   UNL     1       3.059  34.157  62.511  1.00  0.00     0.154 C 
HETATM   32  C   UNL     1       3.729  31.812  62.083  1.00  0.00     0.128 C 
HETATM   33  C   UNL     1       3.952  34.643  63.658  1.00  0.00     0.254 C 
HETATM   34  N   UNL     1       4.452  33.475  64.517  1.00  0.00    -0.073 N 
HETATM   35  H   UNL     1       3.647  32.879  64.747  1.00  0.00     0.279 HD
HETATM   36  C   UNL     1       4.968  33.988  65.841  1.00  0.00     0.269 C 
HETATM   37  C   UNL     1       5.497  32.636  63.811  1.00  0.00     0.236 C 
HETATM   38  C   UNL     1       4.896  31.484  63.011  1.00  0.00     0.048 C 
HETATM   39  O   UNL     1       4.435  34.935  60.356  1.00  0.00    -0.265 OA
ENDBRANCH   6  29
TORSDOF 7
ENDMDL
MODEL 2
REMARK VINA RESULT:     -10.5      5.401      9.162
REMARK  7 active torsions:
REMARK  status: ('A' for Active; 'I' for Inactive)
REMARK    1  A    between atoms: C_4  and  C_5 
REMARK    2  A    between atoms: C_5  and  C_6 
REMARK    3  A    between atoms: C_6  and  C_7 
REMARK    4  A    between atoms: C_7  and  N_8 
REMARK    5  A    between atoms: C_12  and  O_13 
REMARK    6  A    between atoms: C_12  and  C_14 
REMARK    7  A    between atoms: C_19  and  C_20 
REMARK       I    between atoms: C_20  and  N_21 
ROOT
HETATM    1  C   UNL     1       5.925  27.813  55.471  1.00  0.00    -0.023 A 
HETATM    2  C   UNL     1       4.772  28.239  54.770  1.00  0.00     0.024 A 
HETATM    3  C   UNL     1       4.862  28.647  53.422  1.00  0.00     0.001 A 
HETATM    4  C   UNL     1       6.096  28.603  52.795  1.00  0.00     0.086 A 
HETATM    5  O   UNL     1       5.991  29.022  51.504  1.00  0.00    -0.304 OA
HETATM    6  C   UNL     1       4.681  29.351  51.282  1.00  0.00     0.144 A 
HETATM    7  C   UNL     1       3.953  29.109  52.438  1.00  0.00     0.057 A 
HETATM    8  C   UNL     1       7.257  28.162  53.415  1.00  0.00     0.039 A 
HETATM    9  C   UNL     1       7.141  27.757  54.756  1.00  0.00     0.013 A 
ENDROOT
BRANCH   1  10
HETATM   10  C   UNL     1       5.836  27.326  56.927  1.00  0.00     0.088 C 
HETATM   11  C   UNL     1       7.180  27.248  57.677  1.00  0.00     0.071 C 
HETATM   12  C   UNL     1       8.074  26.140  57.146  1.00  0.00     0.238 C 
HETATM   13  N   UNL     1       7.372  24.805  57.252  1.00  0.00    -0.071 N 
HETATM   14  H   UNL     1       7.215  24.606  58.251  1.00  0.00     0.279 HD
HETATM   15  C   UNL     1       6.014  24.818  56.577  1.00  0.00     0.238 C 
HETATM   16  C   UNL     1       5.165  25.951  57.123  1.00  0.00     0.071 C 
BRANCH  13  17
HETATM   17  C   UNL     1       8.205  23.653  56.694  1.00  0.00     0.235 C 
BRANCH  17  18
HETATM   18  C   UNL     1       7.337  22.639  55.948  1.00  0.00     0.038 C 
BRANCH  18  19
HETATM   19  C   UNL     1       7.926  22.290  54.565  1.00  0.00     0.040 C 
HETATM   20  C   UNL     1       9.436  22.067  54.666  1.00  0.00     0.017 C 
BRANCH  19  21
HETATM   21  C   UNL     1       7.592  23.352  53.568  1.00  0.00     0.057 A 
HETATM   22  O   UNL     1       6.274  23.704  53.508  1.00  0.00    -0.319 OA
HETATM   23  C   UNL     1       6.158  24.669  52.554  1.00  0.00     0.049 A 
HETATM   24  C   UNL     1       4.794  25.168  52.286  1.00  0.00     0.076 C 
HETATM   25  C   UNL     1       7.396  24.966  52.029  1.00  0.00     0.035 A 
HETATM   26  C   UNL     1       8.322  24.119  52.685  1.00  0.00     0.035 A 
ENDBRANCH  19  21
ENDBRANCH  18  19
ENDBRANCH  17  18
ENDBRANCH  13  17
BRANCH  10  27
HETATM   27  O   UNL     1       5.032  28.267  57.644  1.00  0.00    -0.385 OA
HETATM   28  H   UNL     1       5.002  29.116  57.165  1.00  0.00     0.211 HD
ENDBRANCH  10  27
ENDBRANCH   1  10
BRANCH   6  29
HETATM   29  C   UNL     1       4.205  29.798  49.983  1.00  0.00     0.277 C 
HETATM   30  N   UNL     1       4.393  29.020  48.827  1.00  0.00    -0.345 N 
HETATM   31  C   UNL     1       3.901  29.572  47.559  1.00  0.00     0.154 C 
HETATM   32  C   UNL     1       4.892  27.654  48.772  1.00  0.00     0.128 C 
HETATM   33  C   UNL     1       2.458  29.163  47.244  1.00  0.00     0.254 C 
HETATM   34  N   UNL     1       2.301  27.639  47.192  1.00  0.00    -0.073 N 
HETATM   35  H   UNL     1       3.053  27.259  46.602  1.00  0.00     0.279 HD
HETATM   36  C   UNL     1       1.014  27.273  46.490  1.00  0.00     0.269 C 
HETATM   37  C   UNL     1       2.380  26.996  48.560  1.00  0.00     0.236 C 
HETATM   38  C   UNL     1       3.800  26.603  48.955  1.00  0.00     0.048 C 
HETATM   39  O   UNL     1       3.623  30.880  49.873  1.00  0.00    -0.265 OA
ENDBRANCH   6  29
TORSDOF 7
ENDMDL
MODEL 3
REMARK VINA RESULT:     -10.2      2.755      4.578
REMARK  7 active torsions:
REMARK  status: ('A' for Active; 'I' for Inactive)
REMARK    1  A    between atoms: C_4  and  C_5 
REMARK    2  A    between atoms: C_5  and  C_6 
REMARK    3  A    between atoms: C_6  and  C_7 
REMARK    4  A    between atoms: C_7  and  N_8 
REMARK    5  A    between atoms: C_12  and  O_13 
REMARK    6  A    between atoms: C_12  and  C_14 
REMARK    7  A    between atoms: C_19  and  C_20 
REMARK       I    between atoms: C_20  and  N_21 
ROOT
HETATM    1  C   UNL     1       5.499  27.241  54.794  1.00  0.00    -0.023 A 
HETATM    2  C   UNL     1       6.466  28.274  54.814  1.00  0.00     0.024 A 
HETATM    3  C   UNL     1       7.028  28.707  56.035  1.00  0.00     0.001 A 
HETATM    4  C   UNL     1       6.629  28.088  57.207  1.00  0.00     0.086 A 
HETATM    5  O   UNL     1       7.277  28.628  58.276  1.00  0.00    -0.304 OA
HETATM    6  C   UNL     1       8.102  29.612  57.804  1.00  0.00     0.144 A 
HETATM    7  C   UNL     1       7.990  29.672  56.423  1.00  0.00     0.057 A 
HETATM    8  C   UNL     1       5.713  27.047  57.252  1.00  0.00     0.039 A 
HETATM    9  C   UNL     1       5.170  26.630  56.024  1.00  0.00     0.013 A 
ENDROOT
BRANCH   1  10
HETATM   10  C   UNL     1       4.908  26.730  53.470  1.00  0.00     0.088 C 
HETATM   11  C   UNL     1       4.536  25.234  53.450  1.00  0.00     0.071 C 
HETATM   12  C   UNL     1       5.759  24.334  53.490  1.00  0.00     0.238 C 
HETATM   13  N   UNL     1       6.666  24.631  52.316  1.00  0.00    -0.071 N 
HETATM   14  H   UNL     1       6.154  24.400  51.452  1.00  0.00     0.279 HD
HETATM   15  C   UNL     1       7.037  26.100  52.239  1.00  0.00     0.238 C 
HETATM   16  C   UNL     1       5.788  26.960  52.223  1.00  0.00     0.071 C 
BRANCH  13  17
HETATM   17  C   UNL     1       7.937  23.785  52.321  1.00  0.00     0.235 C 
BRANCH  17  18
HETATM   18  C   UNL     1       7.663  22.361  52.808  1.00  0.00     0.038 C 
BRANCH  18  19
HETATM   19  C   UNL     1       8.853  21.793  53.610  1.00  0.00     0.040 C 
HETATM   20  C   UNL     1       9.031  20.301  53.320  1.00  0.00     0.017 C 
BRANCH  19  21
HETATM   21  C   UNL     1       8.674  22.052  55.071  1.00  0.00     0.057 A 
HETATM   22  O   UNL     1       8.766  23.361  55.449  1.00  0.00    -0.319 OA
HETATM   23  C   UNL     1       8.584  23.405  56.797  1.00  0.00     0.049 A 
HETATM   24  C   UNL     1       8.691  24.734  57.432  1.00  0.00     0.076 C 
HETATM   25  C   UNL     1       8.337  22.140  57.283  1.00  0.00     0.035 A 
HETATM   26  C   UNL     1       8.393  21.267  56.169  1.00  0.00     0.035 A 
ENDBRANCH  19  21
ENDBRANCH  18  19
ENDBRANCH  17  18
ENDBRANCH  13  17
BRANCH  10  27
HETATM   27  O   UNL     1       3.693  27.447  53.238  1.00  0.00    -0.385 OA
HETATM   28  H   UNL     1       3.876  28.262  52.735  1.00  0.00     0.211 HD
ENDBRANCH  10  27
ENDBRANCH   1  10
BRANCH   6  29
HETATM   29  C   UNL     1       8.982  30.369  58.680  1.00  0.00     0.277 C 
HETATM   30  N   UNL     1       8.619  31.639  59.163  1.00  0.00    -0.345 N 
HETATM   31  C   UNL     1       9.588  32.334  60.019  1.00  0.00     0.154 C 
HETATM   32  C   UNL     1       7.319  32.280  59.029  1.00  0.00     0.128 C 
HETATM   33  C   UNL     1       9.398  32.037  61.510  1.00  0.00     0.254 C 
HETATM   34  N   UNL     1       7.990  32.412  61.985  1.00  0.00    -0.073 N 
HETATM   35  H   UNL     1       7.780  33.360  61.649  1.00  0.00     0.279 HD
HETATM   36  C   UNL     1       7.958  32.502  63.494  1.00  0.00     0.269 C 
HETATM   37  C   UNL     1       6.927  31.463  61.472  1.00  0.00     0.236 C 
HETATM   38  C   UNL     1       6.337  31.896  60.133  1.00  0.00     0.048 C 
HETATM   39  O   UNL     1      10.074  29.904  59.017  1.00  0.00    -0.265 OA
ENDBRANCH   6  29
TORSDOF 7
ENDMDL
MODEL 4
REMARK VINA RESULT:     -10.0      5.382      8.726
REMARK  7 active torsions:
REMARK  status: ('A' for Active; 'I' for Inactive)
REMARK    1  A    between atoms: C_4  and  C_5 
REMARK    2  A    between atoms: C_5  and  C_6 
REMARK    3  A    between atoms: C_6  and  C_7 
REMARK    4  A    between atoms: C_7  and  N_8 
REMARK    5  A    between atoms: C_12  and  O_13 
REMARK    6  A    between atoms: C_12  and  C_14 
REMARK    7  A    between atoms: C_19  and  C_20 
REMARK       I    between atoms: C_20  and  N_21 
ROOT
HETATM    1  C   UNL     1       5.861  27.771  55.500  1.00  0.00    -0.023 A 
HETATM    2  C   UNL     1       4.648  28.006  54.810  1.00  0.00     0.024 A 
HETATM    3  C   UNL     1       4.657  28.356  53.442  1.00  0.00     0.001 A 
HETATM    4  C   UNL     1       5.873  28.445  52.787  1.00  0.00     0.086 A 
HETATM    5  O   UNL     1       5.688  28.783  51.481  1.00  0.00    -0.304 OA
HETATM    6  C   UNL     1       4.343  28.924  51.278  1.00  0.00     0.144 A 
HETATM    7  C   UNL     1       3.676  28.645  52.462  1.00  0.00     0.057 A 
HETATM    8  C   UNL     1       7.094  28.192  53.397  1.00  0.00     0.039 A 
HETATM    9  C   UNL     1       7.060  27.842  54.757  1.00  0.00     0.013 A 
ENDROOT
BRANCH   1  10
HETATM   10  C   UNL     1       5.866  27.349  56.979  1.00  0.00     0.088 C 
HETATM   11  C   UNL     1       7.253  27.321  57.650  1.00  0.00     0.071 C 
HETATM   12  C   UNL     1       8.131  26.202  57.115  1.00  0.00     0.238 C 
HETATM   13  N   UNL     1       7.456  24.864  57.321  1.00  0.00    -0.071 N 
HETATM   14  H   UNL     1       7.361  24.708  58.335  1.00  0.00     0.279 HD
HETATM   15  C   UNL     1       6.061  24.830  56.729  1.00  0.00     0.238 C 
HETATM   16  C   UNL     1       5.228  25.976  57.274  1.00  0.00     0.071 C 
BRANCH  13  17
HETATM   17  C   UNL     1       8.272  23.699  56.766  1.00  0.00     0.235 C 
BRANCH  17  18
HETATM   18  C   UNL     1       7.389  22.698  56.020  1.00  0.00     0.038 C 
BRANCH  18  19
HETATM   19  C   UNL     1       7.980  22.329  54.643  1.00  0.00     0.040 C 
HETATM   20  C   UNL     1       9.496  22.140  54.743  1.00  0.00     0.017 C 
BRANCH  19  21
HETATM   21  C   UNL     1       7.620  23.359  53.623  1.00  0.00     0.057 A 
HETATM   22  O   UNL     1       6.288  23.637  53.517  1.00  0.00    -0.319 OA
HETATM   23  C   UNL     1       6.149  24.584  52.548  1.00  0.00     0.049 A 
HETATM   24  C   UNL     1       4.769  25.003  52.231  1.00  0.00     0.076 C 
HETATM   25  C   UNL     1       7.385  24.943  52.058  1.00  0.00     0.035 A 
HETATM   26  C   UNL     1       8.335  24.156  52.753  1.00  0.00     0.035 A 
ENDBRANCH  19  21
ENDBRANCH  18  19
ENDBRANCH  17  18
ENDBRANCH  13  17
BRANCH  10  27
HETATM   27  O   UNL     1       5.092  28.311  57.701  1.00  0.00    -0.385 OA
HETATM   28  H   UNL     1       5.622  28.692  58.425  1.00  0.00     0.211 HD
ENDBRANCH  10  27
ENDBRANCH   1  10
BRANCH   6  29
HETATM   29  C   UNL     1       3.786  29.240  49.972  1.00  0.00     0.277 C 
HETATM   30  N   UNL     1       3.462  30.560  49.614  1.00  0.00    -0.345 N 
HETATM   31  C   UNL     1       2.880  30.771  48.283  1.00  0.00     0.154 C 
HETATM   32  C   UNL     1       3.780  31.766  50.365  1.00  0.00     0.128 C 
HETATM   33  C   UNL     1       3.931  31.048  47.202  1.00  0.00     0.254 C 
HETATM   34  N   UNL     1       4.786  32.273  47.547  1.00  0.00    -0.073 N 
HETATM   35  H   UNL     1       4.156  33.038  47.818  1.00  0.00     0.279 HD
HETATM   36  C   UNL     1       5.511  32.763  46.314  1.00  0.00     0.269 C 
HETATM   37  C   UNL     1       5.754  32.010  48.681  1.00  0.00     0.236 C 
HETATM   38  C   UNL     1       5.166  32.326  50.053  1.00  0.00     0.048 C 
HETATM   39  O   UNL     1       3.587  28.343  49.149  1.00  0.00    -0.265 OA
ENDBRANCH   6  29
TORSDOF 7
ENDMDL
MODEL 5
REMARK VINA RESULT:      -9.9      1.602      2.535
REMARK  7 active torsions:
REMARK  status: ('A' for Active; 'I' for Inactive)
REMARK    1  A    between atoms: C_4  and  C_5 
REMARK    2  A    between atoms: C_5  and  C_6 
REMARK    3  A    between atoms: C_6  and  C_7 
REMARK    4  A    between atoms: C_7  and  N_8 
REMARK    5  A    between atoms: C_12  and  O_13 
REMARK    6  A    between atoms: C_12  and  C_14 
REMARK    7  A    between atoms: C_19  and  C_20 
REMARK       I    between atoms: C_20  and  N_21 
ROOT
HETATM    1  C   UNL     1       5.245  29.612  55.925  1.00  0.00    -0.023 A 
HETATM    2  C   UNL     1       5.971  30.540  56.710  1.00  0.00     0.024 A 
HETATM    3  C   UNL     1       5.318  31.312  57.695  1.00  0.00     0.001 A 
HETATM    4  C   UNL     1       3.960  31.129  57.891  1.00  0.00     0.086 A 
HETATM    5  O   UNL     1       3.506  31.947  58.880  1.00  0.00    -0.304 OA
HETATM    6  C   UNL     1       4.570  32.678  59.332  1.00  0.00     0.144 A 
HETATM    7  C   UNL     1       5.709  32.294  58.639  1.00  0.00     0.057 A 
HETATM    8  C   UNL     1       3.199  30.211  57.180  1.00  0.00     0.039 A 
HETATM    9  C   UNL     1       3.871  29.451  56.208  1.00  0.00     0.013 A 
ENDROOT
BRANCH   1  10
HETATM   10  C   UNL     1       5.949  28.735  54.877  1.00  0.00     0.088 C 
HETATM   11  C   UNL     1       5.422  27.290  54.768  1.00  0.00     0.071 C 
HETATM   12  C   UNL     1       5.762  26.458  55.993  1.00  0.00     0.238 C 
HETATM   13  N   UNL     1       7.259  26.422  56.202  1.00  0.00    -0.071 N 
HETATM   14  H   UNL     1       7.683  25.945  55.392  1.00  0.00     0.279 HD
HETATM   15  C   UNL     1       7.861  27.812  56.270  1.00  0.00     0.238 C 
HETATM   16  C   UNL     1       7.479  28.613  55.039  1.00  0.00     0.071 C 
BRANCH  13  17
HETATM   17  C   UNL     1       7.664  25.632  57.445  1.00  0.00     0.235 C 
BRANCH  17  18
HETATM   18  C   UNL     1       8.586  24.463  57.094  1.00  0.00     0.038 C 
BRANCH  18  19
HETATM   19  C   UNL     1       7.790  23.227  56.627  1.00  0.00     0.040 C 
HETATM   20  C   UNL     1       8.315  21.962  57.309  1.00  0.00     0.017 C 
BRANCH  19  21
HETATM   21  C   UNL     1       7.831  23.106  55.138  1.00  0.00     0.057 A 
HETATM   22  O   UNL     1       7.918  24.287  54.458  1.00  0.00    -0.319 OA
HETATM   23  C   UNL     1       7.940  23.987  53.130  1.00  0.00     0.049 A 
HETATM   24  C   UNL     1       7.985  25.131  52.197  1.00  0.00     0.076 C 
HETATM   25  C   UNL     1       7.906  22.621  52.954  1.00  0.00     0.035 A 
HETATM   26  C   UNL     1       7.838  22.052  54.249  1.00  0.00     0.035 A 
ENDBRANCH  19  21
ENDBRANCH  18  19
ENDBRANCH  17  18
ENDBRANCH  13  17
BRANCH  10  27
HETATM   27  O   UNL     1       5.731  29.337  53.598  1.00  0.00    -0.385 OA
HETATM   28  H   UNL     1       6.502  29.879  53.347  1.00  0.00     0.211 HD
ENDBRANCH  10  27
ENDBRANCH   1  10
BRANCH   6  29
HETATM   29  C   UNL     1       4.448  33.626  60.428  1.00  0.00     0.277 C 
HETATM   30  N   UNL     1       4.254  33.195  61.751  1.00  0.00    -0.345 N 
HETATM   31  C   UNL     1       4.114  34.231  62.782  1.00  0.00     0.154 C 
HETATM   32  C   UNL     1       4.325  31.824  62.237  1.00  0.00     0.128 C 
HETATM   33  C   UNL     1       5.450  34.631  63.419  1.00  0.00     0.254 C 
HETATM   34  N   UNL     1       6.158  33.426  64.049  1.00  0.00    -0.073 N 
HETATM   35  H   UNL     1       5.476  32.920  64.628  1.00  0.00     0.279 HD
HETATM   36  C   UNL     1       7.231  33.896  65.005  1.00  0.00     0.269 C 
HETATM   37  C   UNL     1       6.725  32.475  63.016  1.00  0.00     0.236 C 
HETATM   38  C   UNL     1       5.740  31.385  62.605  1.00  0.00     0.048 C 
HETATM   39  O   UNL     1       4.512  34.839  60.210  1.00  0.00    -0.265 OA
ENDBRANCH   6  29
TORSDOF 7
ENDMDL
MODEL 6
REMARK VINA RESULT:      -9.9      2.152      4.447
REMARK  7 active torsions:
REMARK  status: ('A' for Active; 'I' for Inactive)
REMARK    1  A    between atoms: C_4  and  C_5 
REMARK    2  A    between atoms: C_5  and  C_6 
REMARK    3  A    between atoms: C_6  and  C_7 
REMARK    4  A    between atoms: C_7  and  N_8 
REMARK    5  A    between atoms: C_12  and  O_13 
REMARK    6  A    between atoms: C_12  and  C_14 
REMARK    7  A    between atoms: C_19  and  C_20 
REMARK       I    between atoms: C_20  and  N_21 
ROOT
HETATM    1  C   UNL     1       6.326  27.576  53.928  1.00  0.00    -0.023 A 
HETATM    2  C   UNL     1       5.604  28.098  55.027  1.00  0.00     0.024 A 
HETATM    3  C   UNL     1       6.260  28.851  56.024  1.00  0.00     0.001 A 
HETATM    4  C   UNL     1       7.619  29.085  55.894  1.00  0.00     0.086 A 
HETATM    5  O   UNL     1       8.077  29.830  56.937  1.00  0.00    -0.304 OA
HETATM    6  C   UNL     1       7.015  30.082  57.763  1.00  0.00     0.144 A 
HETATM    7  C   UNL     1       5.874  29.512  57.217  1.00  0.00     0.057 A 
HETATM    8  C   UNL     1       8.377  28.631  54.823  1.00  0.00     0.039 A 
HETATM    9  C   UNL     1       7.700  27.887  53.841  1.00  0.00     0.013 A 
ENDROOT
BRANCH   1  10
HETATM   10  C   UNL     1       5.618  26.789  52.812  1.00  0.00     0.088 C 
HETATM   11  C   UNL     1       4.863  25.527  53.275  1.00  0.00     0.071 C 
HETATM   12  C   UNL     1       5.804  24.427  53.736  1.00  0.00     0.238 C 
HETATM   13  N   UNL     1       6.754  24.051  52.621  1.00  0.00    -0.071 N 
HETATM   14  H   UNL     1       6.198  23.661  51.846  1.00  0.00     0.279 HD
HETATM   15  C   UNL     1       7.501  25.253  52.077  1.00  0.00     0.238 C 
HETATM   16  C   UNL     1       6.524  26.333  51.650  1.00  0.00     0.071 C 
BRANCH  13  17
HETATM   17  C   UNL     1       7.755  22.976  53.035  1.00  0.00     0.235 C 
BRANCH  17  18
HETATM   18  C   UNL     1       7.414  22.386  54.405  1.00  0.00     0.038 C 
BRANCH  18  19
HETATM   19  C   UNL     1       8.480  22.742  55.462  1.00  0.00     0.040 C 
HETATM   20  C   UNL     1       8.791  21.527  56.340  1.00  0.00     0.017 C 
BRANCH  19  21
HETATM   21  C   UNL     1       8.040  23.913  56.280  1.00  0.00     0.057 A 
HETATM   22  O   UNL     1       6.689  24.054  56.419  1.00  0.00    -0.319 OA
HETATM   23  C   UNL     1       6.476  25.162  57.181  1.00  0.00     0.049 A 
HETATM   24  C   UNL     1       5.067  25.534  57.422  1.00  0.00     0.076 C 
HETATM   25  C   UNL     1       7.680  25.711  57.563  1.00  0.00     0.035 A 
HETATM   26  C   UNL     1       8.689  24.904  56.984  1.00  0.00     0.035 A 
ENDBRANCH  19  21
ENDBRANCH  18  19
ENDBRANCH  17  18
ENDBRANCH  13  17
BRANCH  10  27
HETATM   27  O   UNL     1       4.635  27.654  52.236  1.00  0.00    -0.385 OA
HETATM   28  H   UNL     1       4.979  28.565  52.187  1.00  0.00     0.211 HD
ENDBRANCH  10  27
ENDBRANCH   1  10
BRANCH   6  29
HETATM   29  C   UNL     1       7.142  30.897  58.960  1.00  0.00     0.277 C 
HETATM   30  N   UNL     1       6.492  32.138  59.073  1.00  0.00    -0.345 N 
HETATM   31  C   UNL     1       6.705  32.898  60.310  1.00  0.00     0.154 C 
HETATM   32  C   UNL     1       5.506  32.689  58.154  1.00  0.00     0.128 C 
HETATM   33  C   UNL     1       5.668  32.588  61.395  1.00  0.00     0.254 C 
HETATM   34  N   UNL     1       4.241  32.865  60.907  1.00  0.00    -0.073 N 
HETATM   35  H   UNL     1       4.226  33.797  60.473  1.00  0.00     0.279 HD
HETATM   36  C   UNL     1       3.298  32.953  62.084  1.00  0.00     0.269 C 
HETATM   37  C   UNL     1       3.761  31.846  59.896  1.00  0.00     0.236 C 
HETATM   38  C   UNL     1       4.079  32.238  58.456  1.00  0.00     0.048 C 
HETATM   39  O   UNL     1       7.831  30.508  59.906  1.00  0.00    -0.265 OA
ENDBRANCH   6  29
TORSDOF 7
ENDMDL
MODEL 7
REMARK VINA RESULT:      -9.9      4.471      9.456
REMARK  7 active torsions:
REMARK  status: ('A' for Active; 'I' for Inactive)
REMARK    1  A    between atoms: C_4  and  C_5 
REMARK    2  A    between atoms: C_5  and  C_6 
REMARK    3  A    between atoms: C_6  and  C_7 
REMARK    4  A    between atoms: C_7  and  N_8 
REMARK    5  A    between atoms: C_12  and  O_13 
REMARK    6  A    between atoms: C_12  and  C_14 
REMARK    7  A    between atoms: C_19  and  C_20 
REMARK       I    between atoms: C_20  and  N_21 
ROOT
HETATM    1  C   UNL     1       4.286  34.017  64.559  1.00  0.00    -0.023 A 
HETATM    2  C   UNL     1       5.464  33.669  65.261  1.00  0.00     0.024 A 
HETATM    3  C   UNL     1       5.736  34.228  66.529  1.00  0.00     0.001 A 
HETATM    4  C   UNL     1       4.818  35.106  67.079  1.00  0.00     0.086 A 
HETATM    5  O   UNL     1       5.241  35.536  68.299  1.00  0.00    -0.304 OA
HETATM    6  C   UNL     1       6.447  34.942  68.551  1.00  0.00     0.144 A 
HETATM    7  C   UNL     1       6.771  34.110  67.489  1.00  0.00     0.057 A 
HETATM    8  C   UNL     1       3.628  35.461  66.458  1.00  0.00     0.039 A 
HETATM    9  C   UNL     1       3.377  34.888  65.199  1.00  0.00     0.013 A 
ENDROOT
BRANCH   1  10
HETATM   10  C   UNL     1       3.955  33.385  63.197  1.00  0.00     0.088 C 
HETATM   11  C   UNL     1       4.559  31.988  62.956  1.00  0.00     0.071 C 
HETATM   12  C   UNL     1       6.070  32.030  62.801  1.00  0.00     0.238 C 
HETATM   13  N   UNL     1       6.452  32.937  61.652  1.00  0.00    -0.071 N 
HETATM   14  H   UNL     1       6.075  32.528  60.784  1.00  0.00     0.279 HD
HETATM   15  C   UNL     1       5.851  34.322  61.792  1.00  0.00     0.238 C 
HETATM   16  C   UNL     1       4.346  34.229  61.967  1.00  0.00     0.071 C 
BRANCH  13  17
HETATM   17  C   UNL     1       7.963  33.055  61.469  1.00  0.00     0.235 C 
BRANCH  17  18
HETATM   18  C   UNL     1       8.429  32.375  60.180  1.00  0.00     0.038 C 
BRANCH  18  19
HETATM   19  C   UNL     1       8.460  30.839  60.322  1.00  0.00     0.040 C 
HETATM   20  C   UNL     1       9.323  30.429  61.518  1.00  0.00     0.017 C 
BRANCH  19  21
HETATM   21  C   UNL     1       8.936  30.203  59.057  1.00  0.00     0.057 A 
HETATM   22  O   UNL     1       8.206  29.130  58.631  1.00  0.00    -0.319 OA
HETATM   23  C   UNL     1       8.780  28.683  57.480  1.00  0.00     0.049 A 
HETATM   24  C   UNL     1       8.173  27.485  56.865  1.00  0.00     0.076 C 
HETATM   25  C   UNL     1       9.849  29.483  57.144  1.00  0.00     0.035 A 
HETATM   26  C   UNL     1       9.948  30.466  58.158  1.00  0.00     0.035 A 
ENDBRANCH  19  21
ENDBRANCH  18  19
ENDBRANCH  17  18
ENDBRANCH  13  17
BRANCH  10  27
HETATM   27  O   UNL     1       2.535  33.223  63.134  1.00  0.00    -0.385 OA
HETATM   28  H   UNL     1       2.166  33.152  64.034  1.00  0.00     0.211 HD
ENDBRANCH  10  27
ENDBRANCH   1  10
BRANCH   6  29
HETATM   29  C   UNL     1       7.165  35.147  69.799  1.00  0.00     0.277 C 
HETATM   30  N   UNL     1       6.641  34.704  71.026  1.00  0.00    -0.345 N 
HETATM   31  C   UNL     1       7.429  34.983  72.233  1.00  0.00     0.154 C 
HETATM   32  C   UNL     1       5.468  33.863  71.217  1.00  0.00     0.128 C 
HETATM   33  C   UNL     1       8.413  33.862  72.583  1.00  0.00     0.254 C 
HETATM   34  N   UNL     1       7.694  32.522  72.784  1.00  0.00    -0.073 N 
HETATM   35  H   UNL     1       6.894  32.679  73.410  1.00  0.00     0.279 HD
HETATM   36  C   UNL     1       8.596  31.554  73.516  1.00  0.00     0.269 C 
HETATM   37  C   UNL     1       7.192  31.927  71.486  1.00  0.00     0.236 C 
HETATM   38  C   UNL     1       5.775  32.369  71.136  1.00  0.00     0.048 C 
HETATM   39  O   UNL     1       8.257  35.720  69.800  1.00  0.00    -0.265 OA
ENDBRANCH   6  29
TORSDOF 7
ENDMDL
MODEL 8
REMARK VINA RESULT:      -9.6      2.380      3.050
REMARK  7 active torsions:
REMARK  status: ('A' for Active; 'I' for Inactive)
REMARK    1  A    between atoms: C_4  and  C_5 
REMARK    2  A    between atoms: C_5  and  C_6 
REMARK    3  A    between atoms: C_6  and  C_7 
REMARK    4  A    between atoms: C_7  and  N_8 
REMARK    5  A    between atoms: C_12  and  O_13 
REMARK    6  A    between atoms: C_12  and  C_14 
REMARK    7  A    between atoms: C_19  and  C_20 
REMARK       I    between atoms: C_20  and  N_21 
ROOT
HETATM    1  C   UNL     1       6.314  29.914  57.688  1.00  0.00    -0.023 A 
HETATM    2  C   UNL     1       6.384  31.290  58.010  1.00  0.00     0.024 A 
HETATM    3  C   UNL     1       5.239  32.109  57.912  1.00  0.00     0.001 A 
HETATM    4  C   UNL     1       4.044  31.536  57.514  1.00  0.00     0.086 A 
HETATM    5  O   UNL     1       3.053  32.469  57.485  1.00  0.00    -0.304 OA
HETATM    6  C   UNL     1       3.602  33.665  57.858  1.00  0.00     0.144 A 
HETATM    7  C   UNL     1       4.944  33.474  58.152  1.00  0.00     0.057 A 
HETATM    8  C   UNL     1       3.900  30.187  57.218  1.00  0.00     0.039 A 
HETATM    9  C   UNL     1       5.053  29.391  57.327  1.00  0.00     0.013 A 
ENDROOT
BRANCH   1  10
HETATM   10  C   UNL     1       7.542  29.000  57.829  1.00  0.00     0.088 C 
HETATM   11  C   UNL     1       8.697  29.293  56.851  1.00  0.00     0.071 C 
HETATM   12  C   UNL     1       8.342  28.939  55.416  1.00  0.00     0.238 C 
HETATM   13  N   UNL     1       7.971  27.477  55.315  1.00  0.00    -0.071 N 
HETATM   14  H   UNL     1       8.801  26.919  55.563  1.00  0.00     0.279 HD
HETATM   15  C   UNL     1       6.870  27.098  56.287  1.00  0.00     0.238 C 
HETATM   16  C   UNL     1       7.258  27.489  57.701  1.00  0.00     0.071 C 
BRANCH  13  17
HETATM   17  C   UNL     1       7.564  27.067  53.902  1.00  0.00     0.235 C 
BRANCH  17  18
HETATM   18  C   UNL     1       6.266  26.257  53.902  1.00  0.00     0.038 C 
BRANCH  18  19
HETATM   19  C   UNL     1       6.346  25.050  52.945  1.00  0.00     0.040 C 
HETATM   20  C   UNL     1       4.969  24.743  52.352  1.00  0.00     0.017 C 
BRANCH  19  21
HETATM   21  C   UNL     1       6.920  23.861  53.645  1.00  0.00     0.057 A 
HETATM   22  O   UNL     1       7.345  22.851  52.830  1.00  0.00    -0.319 OA
HETATM   23  C   UNL     1       7.828  21.862  53.632  1.00  0.00     0.049 A 
HETATM   24  C   UNL     1       8.304  20.639  52.955  1.00  0.00     0.076 C 
HETATM   25  C   UNL     1       7.751  22.245  54.953  1.00  0.00     0.035 A 
HETATM   26  C   UNL     1       7.168  23.535  54.962  1.00  0.00     0.035 A 
ENDBRANCH  19  21
ENDBRANCH  18  19
ENDBRANCH  17  18
ENDBRANCH  13  17
BRANCH  10  27
HETATM   27  O   UNL     1       8.072  29.195  59.143  1.00  0.00    -0.385 OA
HETATM   28  H   UNL     1       9.018  29.427  59.092  1.00  0.00     0.211 HD
ENDBRANCH  10  27
ENDBRANCH   1  10
BRANCH   6  29
HETATM   29  C   UNL     1       2.807  34.877  57.979  1.00  0.00     0.277 C 
HETATM   30  N   UNL     1       2.259  35.274  59.212  1.00  0.00    -0.345 N 
HETATM   31  C   UNL     1       1.449  36.497  59.224  1.00  0.00     0.154 C 
HETATM   32  C   UNL     1       2.531  34.681  60.514  1.00  0.00     0.128 C 
HETATM   33  C   UNL     1       2.267  37.760  59.516  1.00  0.00     0.254 C 
HETATM   34  N   UNL     1       2.998  37.660  60.860  1.00  0.00    -0.073 N 
HETATM   35  H   UNL     1       2.324  37.344  61.569  1.00  0.00     0.279 HD
HETATM   36  C   UNL     1       3.445  39.032  61.311  1.00  0.00     0.269 C 
HETATM   37  C   UNL     1       4.161  36.691  60.823  1.00  0.00     0.236 C 
HETATM   38  C   UNL     1       3.763  35.267  61.199  1.00  0.00     0.048 C 
HETATM   39  O   UNL     1       2.598  35.584  56.990  1.00  0.00    -0.265 OA
ENDBRANCH   6  29
TORSDOF 7
ENDMDL
MODEL 9
REMARK VINA RESULT:      -9.6      4.837     11.100
REMARK  7 active torsions:
REMARK  status: ('A' for Active; 'I' for Inactive)
REMARK    1  A    between atoms: C_4  and  C_5 
REMARK    2  A    between atoms: C_5  and  C_6 
REMARK    3  A    between atoms: C_6  and  C_7 
REMARK    4  A    between atoms: C_7  and  N_8 
REMARK    5  A    between atoms: C_12  and  O_13 
REMARK    6  A    between atoms: C_12  and  C_14 
REMARK    7  A    between atoms: C_19  and  C_20 
REMARK       I    between atoms: C_20  and  N_21 
ROOT
HETATM    1  C   UNL     1       6.377  25.783  54.341  1.00  0.00    -0.023 A 
HETATM    2  C   UNL     1       5.467  26.820  54.028  1.00  0.00     0.024 A 
HETATM    3  C   UNL     1       5.276  27.228  52.690  1.00  0.00     0.001 A 
HETATM    4  C   UNL     1       5.981  26.580  51.691  1.00  0.00     0.086 A 
HETATM    5  O   UNL     1       5.667  27.097  50.472  1.00  0.00    -0.304 OA
HETATM    6  C   UNL     1       4.754  28.097  50.671  1.00  0.00     0.144 A 
HETATM    7  C   UNL     1       4.473  28.188  52.026  1.00  0.00     0.057 A 
HETATM    8  C   UNL     1       6.861  25.532  51.927  1.00  0.00     0.039 A 
HETATM    9  C   UNL     1       7.031  25.141  53.267  1.00  0.00     0.013 A 
ENDROOT
BRANCH   1  10
HETATM   10  C   UNL     1       6.565  25.299  55.788  1.00  0.00     0.088 C 
HETATM   11  C   UNL     1       5.499  25.787  56.789  1.00  0.00     0.071 C 
HETATM   12  C   UNL     1       5.598  27.280  57.057  1.00  0.00     0.238 C 
HETATM   13  N   UNL     1       6.970  27.624  57.592  1.00  0.00    -0.071 N 
HETATM   14  H   UNL     1       7.086  27.151  58.500  1.00  0.00     0.279 HD
HETATM   15  C   UNL     1       8.079  27.130  56.683  1.00  0.00     0.238 C 
HETATM   16  C   UNL     1       7.927  25.643  56.426  1.00  0.00     0.071 C 
BRANCH  13  17
HETATM   17  C   UNL     1       7.148  29.120  57.844  1.00  0.00     0.235 C 
BRANCH  17  18
HETATM   18  C   UNL     1       8.556  29.443  58.348  1.00  0.00     0.038 C 
BRANCH  18  19
HETATM   19  C   UNL     1       8.667  30.903  58.834  1.00  0.00     0.040 C 
HETATM   20  C   UNL     1       9.998  31.516  58.391  1.00  0.00     0.017 C 
BRANCH  19  21
HETATM   21  C   UNL     1       8.493  30.979  60.316  1.00  0.00     0.057 A 
HETATM   22  O   UNL     1       7.303  31.498  60.739  1.00  0.00    -0.319 OA
HETATM   23  C   UNL     1       7.323  31.494  62.101  1.00  0.00     0.049 A 
HETATM   24  C   UNL     1       6.140  32.063  62.777  1.00  0.00     0.076 C 
HETATM   25  C   UNL     1       8.500  30.941  62.554  1.00  0.00     0.035 A 
HETATM   26  C   UNL     1       9.254  30.606  61.404  1.00  0.00     0.035 A 
ENDBRANCH  19  21
ENDBRANCH  18  19
ENDBRANCH  17  18
ENDBRANCH  13  17
BRANCH  10  27
HETATM   27  O   UNL     1       6.479  23.872  55.777  1.00  0.00    -0.385 OA
HETATM   28  H   UNL     1       5.553  23.591  55.893  1.00  0.00     0.211 HD
ENDBRANCH  10  27
ENDBRANCH   1  10
BRANCH   6  29
HETATM   29  C   UNL     1       4.165  28.838  49.567  1.00  0.00     0.277 C 
HETATM   30  N   UNL     1       4.130  28.308  48.265  1.00  0.00    -0.345 N 
HETATM   31  C   UNL     1       3.539  29.146  47.215  1.00  0.00     0.154 C 
HETATM   32  C   UNL     1       4.483  26.952  47.870  1.00  0.00     0.128 C 
HETATM   33  C   UNL     1       2.035  28.914  47.033  1.00  0.00     0.254 C 
HETATM   34  N   UNL     1       1.726  27.449  46.703  1.00  0.00    -0.073 N 
HETATM   35  H   UNL     1       2.358  27.150  45.949  1.00  0.00     0.279 HD
HETATM   36  C   UNL     1       0.332  27.328  46.133  1.00  0.00     0.269 C 
HETATM   37  C   UNL     1       1.912  26.530  47.892  1.00  0.00     0.236 C 
HETATM   38  C   UNL     1       3.326  25.965  47.994  1.00  0.00     0.048 C 
HETATM   39  O   UNL     1       3.682  29.957  49.758  1.00  0.00    -0.265 OA
ENDBRANCH   6  29
TORSDOF 7
ENDMDL
MODEL 10
REMARK VINA RESULT:      -9.4      2.501      3.821
REMARK  7 active torsions:
REMARK  status: ('A' for Active; 'I' for Inactive)
REMARK    1  A    between atoms: C_4  and  C_5 
REMARK    2  A    between atoms: C_5  and  C_6 
REMARK    3  A    between atoms: C_6  and  C_7 
REMARK    4  A    between atoms: C_7  and  N_8 
REMARK    5  A    between atoms: C_12  and  O_13 
REMARK    6  A    between atoms: C_12  and  C_14 
REMARK    7  A    between atoms: C_19  and  C_20 
REMARK       I    between atoms: C_20  and  N_21 
ROOT
HETATM    1  C   UNL     1       8.056  29.635  57.513  1.00  0.00    -0.023 A 
HETATM    2  C   UNL     1       6.809  30.092  57.024  1.00  0.00     0.024 A 
HETATM    3  C   UNL     1       6.062  31.048  57.746  1.00  0.00     0.001 A 
HETATM    4  C   UNL     1       6.583  31.543  58.930  1.00  0.00     0.086 A 
HETATM    5  O   UNL     1       5.735  32.454  59.480  1.00  0.00    -0.304 OA
HETATM    6  C   UNL     1       4.646  32.555  58.657  1.00  0.00     0.144 A 
HETATM    7  C   UNL     1       4.827  31.718  57.566  1.00  0.00     0.057 A 
HETATM    8  C   UNL     1       7.814  31.162  59.445  1.00  0.00     0.039 A 
HETATM    9  C   UNL     1       8.542  30.213  58.707  1.00  0.00     0.013 A 
ENDROOT
BRANCH   1  10
HETATM   10  C   UNL     1       8.900  28.625  56.719  1.00  0.00     0.088 C 
HETATM   11  C   UNL     1       8.691  28.650  55.192  1.00  0.00     0.071 C 
HETATM   12  C   UNL     1       7.320  28.133  54.788  1.00  0.00     0.238 C 
HETATM   13  N   UNL     1       7.127  26.719  55.289  1.00  0.00    -0.071 N 
HETATM   14  H   UNL     1       7.821  26.118  54.821  1.00  0.00     0.279 HD
HETATM   15  C   UNL     1       7.366  26.604  56.782  1.00  0.00     0.238 C 
HETATM   16  C   UNL     1       8.735  27.151  57.141  1.00  0.00     0.071 C 
BRANCH  13  17
HETATM   17  C   UNL     1       5.749  26.156  54.949  1.00  0.00     0.235 C 
BRANCH  17  18
HETATM   18  C   UNL     1       5.849  24.935  54.033  1.00  0.00     0.038 C 
BRANCH  18  19
HETATM   19  C   UNL     1       7.306  24.662  53.602  1.00  0.00     0.040 C 
HETATM   20  C   UNL     1       7.538  25.138  52.166  1.00  0.00     0.017 C 
BRANCH  19  21
HETATM   21  C   UNL     1       7.639  23.214  53.762  1.00  0.00     0.057 A 
HETATM   22  O   UNL     1       7.560  22.733  55.037  1.00  0.00    -0.319 OA
HETATM   23  C   UNL     1       7.897  21.415  54.993  1.00  0.00     0.049 A 
HETATM   24  C   UNL     1       7.924  20.699  56.284  1.00  0.00     0.076 C 
HETATM   25  C   UNL     1       8.155  21.037  53.694  1.00  0.00     0.035 A 
HETATM   26  C   UNL     1       7.986  22.196  52.899  1.00  0.00     0.035 A 
ENDBRANCH  19  21
ENDBRANCH  18  19
ENDBRANCH  17  18
ENDBRANCH  13  17
BRANCH  10  27
HETATM   27  O   UNL     1      10.276  28.950  56.939  1.00  0.00    -0.385 OA
HETATM   28  H   UNL     1      10.373  29.447  57.773  1.00  0.00     0.211 HD
ENDBRANCH  10  27
ENDBRANCH   1  10
BRANCH   6  29
HETATM   29  C   UNL     1       3.557  33.481  58.924  1.00  0.00     0.277 C 
HETATM   30  N   UNL     1       3.542  34.773  58.370  1.00  0.00    -0.345 N 
HETATM   31  C   UNL     1       2.413  35.641  58.722  1.00  0.00     0.154 C 
HETATM   32  C   UNL     1       4.452  35.295  57.361  1.00  0.00     0.128 C 
HETATM   33  C   UNL     1       1.237  35.527  57.746  1.00  0.00     0.254 C 
HETATM   34  N   UNL     1       1.661  35.858  56.311  1.00  0.00    -0.073 N 
HETATM   35  H   UNL     1       2.194  36.737  56.328  1.00  0.00     0.279 HD
HETATM   36  C   UNL     1       0.443  36.141  55.461  1.00  0.00     0.269 C 
HETATM   37  C   UNL     1       2.520  34.776  55.691  1.00  0.00     0.236 C 
HETATM   38  C   UNL     1       4.012  34.988  55.931  1.00  0.00     0.048 C 
HETATM   39  O   UNL     1       2.619  33.143  59.651  1.00  0.00    -0.265 OA
ENDBRANCH   6  29
TORSDOF 7
ENDMDL
