MODEL 1
REMARK VINA RESULT:      -9.5      0.000      0.000
REMARK  6 active torsions:
REMARK  status: ('A' for Active; 'I' for Inactive)
REMARK    1  A    between atoms: C_2  and  O_3 
REMARK    2  A    between atoms: O_3  and  C_4 
REMARK    3  A    between atoms: C_5  and  C_6 
REMARK    4  A    between atoms: C_10  and  C_11 
REMARK       I    between atoms: C_11  and  N_12 
REMARK    5  A    between atoms: N_12  and  N_13 
REMARK    6  A    between atoms: C_14  and  C_15 
ROOT
HETATM    1  C   UNL     1       9.179  29.567  57.216  1.00  0.00     0.289 C 
HETATM    2  N   UNL     1       8.035  29.323  56.470  1.00  0.00    -0.242 N 
HETATM    3  O   UNL     1      10.271  29.051  57.001  1.00  0.00    -0.264 OA
HETATM    4  H   UNL     1       7.163  29.771  56.716  1.00  0.00     0.192 HD
ENDROOT
BRANCH   1   5
HETATM    5  C   UNL     1       8.995  30.501  58.299  1.00  0.00     0.121 A 
HETATM    6  N   UNL     1       9.772  31.618  58.414  1.00  0.00    -0.272 N 
HETATM    7  N   UNL     1       9.469  32.395  59.464  1.00  0.00    -0.174 NA
HETATM    8  H   UNL     1      10.523  31.900  57.792  1.00  0.00     0.189 HD
HETATM    9  C   UNL     1       8.463  31.753  60.085  1.00  0.00     0.092 A 
HETATM   10  C   UNL     1       8.128  30.568  59.371  1.00  0.00     0.071 A 
BRANCH   9  11
HETATM   11  C   UNL     1       7.834  32.302  61.297  1.00  0.00     0.028 A 
HETATM   12  C   UNL     1       6.581  32.955  61.282  1.00  0.00     0.081 A 
HETATM   13  C   UNL     1       6.064  33.473  62.480  1.00  0.00     0.038 A 
HETATM   14  C   UNL     1       6.763  33.336  63.681  1.00  0.00     0.003 A 
HETATM   15  C   UNL     1       7.987  32.680  63.704  1.00  0.00     0.001 A 
HETATM   16  C   UNL     1       8.516  32.167  62.520  1.00  0.00     0.017 A 
BRANCH  12  17
HETATM   17  O   UNL     1       5.928  33.049  60.078  1.00  0.00    -0.351 OA
BRANCH  17  18
HETATM   18  C   UNL     1       4.710  32.324  59.920  1.00  0.00     0.171 C 
HETATM   19  C   UNL     1       4.666  31.799  58.496  1.00  0.00     0.034 C 
ENDBRANCH  17  18
ENDBRANCH  12  17
ENDBRANCH   9  11
ENDBRANCH   1   5
BRANCH   2  20
HETATM   20  N   UNL     1       8.077  28.481  55.393  1.00  0.00    -0.183 NA
HETATM   21  C   UNL     1       7.393  27.389  55.510  1.00  0.00     0.152 C 
BRANCH  21  22
HETATM   22  C   UNL     1       7.364  26.439  54.419  1.00  0.00     0.011 A 
HETATM   23  C   UNL     1       7.670  25.040  54.474  1.00  0.00     0.004 A 
HETATM   24  C   UNL     1       7.499  24.525  53.188  1.00  0.00     0.043 A 
HETATM   25  C   UNL     1       8.076  24.159  55.499  1.00  0.00     0.014 A 
HETATM   26  C   UNL     1       7.711  23.177  52.874  1.00  0.00     0.030 A 
HETATM   27  N   UNL     1       7.107  25.568  52.380  1.00  0.00    -0.364 N 
HETATM   28  C   UNL     1       8.113  22.327  53.908  1.00  0.00     0.002 A 
HETATM   29  C   UNL     1       8.294  22.808  55.203  1.00  0.00     0.001 A 
HETATM   30  H   UNL     1       6.909  25.489  51.393  1.00  0.00     0.165 HD
HETATM   31  C   UNL     1       7.023  26.722  53.109  1.00  0.00     0.102 A 
ENDBRANCH  21  22
ENDBRANCH   2  20
TORSDOF 6
ENDMDL
MODEL 2
REMARK VINA RESULT:      -9.4      1.225      1.869
REMARK  6 active torsions:
REMARK  status: ('A' for Active; 'I' for Inactive)
REMARK    1  A    between atoms: C_2  and  O_3 
REMARK    2  A    between atoms: O_3  and  C_4 
REMARK    3  A    between atoms: C_5  and  C_6 
REMARK    4  A    between atoms: C_10  and  C_11 
REMARK       I    between atoms: C_11  and  N_12 
REMARK    5  A    between atoms: N_12  and  N_13 
REMARK    6  A    between atoms: C_14  and  C_15 
ROOT
HETATM    1  C   UNL     1       9.040  29.299  57.490  1.00  0.00     0.289 C 
HETATM    2  N   UNL     1       8.188  28.212  57.625  1.00  0.00    -0.242 N 
HETATM    3  O   UNL     1       9.888  29.411  56.610  1.00  0.00    -0.264 OA
HETATM    4  H   UNL     1       7.524  28.179  58.387  1.00  0.00     0.192 HD
ENDROOT
BRANCH   1   5
HETATM    5  C   UNL     1       8.859  30.325  58.487  1.00  0.00     0.121 A 
HETATM    6  N   UNL     1       9.548  31.502  58.429  1.00  0.00    -0.272 N 
HETATM    7  N   UNL     1       9.260  32.361  59.418  1.00  0.00    -0.174 NA
HETATM    8  H   UNL     1      10.227  31.773  57.723  1.00  0.00     0.189 HD
HETATM    9  C   UNL     1       8.357  31.715  60.177  1.00  0.00     0.092 A 
HETATM   10  C   UNL     1       8.069  30.440  59.613  1.00  0.00     0.071 A 
BRANCH   9  11
HETATM   11  C   UNL     1       7.774  32.340  61.376  1.00  0.00     0.028 A 
HETATM   12  C   UNL     1       6.546  33.037  61.357  1.00  0.00     0.081 A 
HETATM   13  C   UNL     1       6.074  33.627  62.540  1.00  0.00     0.038 A 
HETATM   14  C   UNL     1       6.793  33.517  63.733  1.00  0.00     0.003 A 
HETATM   15  C   UNL     1       7.993  32.817  63.760  1.00  0.00     0.001 A 
HETATM   16  C   UNL     1       8.477  32.233  62.590  1.00  0.00     0.017 A 
BRANCH  12  17
HETATM   17  O   UNL     1       5.872  33.102  60.163  1.00  0.00    -0.351 OA
BRANCH  17  18
HETATM   18  C   UNL     1       4.615  32.435  60.068  1.00  0.00     0.171 C 
HETATM   19  C   UNL     1       3.568  33.471  59.699  1.00  0.00     0.034 C 
ENDBRANCH  17  18
ENDBRANCH  12  17
ENDBRANCH   9  11
ENDBRANCH   1   5
BRANCH   2  20
HETATM   20  N   UNL     1       8.232  27.182  56.727  1.00  0.00    -0.183 NA
HETATM   21  C   UNL     1       7.965  26.010  57.207  1.00  0.00     0.152 C 
BRANCH  21  22
HETATM   22  C   UNL     1       7.972  24.857  56.333  1.00  0.00     0.011 A 
HETATM   23  C   UNL     1       7.831  24.845  54.907  1.00  0.00     0.004 A 
HETATM   24  C   UNL     1       7.907  23.514  54.492  1.00  0.00     0.043 A 
HETATM   25  C   UNL     1       7.645  25.843  53.925  1.00  0.00     0.014 A 
HETATM   26  C   UNL     1       7.809  23.130  53.149  1.00  0.00     0.030 A 
HETATM   27  N   UNL     1       8.086  22.746  55.619  1.00  0.00    -0.364 N 
HETATM   28  C   UNL     1       7.626  24.138  52.198  1.00  0.00     0.002 A 
HETATM   29  C   UNL     1       7.544  25.476  52.578  1.00  0.00     0.001 A 
HETATM   30  H   UNL     1       8.176  21.740  55.622  1.00  0.00     0.165 HD
HETATM   31  C   UNL     1       8.126  23.542  56.730  1.00  0.00     0.102 A 
ENDBRANCH  21  22
ENDBRANCH   2  20
TORSDOF 6
ENDMDL
MODEL 3
REMARK VINA RESULT:      -9.2      6.384     10.566
REMARK  6 active torsions:
REMARK  status: ('A' for Active; 'I' for Inactive)
REMARK    1  A    between atoms: C_2  and  O_3 
REMARK    2  A    between atoms: O_3  and  C_4 
REMARK    3  A    between atoms: C_5  and  C_6 
REMARK    4  A    between atoms: C_10  and  C_11 
REMARK       I    between atoms: C_11  and  N_12 
REMARK    5  A    between atoms: N_12  and  N_13 
REMARK    6  A    between atoms: C_14  and  C_15 
ROOT
HETATM    1  C   UNL     1       5.299  26.401  51.689  1.00  0.00     0.289 C 
HETATM    2  N   UNL     1       5.325  26.567  50.311  1.00  0.00    -0.242 N 
HETATM    3  O   UNL     1       4.599  27.058  52.454  1.00  0.00    -0.264 OA
HETATM    4  H   UNL     1       5.941  26.001  49.744  1.00  0.00     0.192 HD
ENDROOT
BRANCH   1   5
HETATM    5  C   UNL     1       6.179  25.371  52.181  1.00  0.00     0.121 A 
HETATM    6  N   UNL     1       7.479  25.291  51.771  1.00  0.00    -0.272 N 
HETATM    7  N   UNL     1       8.174  24.290  52.330  1.00  0.00    -0.174 NA
HETATM    8  H   UNL     1       7.945  25.907  51.111  1.00  0.00     0.189 HD
HETATM    9  C   UNL     1       7.290  23.665  53.128  1.00  0.00     0.092 A 
HETATM   10  C   UNL     1       6.031  24.328  53.072  1.00  0.00     0.071 A 
BRANCH   9  11
HETATM   11  C   UNL     1       7.677  22.499  53.939  1.00  0.00     0.028 A 
HETATM   12  C   UNL     1       7.733  22.531  55.349  1.00  0.00     0.081 A 
HETATM   13  C   UNL     1       8.138  21.381  56.046  1.00  0.00     0.038 A 
HETATM   14  C   UNL     1       8.467  20.208  55.362  1.00  0.00     0.003 A 
HETATM   15  C   UNL     1       8.397  20.166  53.976  1.00  0.00     0.001 A 
HETATM   16  C   UNL     1       8.004  21.304  53.271  1.00  0.00     0.017 A 
BRANCH  12  17
HETATM   17  O   UNL     1       7.384  23.703  55.973  1.00  0.00    -0.351 OA
BRANCH  17  18
HETATM   18  C   UNL     1       8.392  24.396  56.706  1.00  0.00     0.171 C 
HETATM   19  C   UNL     1       7.717  25.528  57.462  1.00  0.00     0.034 C 
ENDBRANCH  17  18
ENDBRANCH  12  17
ENDBRANCH   9  11
ENDBRANCH   1   5
BRANCH   2  20
HETATM   20  N   UNL     1       4.514  27.489  49.709  1.00  0.00    -0.183 NA
HETATM   21  C   UNL     1       4.681  27.631  48.434  1.00  0.00     0.152 C 
BRANCH  21  22
HETATM   22  C   UNL     1       3.861  28.573  47.703  1.00  0.00     0.011 A 
HETATM   23  C   UNL     1       2.498  28.406  47.294  1.00  0.00     0.004 A 
HETATM   24  C   UNL     1       2.118  29.572  46.626  1.00  0.00     0.043 A 
HETATM   25  C   UNL     1       1.547  27.372  47.429  1.00  0.00     0.014 A 
HETATM   26  C   UNL     1       0.837  29.756  46.089  1.00  0.00     0.030 A 
HETATM   27  N   UNL     1       3.205  30.414  46.626  1.00  0.00    -0.364 N 
HETATM   28  C   UNL     1      -0.084  28.716  46.238  1.00  0.00     0.002 A 
HETATM   29  C   UNL     1       0.263  27.540  46.897  1.00  0.00     0.001 A 
HETATM   30  H   UNL     1       3.220  31.335  46.210  1.00  0.00     0.165 HD
HETATM   31  C   UNL     1       4.258  29.825  47.269  1.00  0.00     0.102 A 
ENDBRANCH  21  22
ENDBRANCH   2  20
TORSDOF 6
ENDMDL
MODEL 4
REMARK VINA RESULT:      -9.0      6.488     10.700
REMARK  6 active torsions:
REMARK  status: ('A' for Active; 'I' for Inactive)
REMARK    1  A    between atoms: C_2  and  O_3 
REMARK    2  A    between atoms: O_3  and  C_4 
REMARK    3  A    between atoms: C_5  and  C_6 
REMARK    4  A    between atoms: C_10  and  C_11 
REMARK       I    between atoms: C_11  and  N_12 
REMARK    5  A    between atoms: N_12  and  N_13 
REMARK    6  A    between atoms: C_14  and  C_15 
ROOT
HETATM    1  C   UNL     1       5.184  26.484  51.494  1.00  0.00     0.289 C 
HETATM    2  N   UNL     1       4.762  26.241  50.195  1.00  0.00    -0.242 N 
HETATM    3  O   UNL     1       4.851  27.459  52.161  1.00  0.00    -0.264 OA
HETATM    4  H   UNL     1       5.092  25.425  49.698  1.00  0.00     0.192 HD
ENDROOT
BRANCH   1   5
HETATM    5  C   UNL     1       6.072  25.482  52.029  1.00  0.00     0.121 A 
HETATM    6  N   UNL     1       7.413  25.509  51.769  1.00  0.00    -0.272 N 
HETATM    7  N   UNL     1       8.107  24.520  52.350  1.00  0.00    -0.174 NA
HETATM    8  H   UNL     1       7.907  26.193  51.203  1.00  0.00     0.189 HD
HETATM    9  C   UNL     1       7.184  23.793  53.003  1.00  0.00     0.092 A 
HETATM   10  C   UNL     1       5.897  24.378  52.837  1.00  0.00     0.071 A 
BRANCH   9  11
HETATM   11  C   UNL     1       7.556  22.605  53.789  1.00  0.00     0.028 A 
HETATM   12  C   UNL     1       7.506  22.572  55.200  1.00  0.00     0.081 A 
HETATM   13  C   UNL     1       7.904  21.406  55.873  1.00  0.00     0.038 A 
HETATM   14  C   UNL     1       8.331  20.280  55.165  1.00  0.00     0.003 A 
HETATM   15  C   UNL     1       8.366  20.301  53.777  1.00  0.00     0.001 A 
HETATM   16  C   UNL     1       7.981  21.456  53.096  1.00  0.00     0.017 A 
BRANCH  12  17
HETATM   17  O   UNL     1       7.064  23.699  55.846  1.00  0.00    -0.351 OA
BRANCH  17  18
HETATM   18  C   UNL     1       8.042  24.587  56.384  1.00  0.00     0.171 C 
HETATM   19  C   UNL     1       7.573  26.007  56.118  1.00  0.00     0.034 C 
ENDBRANCH  17  18
ENDBRANCH  12  17
ENDBRANCH   9  11
ENDBRANCH   1   5
BRANCH   2  20
HETATM   20  N   UNL     1       3.892  27.097  49.577  1.00  0.00    -0.183 NA
HETATM   21  C   UNL     1       3.233  26.600  48.581  1.00  0.00     0.152 C 
BRANCH  21  22
HETATM   22  C   UNL     1       2.276  27.422  47.871  1.00  0.00     0.011 A 
HETATM   23  C   UNL     1       2.510  28.696  47.259  1.00  0.00     0.004 A 
HETATM   24  C   UNL     1       1.306  29.110  46.686  1.00  0.00     0.043 A 
HETATM   25  C   UNL     1       3.635  29.540  47.134  1.00  0.00     0.014 A 
HETATM   26  C   UNL     1       1.169  30.321  45.996  1.00  0.00     0.030 A 
HETATM   27  N   UNL     1       0.376  28.129  46.941  1.00  0.00    -0.364 N 
HETATM   28  C   UNL     1       2.299  31.137  45.888  1.00  0.00     0.002 A 
HETATM   29  C   UNL     1       3.515  30.755  46.449  1.00  0.00     0.001 A 
HETATM   30  H   UNL     1      -0.589  28.160  46.643  1.00  0.00     0.165 HD
HETATM   31  C   UNL     1       0.947  27.111  47.652  1.00  0.00     0.102 A 
ENDBRANCH  21  22
ENDBRANCH   2  20
TORSDOF 6
ENDMDL
MODEL 5
REMARK VINA RESULT:      -9.0      2.144     10.031
REMARK  6 active torsions:
REMARK  status: ('A' for Active; 'I' for Inactive)
REMARK    1  A    between atoms: C_2  and  O_3 
REMARK    2  A    between atoms: O_3  and  C_4 
REMARK    3  A    between atoms: C_5  and  C_6 
REMARK    4  A    between atoms: C_10  and  C_11 
REMARK       I    between atoms: C_11  and  N_12 
REMARK    5  A    between atoms: N_12  and  N_13 
REMARK    6  A    between atoms: C_14  and  C_15 
ROOT
HETATM    1  C   UNL     1       7.242  29.577  57.916  1.00  0.00     0.289 C 
HETATM    2  N   UNL     1       6.499  30.743  57.803  1.00  0.00    -0.242 N 
HETATM    3  O   UNL     1       8.033  29.343  58.825  1.00  0.00    -0.264 OA
HETATM    4  H   UNL     1       5.879  30.876  57.016  1.00  0.00     0.192 HD
ENDROOT
BRANCH   1   5
HETATM    5  C   UNL     1       7.018  28.624  56.859  1.00  0.00     0.121 A 
HETATM    6  N   UNL     1       5.883  28.657  56.100  1.00  0.00    -0.272 N 
HETATM    7  N   UNL     1       5.828  27.715  55.147  1.00  0.00    -0.174 NA
HETATM    8  H   UNL     1       5.114  29.314  56.189  1.00  0.00     0.189 HD
HETATM    9  C   UNL     1       6.966  27.014  55.295  1.00  0.00     0.092 A 
HETATM   10  C   UNL     1       7.745  27.567  56.350  1.00  0.00     0.071 A 
BRANCH   9  11
HETATM   11  C   UNL     1       7.290  25.881  54.413  1.00  0.00     0.028 A 
HETATM   12  C   UNL     1       7.305  24.541  54.859  1.00  0.00     0.081 A 
HETATM   13  C   UNL     1       7.651  23.522  53.958  1.00  0.00     0.038 A 
HETATM   14  C   UNL     1       7.962  23.816  52.628  1.00  0.00     0.003 A 
HETATM   15  C   UNL     1       7.931  25.130  52.179  1.00  0.00     0.001 A 
HETATM   16  C   UNL     1       7.597  26.153  53.066  1.00  0.00     0.017 A 
BRANCH  12  17
HETATM   17  O   UNL     1       6.977  24.305  56.171  1.00  0.00    -0.351 OA
BRANCH  17  18
HETATM   18  C   UNL     1       7.885  23.540  56.960  1.00  0.00     0.171 C 
HETATM   19  C   UNL     1       9.083  24.420  57.272  1.00  0.00     0.034 C 
ENDBRANCH  17  18
ENDBRANCH  12  17
ENDBRANCH   9  11
ENDBRANCH   1   5
BRANCH   2  20
HETATM   20  N   UNL     1       6.592  31.719  58.757  1.00  0.00    -0.183 NA
HETATM   21  C   UNL     1       5.553  31.858  59.517  1.00  0.00     0.152 C 
BRANCH  21  22
HETATM   22  C   UNL     1       5.559  32.855  60.566  1.00  0.00     0.011 A 
HETATM   23  C   UNL     1       6.349  32.856  61.761  1.00  0.00     0.004 A 
HETATM   24  C   UNL     1       6.030  34.015  62.470  1.00  0.00     0.043 A 
HETATM   25  C   UNL     1       7.310  31.979  62.309  1.00  0.00     0.014 A 
HETATM   26  C   UNL     1       6.621  34.343  63.697  1.00  0.00     0.030 A 
HETATM   27  N   UNL     1       5.082  34.692  61.739  1.00  0.00    -0.364 N 
HETATM   28  C   UNL     1       7.570  33.457  64.216  1.00  0.00     0.002 A 
HETATM   29  C   UNL     1       7.910  32.291  63.535  1.00  0.00     0.001 A 
HETATM   30  H   UNL     1       4.664  35.571  62.011  1.00  0.00     0.165 HD
HETATM   31  C   UNL     1       4.791  34.005  60.593  1.00  0.00     0.102 A 
ENDBRANCH  21  22
ENDBRANCH   2  20
TORSDOF 6
ENDMDL
MODEL 6
REMARK VINA RESULT:      -8.9      1.772      3.215
REMARK  6 active torsions:
REMARK  status: ('A' for Active; 'I' for Inactive)
REMARK    1  A    between atoms: C_2  and  O_3 
REMARK    2  A    between atoms: O_3  and  C_4 
REMARK    3  A    between atoms: C_5  and  C_6 
REMARK    4  A    between atoms: C_10  and  C_11 
REMARK       I    between atoms: C_11  and  N_12 
REMARK    5  A    between atoms: N_12  and  N_13 
REMARK    6  A    between atoms: C_14  and  C_15 
ROOT
HETATM    1  C   UNL     1       8.757  28.912  57.547  1.00  0.00     0.289 C 
HETATM    2  N   UNL     1       7.971  27.772  57.638  1.00  0.00    -0.242 N 
HETATM    3  O   UNL     1       9.871  28.948  57.034  1.00  0.00    -0.264 OA
HETATM    4  H   UNL     1       7.069  27.813  58.090  1.00  0.00     0.192 HD
ENDROOT
BRANCH   1   5
HETATM    5  C   UNL     1       8.158  30.094  58.115  1.00  0.00     0.121 A 
HETATM    6  N   UNL     1       8.924  31.103  58.627  1.00  0.00    -0.272 N 
HETATM    7  N   UNL     1       8.222  32.141  59.104  1.00  0.00    -0.174 NA
HETATM    8  H   UNL     1       9.938  31.133  58.666  1.00  0.00     0.189 HD
HETATM    9  C   UNL     1       6.935  31.796  58.921  1.00  0.00     0.092 A 
HETATM   10  C   UNL     1       6.858  30.523  58.287  1.00  0.00     0.071 A 
BRANCH   9  11
HETATM   11  C   UNL     1       5.836  32.693  59.312  1.00  0.00     0.028 A 
HETATM   12  C   UNL     1       5.532  32.993  60.658  1.00  0.00     0.081 A 
HETATM   13  C   UNL     1       4.449  33.839  60.945  1.00  0.00     0.038 A 
HETATM   14  C   UNL     1       3.684  34.397  59.918  1.00  0.00     0.003 A 
HETATM   15  C   UNL     1       3.990  34.120  58.591  1.00  0.00     0.001 A 
HETATM   16  C   UNL     1       5.058  33.275  58.293  1.00  0.00     0.017 A 
BRANCH  12  17
HETATM   17  O   UNL     1       6.324  32.431  61.627  1.00  0.00    -0.351 OA
BRANCH  17  18
HETATM   18  C   UNL     1       7.085  33.305  62.459  1.00  0.00     0.171 C 
HETATM   19  C   UNL     1       7.901  32.445  63.408  1.00  0.00     0.034 C 
ENDBRANCH  17  18
ENDBRANCH  12  17
ENDBRANCH   9  11
ENDBRANCH   1   5
BRANCH   2  20
HETATM   20  N   UNL     1       8.406  26.588  57.110  1.00  0.00    -0.183 NA
HETATM   21  C   UNL     1       7.557  25.612  57.152  1.00  0.00     0.152 C 
BRANCH  21  22
HETATM   22  C   UNL     1       7.918  24.321  56.606  1.00  0.00     0.011 A 
HETATM   23  C   UNL     1       7.871  23.914  55.234  1.00  0.00     0.004 A 
HETATM   24  C   UNL     1       8.318  22.592  55.177  1.00  0.00     0.043 A 
HETATM   25  C   UNL     1       7.492  24.544  54.029  1.00  0.00     0.014 A 
HETATM   26  C   UNL     1       8.405  21.870  53.980  1.00  0.00     0.030 A 
HETATM   27  N   UNL     1       8.621  22.209  56.463  1.00  0.00    -0.364 N 
HETATM   28  C   UNL     1       8.024  22.519  52.802  1.00  0.00     0.002 A 
HETATM   29  C   UNL     1       7.573  23.837  52.823  1.00  0.00     0.001 A 
HETATM   30  H   UNL     1       8.970  21.298  56.725  1.00  0.00     0.165 HD
HETATM   31  C   UNL     1       8.385  23.239  57.329  1.00  0.00     0.102 A 
ENDBRANCH  21  22
ENDBRANCH   2  20
TORSDOF 6
ENDMDL
MODEL 7
REMARK VINA RESULT:      -8.9      7.399     11.196
REMARK  6 active torsions:
REMARK  status: ('A' for Active; 'I' for Inactive)
REMARK    1  A    between atoms: C_2  and  O_3 
REMARK    2  A    between atoms: O_3  and  C_4 
REMARK    3  A    between atoms: C_5  and  C_6 
REMARK    4  A    between atoms: C_10  and  C_11 
REMARK       I    between atoms: C_11  and  N_12 
REMARK    5  A    between atoms: N_12  and  N_13 
REMARK    6  A    between atoms: C_14  and  C_15 
ROOT
HETATM    1  C   UNL     1       5.431  27.148  50.780  1.00  0.00     0.289 C 
HETATM    2  N   UNL     1       6.007  25.888  50.852  1.00  0.00    -0.242 N 
HETATM    3  O   UNL     1       5.553  28.017  51.638  1.00  0.00    -0.264 OA
HETATM    4  H   UNL     1       5.849  25.215  50.115  1.00  0.00     0.192 HD
ENDROOT
BRANCH   1   5
HETATM    5  C   UNL     1       4.652  27.380  49.589  1.00  0.00     0.121 A 
HETATM    6  N   UNL     1       5.153  27.107  48.348  1.00  0.00    -0.272 N 
HETATM    7  N   UNL     1       4.303  27.361  47.342  1.00  0.00    -0.174 NA
HETATM    8  H   UNL     1       6.074  26.736  48.135  1.00  0.00     0.189 HD
HETATM    9  C   UNL     1       3.200  27.844  47.941  1.00  0.00     0.092 A 
HETATM   10  C   UNL     1       3.378  27.854  49.354  1.00  0.00     0.071 A 
BRANCH   9  11
HETATM   11  C   UNL     1       2.013  28.236  47.164  1.00  0.00     0.028 A 
HETATM   12  C   UNL     1       1.724  29.577  46.829  1.00  0.00     0.081 A 
HETATM   13  C   UNL     1       0.555  29.867  46.107  1.00  0.00     0.038 A 
HETATM   14  C   UNL     1      -0.310  28.847  45.703  1.00  0.00     0.003 A 
HETATM   15  C   UNL     1      -0.020  27.524  46.015  1.00  0.00     0.001 A 
HETATM   16  C   UNL     1       1.133  27.223  46.738  1.00  0.00     0.017 A 
BRANCH  12  17
HETATM   17  O   UNL     1       2.614  30.539  47.236  1.00  0.00    -0.351 OA
BRANCH  17  18
HETATM   18  C   UNL     1       3.240  31.337  46.234  1.00  0.00     0.171 C 
HETATM   19  C   UNL     1       4.665  30.838  46.068  1.00  0.00     0.034 C 
ENDBRANCH  17  18
ENDBRANCH  12  17
ENDBRANCH   9  11
ENDBRANCH   1   5
BRANCH   2  20
HETATM   20  N   UNL     1       6.798  25.548  51.915  1.00  0.00    -0.183 NA
HETATM   21  C   UNL     1       6.522  24.415  52.476  1.00  0.00     0.152 C 
BRANCH  21  22
HETATM   22  C   UNL     1       7.311  23.959  53.601  1.00  0.00     0.011 A 
HETATM   23  C   UNL     1       7.815  22.639  53.831  1.00  0.00     0.004 A 
HETATM   24  C   UNL     1       8.525  22.668  55.033  1.00  0.00     0.043 A 
HETATM   25  C   UNL     1       7.737  21.415  53.131  1.00  0.00     0.014 A 
HETATM   26  C   UNL     1       9.160  21.540  55.569  1.00  0.00     0.030 A 
HETATM   27  N   UNL     1       8.454  23.954  55.517  1.00  0.00    -0.364 N 
HETATM   28  C   UNL     1       9.067  20.343  54.853  1.00  0.00     0.002 A 
HETATM   29  C   UNL     1       8.365  20.278  53.652  1.00  0.00     0.001 A 
HETATM   30  H   UNL     1       8.881  24.270  56.376  1.00  0.00     0.165 HD
HETATM   31  C   UNL     1       7.728  24.738  54.665  1.00  0.00     0.102 A 
ENDBRANCH  21  22
ENDBRANCH   2  20
TORSDOF 6
ENDMDL
MODEL 8
REMARK VINA RESULT:      -8.8      2.405     10.128
REMARK  6 active torsions:
REMARK  status: ('A' for Active; 'I' for Inactive)
REMARK    1  A    between atoms: C_2  and  O_3 
REMARK    2  A    between atoms: O_3  and  C_4 
REMARK    3  A    between atoms: C_5  and  C_6 
REMARK    4  A    between atoms: C_10  and  C_11 
REMARK       I    between atoms: C_11  and  N_12 
REMARK    5  A    between atoms: N_12  and  N_13 
REMARK    6  A    between atoms: C_14  and  C_15 
ROOT
HETATM    1  C   UNL     1       8.295  31.279  59.313  1.00  0.00     0.289 C 
HETATM    2  N   UNL     1       7.335  31.156  60.308  1.00  0.00    -0.242 N 
HETATM    3  O   UNL     1       8.985  32.278  59.133  1.00  0.00    -0.264 OA
HETATM    4  H   UNL     1       6.791  30.309  60.386  1.00  0.00     0.192 HD
ENDROOT
BRANCH   1   5
HETATM    5  C   UNL     1       8.434  30.115  58.474  1.00  0.00     0.121 A 
HETATM    6  N   UNL     1       9.523  29.947  57.668  1.00  0.00    -0.272 N 
HETATM    7  N   UNL     1       9.515  28.808  56.960  1.00  0.00    -0.174 NA
HETATM    8  H   UNL     1      10.309  30.583  57.570  1.00  0.00     0.189 HD
HETATM    9  C   UNL     1       8.360  28.206  57.294  1.00  0.00     0.092 A 
HETATM   10  C   UNL     1       7.663  28.992  58.256  1.00  0.00     0.071 A 
BRANCH   9  11
HETATM   11  C   UNL     1       7.981  26.902  56.728  1.00  0.00     0.028 A 
HETATM   12  C   UNL     1       7.239  26.770  55.534  1.00  0.00     0.081 A 
HETATM   13  C   UNL     1       6.896  25.488  55.076  1.00  0.00     0.038 A 
HETATM   14  C   UNL     1       7.294  24.347  55.778  1.00  0.00     0.003 A 
HETATM   15  C   UNL     1       8.039  24.470  56.944  1.00  0.00     0.001 A 
HETATM   16  C   UNL     1       8.379  25.738  57.413  1.00  0.00     0.017 A 
BRANCH  12  17
HETATM   17  O   UNL     1       6.887  27.922  54.875  1.00  0.00    -0.351 OA
BRANCH  17  18
HETATM   18  C   UNL     1       7.042  27.956  53.458  1.00  0.00     0.171 C 
HETATM   19  C   UNL     1       5.730  28.433  52.860  1.00  0.00     0.034 C 
ENDBRANCH  17  18
ENDBRANCH  12  17
ENDBRANCH   9  11
ENDBRANCH   1   5
BRANCH   2  20
HETATM   20  N   UNL     1       7.123  32.176  61.195  1.00  0.00    -0.183 NA
HETATM   21  C   UNL     1       7.049  31.828  62.439  1.00  0.00     0.152 C 
BRANCH  21  22
HETATM   22  C   UNL     1       6.840  32.836  63.456  1.00  0.00     0.011 A 
HETATM   23  C   UNL     1       5.630  33.547  63.739  1.00  0.00     0.004 A 
HETATM   24  C   UNL     1       5.894  34.411  64.805  1.00  0.00     0.043 A 
HETATM   25  C   UNL     1       4.329  33.540  63.191  1.00  0.00     0.014 A 
HETATM   26  C   UNL     1       4.926  35.264  65.350  1.00  0.00     0.030 A 
HETATM   27  N   UNL     1       7.213  34.234  65.154  1.00  0.00    -0.364 N 
HETATM   28  C   UNL     1       3.646  35.235  64.788  1.00  0.00     0.002 A 
HETATM   29  C   UNL     1       3.349  34.387  63.724  1.00  0.00     0.001 A 
HETATM   30  H   UNL     1       7.682  34.730  65.899  1.00  0.00     0.165 HD
HETATM   31  C   UNL     1       7.791  33.291  64.351  1.00  0.00     0.102 A 
ENDBRANCH  21  22
ENDBRANCH   2  20
TORSDOF 6
ENDMDL
MODEL 9
REMARK VINA RESULT:      -8.7      2.237      9.967
REMARK  6 active torsions:
REMARK  status: ('A' for Active; 'I' for Inactive)
REMARK    1  A    between atoms: C_2  and  O_3 
REMARK    2  A    between atoms: O_3  and  C_4 
REMARK    3  A    between atoms: C_5  and  C_6 
REMARK    4  A    between atoms: C_10  and  C_11 
REMARK       I    between atoms: C_11  and  N_12 
REMARK    5  A    between atoms: N_12  and  N_13 
REMARK    6  A    between atoms: C_14  and  C_15 
ROOT
HETATM    1  C   UNL     1       7.400  29.709  58.420  1.00  0.00     0.289 C 
HETATM    2  N   UNL     1       6.454  30.724  58.435  1.00  0.00    -0.242 N 
HETATM    3  O   UNL     1       8.387  29.669  59.148  1.00  0.00    -0.264 OA
HETATM    4  H   UNL     1       5.674  30.700  57.793  1.00  0.00     0.192 HD
ENDROOT
BRANCH   1   5
HETATM    5  C   UNL     1       7.139  28.666  57.460  1.00  0.00     0.121 A 
HETATM    6  N   UNL     1       5.886  28.146  57.297  1.00  0.00    -0.272 N 
HETATM    7  N   UNL     1       5.801  27.195  56.356  1.00  0.00    -0.174 NA
HETATM    8  H   UNL     1       5.048  28.416  57.804  1.00  0.00     0.189 HD
HETATM    9  C   UNL     1       7.055  27.062  55.890  1.00  0.00     0.092 A 
HETATM   10  C   UNL     1       7.919  27.982  56.550  1.00  0.00     0.071 A 
BRANCH   9  11
HETATM   11  C   UNL     1       7.380  26.107  54.819  1.00  0.00     0.028 A 
HETATM   12  C   UNL     1       7.356  26.453  53.450  1.00  0.00     0.081 A 
HETATM   13  C   UNL     1       7.653  25.473  52.489  1.00  0.00     0.038 A 
HETATM   14  C   UNL     1       7.988  24.172  52.872  1.00  0.00     0.003 A 
HETATM   15  C   UNL     1       8.030  23.831  54.219  1.00  0.00     0.001 A 
HETATM   16  C   UNL     1       7.729  24.793  55.183  1.00  0.00     0.017 A 
BRANCH  12  17
HETATM   17  O   UNL     1       7.036  27.748  53.128  1.00  0.00    -0.351 OA
BRANCH  17  18
HETATM   18  C   UNL     1       5.809  27.983  52.440  1.00  0.00     0.171 C 
HETATM   19  C   UNL     1       4.975  28.925  53.291  1.00  0.00     0.034 C 
ENDBRANCH  17  18
ENDBRANCH  12  17
ENDBRANCH   9  11
ENDBRANCH   1   5
BRANCH   2  20
HETATM   20  N   UNL     1       6.564  31.760  59.321  1.00  0.00    -0.183 NA
HETATM   21  C   UNL     1       5.491  32.043  59.986  1.00  0.00     0.152 C 
BRANCH  21  22
HETATM   22  C   UNL     1       5.509  33.114  60.958  1.00  0.00     0.011 A 
HETATM   23  C   UNL     1       6.250  33.165  62.183  1.00  0.00     0.004 A 
HETATM   24  C   UNL     1       5.967  34.389  62.791  1.00  0.00     0.043 A 
HETATM   25  C   UNL     1       7.140  32.284  62.836  1.00  0.00     0.014 A 
HETATM   26  C   UNL     1       6.527  34.778  64.015  1.00  0.00     0.030 A 
HETATM   27  N   UNL     1       5.087  35.057  61.971  1.00  0.00    -0.364 N 
HETATM   28  C   UNL     1       7.404  33.886  64.638  1.00  0.00     0.002 A 
HETATM   29  C   UNL     1       7.708  32.656  64.060  1.00  0.00     0.001 A 
HETATM   30  H   UNL     1       4.707  35.974  62.160  1.00  0.00     0.165 HD
HETATM   31  C   UNL     1       4.805  34.301  60.868  1.00  0.00     0.102 A 
ENDBRANCH  21  22
ENDBRANCH   2  20
TORSDOF 6
ENDMDL
MODEL 10
REMARK VINA RESULT:      -8.7      1.340      2.550
REMARK  6 active torsions:
REMARK  status: ('A' for Active; 'I' for Inactive)
REMARK    1  A    between atoms: C_2  and  O_3 
REMARK    2  A    between atoms: O_3  and  C_4 
REMARK    3  A    between atoms: C_5  and  C_6 
REMARK    4  A    between atoms: C_10  and  C_11 
REMARK       I    between atoms: C_11  and  N_12 
REMARK    5  A    between atoms: N_12  and  N_13 
REMARK    6  A    between atoms: C_14  and  C_15 
ROOT
HETATM    1  C   UNL     1       8.491  28.954  57.143  1.00  0.00     0.289 C 
HETATM    2  N   UNL     1       7.527  28.113  56.607  1.00  0.00    -0.242 N 
HETATM    3  O   UNL     1       9.701  28.790  57.020  1.00  0.00    -0.264 OA
HETATM    4  H   UNL     1       6.546  28.301  56.763  1.00  0.00     0.192 HD
ENDROOT
BRANCH   1   5
HETATM    5  C   UNL     1       7.961  30.073  57.882  1.00  0.00     0.121 A 
HETATM    6  N   UNL     1       8.784  30.972  58.497  1.00  0.00    -0.272 N 
HETATM    7  N   UNL     1       8.142  31.965  59.130  1.00  0.00    -0.174 NA
HETATM    8  H   UNL     1       9.800  30.956  58.507  1.00  0.00     0.189 HD
HETATM    9  C   UNL     1       6.837  31.699  58.946  1.00  0.00     0.092 A 
HETATM   10  C   UNL     1       6.686  30.527  58.151  1.00  0.00     0.071 A 
BRANCH   9  11
HETATM   11  C   UNL     1       5.790  32.580  59.488  1.00  0.00     0.028 A 
HETATM   12  C   UNL     1       5.495  32.663  60.866  1.00  0.00     0.081 A 
HETATM   13  C   UNL     1       4.461  33.510  61.297  1.00  0.00     0.038 A 
HETATM   14  C   UNL     1       3.737  34.279  60.383  1.00  0.00     0.003 A 
HETATM   15  C   UNL     1       4.034  34.214  59.028  1.00  0.00     0.001 A 
HETATM   16  C   UNL     1       5.054  33.371  58.586  1.00  0.00     0.017 A 
BRANCH  12  17
HETATM   17  O   UNL     1       6.247  31.899  61.723  1.00  0.00    -0.351 OA
BRANCH  17  18
HETATM   18  C   UNL     1       6.682  32.494  62.944  1.00  0.00     0.171 C 
HETATM   19  C   UNL     1       8.190  32.335  63.025  1.00  0.00     0.034 C 
ENDBRANCH  17  18
ENDBRANCH  12  17
ENDBRANCH   9  11
ENDBRANCH   1   5
BRANCH   2  20
HETATM   20  N   UNL     1       7.893  27.030  55.856  1.00  0.00    -0.183 NA
HETATM   21  C   UNL     1       7.113  26.751  54.861  1.00  0.00     0.152 C 
BRANCH  21  22
HETATM   22  C   UNL     1       7.422  25.631  53.998  1.00  0.00     0.011 A 
HETATM   23  C   UNL     1       7.544  24.253  54.371  1.00  0.00     0.004 A 
HETATM   24  C   UNL     1       7.843  23.533  53.213  1.00  0.00     0.043 A 
HETATM   25  C   UNL     1       7.426  23.546  55.587  1.00  0.00     0.014 A 
HETATM   26  C   UNL     1       8.029  22.145  53.208  1.00  0.00     0.030 A 
HETATM   27  N   UNL     1       7.904  24.436  52.177  1.00  0.00    -0.364 N 
HETATM   28  C   UNL     1       7.906  21.470  54.425  1.00  0.00     0.002 A 
HETATM   29  C   UNL     1       7.610  22.158  55.600  1.00  0.00     0.001 A 
HETATM   30  H   UNL     1       8.104  24.197  51.216  1.00  0.00     0.165 HD
HETATM   31  C   UNL     1       7.654  25.699  52.637  1.00  0.00     0.102 A 
ENDBRANCH  21  22
ENDBRANCH   2  20
TORSDOF 6
ENDMDL
