MODEL 1
REMARK VINA RESULT:     -11.2      0.000      0.000
REMARK  7 active torsions:
REMARK  status: ('A' for Active; 'I' for Inactive)
REMARK    1  A    between atoms: C_2  and  N_3 
REMARK    2  A    between atoms: C_2  and  C_25 
REMARK       I    between atoms: N_3  and  C_4 
REMARK    3  A    between atoms: C_4  and  C_5 
REMARK    4  A    between atoms: C_8  and  C_9 
REMARK       I    between atoms: C_9  and  N_10 
REMARK    5  A    between atoms: N_10  and  C_11 
REMARK    6  A    between atoms: N_19  and  C_20 
REMARK    7  A    between atoms: C_33  and  O_34 
ROOT
HETATM    1  C   UNL     1       7.214  29.607  57.877  1.00  0.00     0.098 A 
HETATM    2  C   UNL     1       7.017  28.158  57.560  1.00  0.00     0.206 A 
HETATM    3  O   UNL     1       7.695  27.295  58.123  1.00  0.00    -0.286 OA
HETATM    4  C   UNL     1       5.976  27.773  56.561  1.00  0.00     0.098 A 
HETATM    5  C   UNL     1       5.300  28.778  55.977  1.00  0.00     0.112 A 
HETATM    6  N   UNL     1       5.526  30.114  56.243  1.00  0.00    -0.360 N 
HETATM    7  C   UNL     1       6.444  30.482  57.207  1.00  0.00     0.112 A 
ENDROOT
BRANCH   1   8
HETATM    8  C   UNL     1       8.200  30.121  58.871  1.00  0.00     0.257 C 
HETATM    9  N   UNL     1       7.641  30.711  59.971  1.00  0.00    -0.348 N 
HETATM   10  H   UNL     1       6.625  30.764  60.023  1.00  0.00     0.163 HD
HETATM   11  O   UNL     1       9.410  30.007  58.707  1.00  0.00    -0.267 OA
BRANCH   9  12
HETATM   12  C   UNL     1       8.393  31.264  61.083  1.00  0.00     0.114 C 
HETATM   13  C   UNL     1       9.340  32.371  60.619  1.00  0.00     0.037 C 
BRANCH  12  14
HETATM   14  C   UNL     1       7.411  31.754  62.135  1.00  0.00    -0.035 A 
HETATM   15  C   UNL     1       7.856  32.399  63.305  1.00  0.00     0.021 A 
HETATM   16  C   UNL     1       6.954  32.950  64.228  1.00  0.00    -0.025 A 
HETATM   17  C   UNL     1       5.569  32.838  63.990  1.00  0.00    -0.023 A 
HETATM   18  C   UNL     1       7.400  33.627  65.373  1.00  0.00     0.015 A 
HETATM   19  C   UNL     1       5.123  32.172  62.838  1.00  0.00     0.013 A 
HETATM   20  C   UNL     1       4.669  33.410  64.906  1.00  0.00     0.049 A 
HETATM   21  C   UNL     1       6.033  31.643  61.918  1.00  0.00     0.010 A 
HETATM   22  C   UNL     1       5.122  34.094  66.038  1.00  0.00     0.069 A 
HETATM   23  C   UNL     1       6.491  34.197  66.271  1.00  0.00     0.037 A 
BRANCH  22  24
HETATM   24  O   UNL     1       4.131  34.611  66.827  1.00  0.00    -0.356 OA
HETATM   25  C   UNL     1       3.773  35.968  66.604  1.00  0.00     0.210 C 
ENDBRANCH  22  24
ENDBRANCH  12  14
ENDBRANCH   9  12
ENDBRANCH   1   8
BRANCH   4  26
HETATM   26  C   UNL     1       5.649  26.367  56.191  1.00  0.00     0.257 C 
HETATM   27  N   UNL     1       6.101  25.972  54.956  1.00  0.00    -0.352 N 
HETATM   28  H   UNL     1       6.518  26.685  54.358  1.00  0.00     0.163 HD
HETATM   29  O   UNL     1       5.020  25.630  56.945  1.00  0.00    -0.267 OA
BRANCH  27  30
HETATM   30  C   UNL     1       5.779  24.686  54.353  1.00  0.00     0.084 C 
HETATM   31  C   UNL     1       5.589  24.822  52.836  1.00  0.00     0.025 C 
HETATM   32  C   UNL     1       6.904  25.089  52.103  1.00  0.00     0.002 C 
HETATM   33  C   UNL     1       7.957  24.035  52.433  1.00  0.00     0.000 C 
HETATM   34  C   UNL     1       8.178  23.905  53.937  1.00  0.00     0.002 C 
HETATM   35  C   UNL     1       6.866  23.652  54.683  1.00  0.00     0.025 C 
ENDBRANCH  27  30
ENDBRANCH   4  26
BRANCH   6  36
HETATM   36  C   UNL     1       4.640  31.127  55.656  1.00  0.00     0.089 A 
HETATM   37  C   UNL     1       3.318  30.767  55.029  1.00  0.00     0.028 A 
HETATM   38  C   UNL     1       3.347  31.522  56.322  1.00  0.00     0.028 A 
ENDBRANCH   6  36
TORSDOF 7
ENDMDL
MODEL 2
REMARK VINA RESULT:     -10.7      1.932      3.198
REMARK  7 active torsions:
REMARK  status: ('A' for Active; 'I' for Inactive)
REMARK    1  A    between atoms: C_2  and  N_3 
REMARK    2  A    between atoms: C_2  and  C_25 
REMARK       I    between atoms: N_3  and  C_4 
REMARK    3  A    between atoms: C_4  and  C_5 
REMARK    4  A    between atoms: C_8  and  C_9 
REMARK       I    between atoms: C_9  and  N_10 
REMARK    5  A    between atoms: N_10  and  C_11 
REMARK    6  A    between atoms: N_19  and  C_20 
REMARK    7  A    between atoms: C_33  and  O_34 
ROOT
HETATM    1  C   UNL     1       6.431  30.521  57.895  1.00  0.00     0.098 A 
HETATM    2  C   UNL     1       5.700  29.306  57.417  1.00  0.00     0.206 A 
HETATM    3  O   UNL     1       4.469  29.303  57.341  1.00  0.00    -0.286 OA
HETATM    4  C   UNL     1       6.488  28.102  57.018  1.00  0.00     0.098 A 
HETATM    5  C   UNL     1       7.823  28.182  57.154  1.00  0.00     0.112 A 
HETATM    6  N   UNL     1       8.481  29.293  57.644  1.00  0.00    -0.360 N 
HETATM    7  C   UNL     1       7.770  30.434  57.961  1.00  0.00     0.112 A 
ENDROOT
BRANCH   1   8
HETATM    8  C   UNL     1       5.765  31.794  58.299  1.00  0.00     0.257 C 
HETATM    9  N   UNL     1       5.226  31.778  59.555  1.00  0.00    -0.348 N 
HETATM   10  H   UNL     1       5.308  30.922  60.102  1.00  0.00     0.163 HD
HETATM   11  O   UNL     1       5.721  32.770  57.557  1.00  0.00    -0.267 OA
BRANCH   9  12
HETATM   12  C   UNL     1       4.550  32.902  60.178  1.00  0.00     0.114 C 
HETATM   13  C   UNL     1       3.056  32.629  60.346  1.00  0.00     0.037 C 
BRANCH  12  14
HETATM   14  C   UNL     1       5.231  33.201  61.504  1.00  0.00    -0.035 A 
HETATM   15  C   UNL     1       4.484  33.568  62.640  1.00  0.00     0.021 A 
HETATM   16  C   UNL     1       5.093  33.739  63.894  1.00  0.00    -0.025 A 
HETATM   17  C   UNL     1       6.486  33.561  64.015  1.00  0.00    -0.023 A 
HETATM   18  C   UNL     1       4.341  34.065  65.033  1.00  0.00     0.015 A 
HETATM   19  C   UNL     1       7.235  33.222  62.878  1.00  0.00     0.013 A 
HETATM   20  C   UNL     1       7.087  33.713  65.276  1.00  0.00     0.049 A 
HETATM   21  C   UNL     1       6.614  33.037  61.639  1.00  0.00     0.010 A 
HETATM   22  C   UNL     1       6.330  34.025  66.409  1.00  0.00     0.069 A 
HETATM   23  C   UNL     1       4.955  34.206  66.283  1.00  0.00     0.037 A 
BRANCH  22  24
HETATM   24  O   UNL     1       7.051  34.125  67.568  1.00  0.00    -0.356 OA
HETATM   25  C   UNL     1       6.317  34.357  68.763  1.00  0.00     0.210 C 
ENDBRANCH  22  24
ENDBRANCH  12  14
ENDBRANCH   9  12
ENDBRANCH   1   8
BRANCH   4  26
HETATM   26  C   UNL     1       5.888  26.847  56.481  1.00  0.00     0.257 C 
HETATM   27  N   UNL     1       6.341  26.471  55.241  1.00  0.00    -0.352 N 
HETATM   28  H   UNL     1       6.954  27.121  54.748  1.00  0.00     0.163 HD
HETATM   29  O   UNL     1       5.052  26.209  57.114  1.00  0.00    -0.267 OA
BRANCH  27  30
HETATM   30  C   UNL     1       5.792  25.353  54.487  1.00  0.00     0.084 C 
HETATM   31  C   UNL     1       5.699  25.690  52.993  1.00  0.00     0.025 C 
HETATM   32  C   UNL     1       7.071  25.760  52.321  1.00  0.00     0.002 C 
HETATM   33  C   UNL     1       7.875  24.483  52.548  1.00  0.00     0.000 C 
HETATM   34  C   UNL     1       8.000  24.146  54.030  1.00  0.00     0.002 C 
HETATM   35  C   UNL     1       6.633  24.088  54.716  1.00  0.00     0.025 C 
ENDBRANCH  27  30
ENDBRANCH   4  26
BRANCH   6  36
HETATM   36  C   UNL     1       9.949  29.331  57.623  1.00  0.00     0.089 A 
HETATM   37  C   UNL     1      10.723  29.653  56.371  1.00  0.00     0.028 A 
HETATM   38  C   UNL     1      10.701  30.632  57.505  1.00  0.00     0.028 A 
ENDBRANCH   6  36
TORSDOF 7
ENDMDL
MODEL 3
REMARK VINA RESULT:     -10.5      2.224      3.598
REMARK  7 active torsions:
REMARK  status: ('A' for Active; 'I' for Inactive)
REMARK    1  A    between atoms: C_2  and  N_3 
REMARK    2  A    between atoms: C_2  and  C_25 
REMARK       I    between atoms: N_3  and  C_4 
REMARK    3  A    between atoms: C_4  and  C_5 
REMARK    4  A    between atoms: C_8  and  C_9 
REMARK       I    between atoms: C_9  and  N_10 
REMARK    5  A    between atoms: N_10  and  C_11 
REMARK    6  A    between atoms: N_19  and  C_20 
REMARK    7  A    between atoms: C_33  and  O_34 
ROOT
HETATM    1  C   UNL     1       7.112  27.295  56.266  1.00  0.00     0.098 A 
HETATM    2  C   UNL     1       7.363  25.964  55.632  1.00  0.00     0.206 A 
HETATM    3  O   UNL     1       8.297  25.253  56.011  1.00  0.00    -0.286 OA
HETATM    4  C   UNL     1       6.453  25.502  54.541  1.00  0.00     0.098 A 
HETATM    5  C   UNL     1       5.476  26.348  54.172  1.00  0.00     0.112 A 
HETATM    6  N   UNL     1       5.286  27.596  54.733  1.00  0.00    -0.360 N 
HETATM    7  C   UNL     1       6.083  28.011  55.782  1.00  0.00     0.112 A 
ENDROOT
BRANCH   1   8
HETATM    8  C   UNL     1       7.929  27.860  57.379  1.00  0.00     0.257 C 
HETATM    9  N   UNL     1       8.647  28.975  57.046  1.00  0.00    -0.348 N 
HETATM   10  H   UNL     1       8.581  29.320  56.090  1.00  0.00     0.163 HD
HETATM   11  O   UNL     1       7.939  27.360  58.499  1.00  0.00    -0.267 OA
BRANCH   9  12
HETATM   12  C   UNL     1       9.496  29.715  57.963  1.00  0.00     0.114 C 
HETATM   13  C   UNL     1      10.483  30.606  57.211  1.00  0.00     0.037 C 
BRANCH  12  14
HETATM   14  C   UNL     1       8.609  30.511  58.907  1.00  0.00    -0.035 A 
HETATM   15  C   UNL     1       8.976  30.719  60.250  1.00  0.00     0.021 A 
HETATM   16  C   UNL     1       8.219  31.543  61.098  1.00  0.00    -0.025 A 
HETATM   17  C   UNL     1       7.053  32.161  60.601  1.00  0.00    -0.023 A 
HETATM   18  C   UNL     1       8.607  31.780  62.426  1.00  0.00     0.015 A 
HETATM   19  C   UNL     1       6.673  31.932  59.269  1.00  0.00     0.013 A 
HETATM   20  C   UNL     1       6.310  33.001  61.447  1.00  0.00     0.049 A 
HETATM   21  C   UNL     1       7.445  31.124  58.431  1.00  0.00     0.010 A 
HETATM   22  C   UNL     1       6.711  33.243  62.765  1.00  0.00     0.069 A 
HETATM   23  C   UNL     1       7.860  32.626  63.253  1.00  0.00     0.037 A 
BRANCH  22  24
HETATM   24  O   UNL     1       5.898  34.095  63.461  1.00  0.00    -0.356 OA
HETATM   25  C   UNL     1       4.993  33.507  64.387  1.00  0.00     0.210 C 
ENDBRANCH  22  24
ENDBRANCH  12  14
ENDBRANCH   9  12
ENDBRANCH   1   8
BRANCH   4  26
HETATM   26  C   UNL     1       6.564  24.181  53.859  1.00  0.00     0.257 C 
HETATM   27  N   UNL     1       7.169  23.196  54.600  1.00  0.00    -0.352 N 
HETATM   28  H   UNL     1       7.585  23.466  55.491  1.00  0.00     0.163 HD
HETATM   29  O   UNL     1       6.140  24.004  52.721  1.00  0.00    -0.267 OA
BRANCH  27  30
HETATM   30  C   UNL     1       7.490  21.875  54.075  1.00  0.00     0.084 C 
HETATM   31  C   UNL     1       8.968  21.789  53.670  1.00  0.00     0.025 C 
HETATM   32  C   UNL     1       9.906  21.783  54.877  1.00  0.00     0.002 C 
HETATM   33  C   UNL     1       9.542  20.682  55.869  1.00  0.00     0.000 C 
HETATM   34  C   UNL     1       8.083  20.769  56.302  1.00  0.00     0.002 C 
HETATM   35  C   UNL     1       7.135  20.790  55.101  1.00  0.00     0.025 C 
ENDBRANCH  27  30
ENDBRANCH   4  26
BRANCH   6  36
HETATM   36  C   UNL     1       4.106  28.385  54.357  1.00  0.00     0.089 A 
HETATM   37  C   UNL     1       4.120  29.892  54.351  1.00  0.00     0.028 A 
HETATM   38  C   UNL     1       4.050  29.144  53.055  1.00  0.00     0.028 A 
ENDBRANCH   6  36
TORSDOF 7
ENDMDL
MODEL 4
REMARK VINA RESULT:     -10.4      2.830      4.988
REMARK  7 active torsions:
REMARK  status: ('A' for Active; 'I' for Inactive)
REMARK    1  A    between atoms: C_2  and  N_3 
REMARK    2  A    between atoms: C_2  and  C_25 
REMARK       I    between atoms: N_3  and  C_4 
REMARK    3  A    between atoms: C_4  and  C_5 
REMARK    4  A    between atoms: C_8  and  C_9 
REMARK       I    between atoms: C_9  and  N_10 
REMARK    5  A    between atoms: N_10  and  C_11 
REMARK    6  A    between atoms: N_19  and  C_20 
REMARK    7  A    between atoms: C_33  and  O_34 
ROOT
HETATM    1  C   UNL     1       7.130  27.101  55.905  1.00  0.00     0.098 A 
HETATM    2  C   UNL     1       6.133  27.946  55.176  1.00  0.00     0.206 A 
HETATM    3  O   UNL     1       5.959  29.125  55.492  1.00  0.00    -0.286 OA
HETATM    4  C   UNL     1       5.363  27.341  54.048  1.00  0.00     0.098 A 
HETATM    5  C   UNL     1       5.597  26.044  53.785  1.00  0.00     0.112 A 
HETATM    6  N   UNL     1       6.485  25.262  54.499  1.00  0.00    -0.360 N 
HETATM    7  C   UNL     1       7.246  25.823  55.505  1.00  0.00     0.112 A 
ENDROOT
BRANCH   1   8
HETATM    8  C   UNL     1       7.979  27.590  57.030  1.00  0.00     0.257 C 
HETATM    9  N   UNL     1       8.637  28.762  56.776  1.00  0.00    -0.348 N 
HETATM   10  H   UNL     1       8.511  29.195  55.863  1.00  0.00     0.163 HD
HETATM   11  O   UNL     1       8.062  26.985  58.094  1.00  0.00    -0.267 OA
BRANCH   9  12
HETATM   12  C   UNL     1       9.501  29.445  57.722  1.00  0.00     0.114 C 
HETATM   13  C   UNL     1      10.535  30.312  57.005  1.00  0.00     0.037 C 
BRANCH  12  14
HETATM   14  C   UNL     1       8.633  30.256  58.671  1.00  0.00    -0.035 A 
HETATM   15  C   UNL     1       9.030  30.489  60.002  1.00  0.00     0.021 A 
HETATM   16  C   UNL     1       8.290  31.326  60.852  1.00  0.00    -0.025 A 
HETATM   17  C   UNL     1       7.111  31.931  60.371  1.00  0.00    -0.023 A 
HETATM   18  C   UNL     1       8.708  31.588  62.166  1.00  0.00     0.015 A 
HETATM   19  C   UNL     1       6.701  31.677  59.053  1.00  0.00     0.013 A 
HETATM   20  C   UNL     1       6.385  32.784  61.218  1.00  0.00     0.049 A 
HETATM   21  C   UNL     1       7.456  30.856  58.211  1.00  0.00     0.010 A 
HETATM   22  C   UNL     1       6.815  33.051  62.522  1.00  0.00     0.069 A 
HETATM   23  C   UNL     1       7.977  32.446  62.995  1.00  0.00     0.037 A 
BRANCH  22  24
HETATM   24  O   UNL     1       6.015  33.913  63.222  1.00  0.00    -0.356 OA
HETATM   25  C   UNL     1       5.315  33.377  64.337  1.00  0.00     0.210 C 
ENDBRANCH  22  24
ENDBRANCH  12  14
ENDBRANCH   9  12
ENDBRANCH   1   8
BRANCH   4  26
HETATM   26  C   UNL     1       4.377  28.084  53.212  1.00  0.00     0.257 C 
HETATM   27  N   UNL     1       4.565  27.972  51.856  1.00  0.00    -0.352 N 
HETATM   28  H   UNL     1       5.408  27.494  51.537  1.00  0.00     0.163 HD
HETATM   29  O   UNL     1       3.471  28.742  53.714  1.00  0.00    -0.267 OA
BRANCH  27  30
HETATM   30  C   UNL     1       3.795  28.719  50.872  1.00  0.00     0.084 C 
HETATM   31  C   UNL     1       4.507  30.024  50.492  1.00  0.00     0.025 C 
HETATM   32  C   UNL     1       5.764  29.784  49.656  1.00  0.00     0.002 C 
HETATM   33  C   UNL     1       5.466  28.940  48.420  1.00  0.00     0.000 C 
HETATM   34  C   UNL     1       4.782  27.626  48.781  1.00  0.00     0.002 C 
HETATM   35  C   UNL     1       3.529  27.854  49.631  1.00  0.00     0.025 C 
ENDBRANCH  27  30
ENDBRANCH   4  26
BRANCH   6  36
HETATM   36  C   UNL     1       6.770  23.895  54.044  1.00  0.00     0.089 A 
HETATM   37  C   UNL     1       7.621  23.616  52.832  1.00  0.00     0.028 A 
HETATM   38  C   UNL     1       8.140  23.285  54.197  1.00  0.00     0.028 A 
ENDBRANCH   6  36
TORSDOF 7
ENDMDL
MODEL 5
REMARK VINA RESULT:     -10.2      2.923     10.456
REMARK  7 active torsions:
REMARK  status: ('A' for Active; 'I' for Inactive)
REMARK    1  A    between atoms: C_2  and  N_3 
REMARK    2  A    between atoms: C_2  and  C_25 
REMARK       I    between atoms: N_3  and  C_4 
REMARK    3  A    between atoms: C_4  and  C_5 
REMARK    4  A    between atoms: C_8  and  C_9 
REMARK       I    between atoms: C_9  and  N_10 
REMARK    5  A    between atoms: N_10  and  C_11 
REMARK    6  A    between atoms: N_19  and  C_20 
REMARK    7  A    between atoms: C_33  and  O_34 
ROOT
HETATM    1  C   UNL     1       5.402  29.756  56.044  1.00  0.00     0.098 A 
HETATM    2  C   UNL     1       6.664  29.597  56.831  1.00  0.00     0.206 A 
HETATM    3  O   UNL     1       7.409  28.634  56.635  1.00  0.00    -0.286 OA
HETATM    4  C   UNL     1       7.015  30.634  57.847  1.00  0.00     0.098 A 
HETATM    5  C   UNL     1       6.135  31.637  58.014  1.00  0.00     0.112 A 
HETATM    6  N   UNL     1       4.949  31.745  57.315  1.00  0.00    -0.360 N 
HETATM    7  C   UNL     1       4.640  30.826  56.330  1.00  0.00     0.112 A 
ENDROOT
BRANCH   1   8
HETATM    8  C   UNL     1       4.950  28.808  54.984  1.00  0.00     0.257 C 
HETATM    9  N   UNL     1       5.876  28.567  54.007  1.00  0.00    -0.348 N 
HETATM   10  H   UNL     1       6.773  29.046  54.067  1.00  0.00     0.163 HD
HETATM   11  O   UNL     1       3.840  28.286  55.006  1.00  0.00    -0.267 OA
BRANCH   9  12
HETATM   12  C   UNL     1       5.678  27.666  52.886  1.00  0.00     0.114 C 
HETATM   13  C   UNL     1       6.018  28.344  51.559  1.00  0.00     0.037 C 
BRANCH  12  14
HETATM   14  C   UNL     1       6.509  26.414  53.120  1.00  0.00    -0.035 A 
HETATM   15  C   UNL     1       6.823  25.981  54.422  1.00  0.00     0.021 A 
HETATM   16  C   UNL     1       7.496  24.769  54.649  1.00  0.00    -0.025 A 
HETATM   17  C   UNL     1       7.884  23.978  53.549  1.00  0.00    -0.023 A 
HETATM   18  C   UNL     1       7.774  24.320  55.949  1.00  0.00     0.015 A 
HETATM   19  C   UNL     1       7.594  24.423  52.250  1.00  0.00     0.013 A 
HETATM   20  C   UNL     1       8.538  22.757  53.782  1.00  0.00     0.049 A 
HETATM   21  C   UNL     1       6.909  25.622  52.038  1.00  0.00     0.010 A 
HETATM   22  C   UNL     1       8.800  22.309  55.081  1.00  0.00     0.069 A 
HETATM   23  C   UNL     1       8.419  23.097  56.164  1.00  0.00     0.037 A 
BRANCH  22  24
HETATM   24  O   UNL     1       9.427  21.095  55.151  1.00  0.00    -0.356 OA
HETATM   25  C   UNL     1       8.842  20.027  54.418  1.00  0.00     0.210 C 
ENDBRANCH  22  24
ENDBRANCH  12  14
ENDBRANCH   9  12
ENDBRANCH   1   8
BRANCH   4  26
HETATM   26  C   UNL     1       8.262  30.620  58.663  1.00  0.00     0.257 C 
HETATM   27  N   UNL     1       8.068  30.488  60.016  1.00  0.00    -0.352 N 
HETATM   28  H   UNL     1       7.109  30.521  60.359  1.00  0.00     0.163 HD
HETATM   29  O   UNL     1       9.372  30.719  58.148  1.00  0.00    -0.267 OA
BRANCH  27  30
HETATM   30  C   UNL     1       9.142  30.579  60.996  1.00  0.00     0.084 C 
HETATM   31  C   UNL     1       9.671  32.017  61.098  1.00  0.00     0.025 C 
HETATM   32  C   UNL     1       8.674  32.961  61.770  1.00  0.00     0.002 C 
HETATM   33  C   UNL     1       8.234  32.439  63.135  1.00  0.00     0.000 C 
HETATM   34  C   UNL     1       7.681  31.020  63.047  1.00  0.00     0.002 C 
HETATM   35  C   UNL     1       8.665  30.069  62.364  1.00  0.00     0.025 C 
ENDBRANCH  27  30
ENDBRANCH   4  26
BRANCH   6  36
HETATM   36  C   UNL     1       4.126  32.951  57.471  1.00  0.00     0.089 A 
HETATM   37  C   UNL     1       4.624  34.171  58.201  1.00  0.00     0.028 A 
HETATM   38  C   UNL     1       4.436  34.218  56.716  1.00  0.00     0.028 A 
ENDBRANCH   6  36
TORSDOF 7
ENDMDL
MODEL 6
REMARK VINA RESULT:     -10.1      1.450      2.197
REMARK  7 active torsions:
REMARK  status: ('A' for Active; 'I' for Inactive)
REMARK    1  A    between atoms: C_2  and  N_3 
REMARK    2  A    between atoms: C_2  and  C_25 
REMARK       I    between atoms: N_3  and  C_4 
REMARK    3  A    between atoms: C_4  and  C_5 
REMARK    4  A    between atoms: C_8  and  C_9 
REMARK       I    between atoms: C_9  and  N_10 
REMARK    5  A    between atoms: N_10  and  C_11 
REMARK    6  A    between atoms: N_19  and  C_20 
REMARK    7  A    between atoms: C_33  and  O_34 
ROOT
HETATM    1  C   UNL     1       6.718  29.672  56.790  1.00  0.00     0.098 A 
HETATM    2  C   UNL     1       6.402  28.560  55.841  1.00  0.00     0.206 A 
HETATM    3  O   UNL     1       7.020  27.494  55.894  1.00  0.00    -0.286 OA
HETATM    4  C   UNL     1       5.315  28.756  54.836  1.00  0.00     0.098 A 
HETATM    5  C   UNL     1       4.709  29.956  54.831  1.00  0.00     0.112 A 
HETATM    6  N   UNL     1       5.044  30.992  55.681  1.00  0.00    -0.360 N 
HETATM    7  C   UNL     1       6.007  30.804  56.653  1.00  0.00     0.112 A 
ENDROOT
BRANCH   1   8
HETATM    8  C   UNL     1       7.761  29.594  57.854  1.00  0.00     0.257 C 
HETATM    9  N   UNL     1       8.051  30.789  58.452  1.00  0.00    -0.348 N 
HETATM   10  H   UNL     1       7.557  31.619  58.130  1.00  0.00     0.163 HD
HETATM   11  O   UNL     1       8.299  28.536  58.163  1.00  0.00    -0.267 OA
BRANCH   9  12
HETATM   12  C   UNL     1       9.012  30.963  59.527  1.00  0.00     0.114 C 
HETATM   13  C   UNL     1      10.209  31.798  59.074  1.00  0.00     0.037 C 
BRANCH  12  14
HETATM   14  C   UNL     1       8.298  31.584  60.717  1.00  0.00    -0.035 A 
HETATM   15  C   UNL     1       6.934  31.929  60.650  1.00  0.00     0.021 A 
HETATM   16  C   UNL     1       6.241  32.401  61.776  1.00  0.00    -0.025 A 
HETATM   17  C   UNL     1       6.929  32.552  62.997  1.00  0.00    -0.023 A 
HETATM   18  C   UNL     1       4.873  32.708  61.718  1.00  0.00     0.015 A 
HETATM   19  C   UNL     1       8.295  32.232  63.058  1.00  0.00     0.013 A 
HETATM   20  C   UNL     1       6.226  33.004  64.127  1.00  0.00     0.049 A 
HETATM   21  C   UNL     1       8.968  31.748  61.934  1.00  0.00     0.010 A 
HETATM   22  C   UNL     1       4.860  33.295  64.064  1.00  0.00     0.069 A 
HETATM   23  C   UNL     1       4.186  33.150  62.854  1.00  0.00     0.037 A 
BRANCH  22  24
HETATM   24  O   UNL     1       4.309  33.709  65.246  1.00  0.00    -0.356 OA
HETATM   25  C   UNL     1       3.586  34.932  65.225  1.00  0.00     0.210 C 
ENDBRANCH  22  24
ENDBRANCH  12  14
ENDBRANCH   9  12
ENDBRANCH   1   8
BRANCH   4  26
HETATM   26  C   UNL     1       4.870  27.715  53.867  1.00  0.00     0.257 C 
HETATM   27  N   UNL     1       5.709  26.633  53.752  1.00  0.00    -0.352 N 
HETATM   28  H   UNL     1       6.602  26.678  54.242  1.00  0.00     0.163 HD
HETATM   29  O   UNL     1       3.829  27.830  53.227  1.00  0.00    -0.267 OA
BRANCH  27  30
HETATM   30  C   UNL     1       5.524  25.572  52.773  1.00  0.00     0.084 C 
HETATM   31  C   UNL     1       6.596  25.644  51.676  1.00  0.00     0.025 C 
HETATM   32  C   UNL     1       7.981  25.242  52.183  1.00  0.00     0.002 C 
HETATM   33  C   UNL     1       7.962  23.867  52.844  1.00  0.00     0.000 C 
HETATM   34  C   UNL     1       6.920  23.785  53.955  1.00  0.00     0.002 C 
HETATM   35  C   UNL     1       5.532  24.199  53.462  1.00  0.00     0.025 C 
ENDBRANCH  27  30
ENDBRANCH   4  26
BRANCH   6  36
HETATM   36  C   UNL     1       4.229  32.214  55.688  1.00  0.00     0.089 A 
HETATM   37  C   UNL     1       2.764  32.200  55.335  1.00  0.00     0.028 A 
HETATM   38  C   UNL     1       3.187  32.457  56.749  1.00  0.00     0.028 A 
ENDBRANCH   6  36
TORSDOF 7
ENDMDL
MODEL 7
REMARK VINA RESULT:     -10.0      2.533      5.484
REMARK  7 active torsions:
REMARK  status: ('A' for Active; 'I' for Inactive)
REMARK    1  A    between atoms: C_2  and  N_3 
REMARK    2  A    between atoms: C_2  and  C_25 
REMARK       I    between atoms: N_3  and  C_4 
REMARK    3  A    between atoms: C_4  and  C_5 
REMARK    4  A    between atoms: C_8  and  C_9 
REMARK       I    between atoms: C_9  and  N_10 
REMARK    5  A    between atoms: N_10  and  C_11 
REMARK    6  A    between atoms: N_19  and  C_20 
REMARK    7  A    between atoms: C_33  and  O_34 
ROOT
HETATM    1  C   UNL     1       7.192  27.946  55.653  1.00  0.00     0.098 A 
HETATM    2  C   UNL     1       6.110  28.886  55.224  1.00  0.00     0.206 A 
HETATM    3  O   UNL     1       5.853  29.893  55.887  1.00  0.00    -0.286 OA
HETATM    4  C   UNL     1       5.356  28.592  53.969  1.00  0.00     0.098 A 
HETATM    5  C   UNL     1       5.683  27.461  53.320  1.00  0.00     0.112 A 
HETATM    6  N   UNL     1       6.650  26.577  53.754  1.00  0.00    -0.360 N 
HETATM    7  C   UNL     1       7.396  26.866  54.881  1.00  0.00     0.112 A 
ENDROOT
BRANCH   1   8
HETATM    8  C   UNL     1       8.034  28.138  56.870  1.00  0.00     0.257 C 
HETATM    9  N   UNL     1       8.616  29.371  56.968  1.00  0.00    -0.348 N 
HETATM   10  H   UNL     1       8.445  30.043  56.222  1.00  0.00     0.163 HD
HETATM   11  O   UNL     1       8.176  27.256  57.710  1.00  0.00    -0.267 OA
BRANCH   9  12
HETATM   12  C   UNL     1       9.458  29.802  58.069  1.00  0.00     0.114 C 
HETATM   13  C   UNL     1      10.674  30.580  57.569  1.00  0.00     0.037 C 
BRANCH  12  14
HETATM   14  C   UNL     1       8.612  30.619  59.034  1.00  0.00    -0.035 A 
HETATM   15  C   UNL     1       8.982  30.764  60.385  1.00  0.00     0.021 A 
HETATM   16  C   UNL     1       8.268  31.603  61.255  1.00  0.00    -0.025 A 
HETATM   17  C   UNL     1       7.143  32.301  60.772  1.00  0.00    -0.023 A 
HETATM   18  C   UNL     1       8.662  31.777  62.591  1.00  0.00     0.015 A 
HETATM   19  C   UNL     1       6.758  32.136  59.432  1.00  0.00     0.013 A 
HETATM   20  C   UNL     1       6.444  33.156  61.640  1.00  0.00     0.049 A 
HETATM   21  C   UNL     1       7.487  31.311  58.572  1.00  0.00     0.010 A 
HETATM   22  C   UNL     1       6.850  33.335  62.967  1.00  0.00     0.069 A 
HETATM   23  C   UNL     1       7.959  32.639  63.440  1.00  0.00     0.037 A 
BRANCH  22  24
HETATM   24  O   UNL     1       6.083  34.210  63.686  1.00  0.00    -0.356 OA
HETATM   25  C   UNL     1       5.611  35.363  63.001  1.00  0.00     0.210 C 
ENDBRANCH  22  24
ENDBRANCH  12  14
ENDBRANCH   9  12
ENDBRANCH   1   8
BRANCH   4  26
HETATM   26  C   UNL     1       4.290  29.469  53.406  1.00  0.00     0.257 C 
HETATM   27  N   UNL     1       4.596  30.807  53.374  1.00  0.00    -0.352 N 
HETATM   28  H   UNL     1       5.461  31.102  53.828  1.00  0.00     0.163 HD
HETATM   29  O   UNL     1       3.223  29.013  53.006  1.00  0.00    -0.267 OA
BRANCH  27  30
HETATM   30  C   UNL     1       3.648  31.842  52.983  1.00  0.00     0.084 C 
HETATM   31  C   UNL     1       3.790  33.082  53.876  1.00  0.00     0.025 C 
HETATM   32  C   UNL     1       5.084  33.852  53.607  1.00  0.00     0.002 C 
HETATM   33  C   UNL     1       5.228  34.216  52.132  1.00  0.00     0.000 C 
HETATM   34  C   UNL     1       5.115  32.990  51.232  1.00  0.00     0.002 C 
HETATM   35  C   UNL     1       3.831  32.204  51.502  1.00  0.00     0.025 C 
ENDBRANCH  27  30
ENDBRANCH   4  26
BRANCH   6  36
HETATM   36  C   UNL     1       7.028  25.443  52.901  1.00  0.00     0.089 A 
HETATM   37  C   UNL     1       7.973  24.367  53.371  1.00  0.00     0.028 A 
HETATM   38  C   UNL     1       6.523  24.049  53.176  1.00  0.00     0.028 A 
ENDBRANCH   6  36
TORSDOF 7
ENDMDL
MODEL 8
REMARK VINA RESULT:     -10.0      2.749     11.137
REMARK  7 active torsions:
REMARK  status: ('A' for Active; 'I' for Inactive)
REMARK    1  A    between atoms: C_2  and  N_3 
REMARK    2  A    between atoms: C_2  and  C_25 
REMARK       I    between atoms: N_3  and  C_4 
REMARK    3  A    between atoms: C_4  and  C_5 
REMARK    4  A    between atoms: C_8  and  C_9 
REMARK       I    between atoms: C_9  and  N_10 
REMARK    5  A    between atoms: N_10  and  C_11 
REMARK    6  A    between atoms: N_19  and  C_20 
REMARK    7  A    between atoms: C_33  and  O_34 
ROOT
HETATM    1  C   UNL     1       5.638  30.249  56.933  1.00  0.00     0.098 A 
HETATM    2  C   UNL     1       4.760  31.073  57.820  1.00  0.00     0.206 A 
HETATM    3  O   UNL     1       3.565  31.226  57.556  1.00  0.00    -0.286 OA
HETATM    4  C   UNL     1       5.352  31.696  59.042  1.00  0.00     0.098 A 
HETATM    5  C   UNL     1       6.666  31.500  59.243  1.00  0.00     0.112 A 
HETATM    6  N   UNL     1       7.476  30.778  58.388  1.00  0.00    -0.360 N 
HETATM    7  C   UNL     1       6.931  30.147  57.287  1.00  0.00     0.112 A 
ENDROOT
BRANCH   1   8
HETATM    8  C   UNL     1       5.166  29.555  55.700  1.00  0.00     0.257 C 
HETATM    9  N   UNL     1       5.893  28.448  55.359  1.00  0.00    -0.348 N 
HETATM   10  H   UNL     1       6.685  28.194  55.948  1.00  0.00     0.163 HD
HETATM   11  O   UNL     1       4.197  29.949  55.059  1.00  0.00    -0.267 OA
BRANCH   9  12
HETATM   12  C   UNL     1       5.614  27.596  54.217  1.00  0.00     0.114 C 
HETATM   13  C   UNL     1       6.280  28.128  52.949  1.00  0.00     0.037 C 
BRANCH  12  14
HETATM   14  C   UNL     1       6.062  26.181  54.549  1.00  0.00    -0.035 A 
HETATM   15  C   UNL     1       6.500  25.300  53.542  1.00  0.00     0.021 A 
HETATM   16  C   UNL     1       7.018  24.032  53.851  1.00  0.00    -0.025 A 
HETATM   17  C   UNL     1       7.082  23.622  55.198  1.00  0.00    -0.023 A 
HETATM   18  C   UNL     1       7.491  23.171  52.849  1.00  0.00     0.015 A 
HETATM   19  C   UNL     1       6.621  24.489  56.201  1.00  0.00     0.013 A 
HETATM   20  C   UNL     1       7.620  22.361  55.504  1.00  0.00     0.049 A 
HETATM   21  C   UNL     1       6.124  25.756  55.881  1.00  0.00     0.010 A 
HETATM   22  C   UNL     1       8.101  21.513  54.501  1.00  0.00     0.069 A 
HETATM   23  C   UNL     1       8.031  21.921  53.171  1.00  0.00     0.037 A 
BRANCH  22  24
HETATM   24  O   UNL     1       8.611  20.326  54.952  1.00  0.00    -0.356 OA
HETATM   25  C   UNL     1       9.201  20.330  56.245  1.00  0.00     0.210 C 
ENDBRANCH  22  24
ENDBRANCH  12  14
ENDBRANCH   9  12
ENDBRANCH   1   8
BRANCH   4  26
HETATM   26  C   UNL     1       4.579  32.499  60.032  1.00  0.00     0.257 C 
HETATM   27  N   UNL     1       5.138  32.571  61.284  1.00  0.00    -0.352 N 
HETATM   28  H   UNL     1       5.959  31.994  61.466  1.00  0.00     0.163 HD
HETATM   29  O   UNL     1       3.522  33.049  59.734  1.00  0.00    -0.267 OA
BRANCH  27  30
HETATM   30  C   UNL     1       4.483  33.196  62.425  1.00  0.00     0.084 C 
HETATM   31  C   UNL     1       4.995  32.603  63.745  1.00  0.00     0.025 C 
HETATM   32  C   UNL     1       6.432  33.022  64.056  1.00  0.00     0.002 C 
HETATM   33  C   UNL     1       6.595  34.539  64.035  1.00  0.00     0.000 C 
HETATM   34  C   UNL     1       6.114  35.142  62.719  1.00  0.00     0.002 C 
HETATM   35  C   UNL     1       4.681  34.718  62.390  1.00  0.00     0.025 C 
ENDBRANCH  27  30
ENDBRANCH   4  26
BRANCH   6  36
HETATM   36  C   UNL     1       8.868  30.505  58.769  1.00  0.00     0.089 A 
HETATM   37  C   UNL     1       9.928  30.182  57.749  1.00  0.00     0.028 A 
HETATM   38  C   UNL     1       9.970  31.491  58.477  1.00  0.00     0.028 A 
ENDBRANCH   6  36
TORSDOF 7
ENDMDL
MODEL 9
REMARK VINA RESULT:      -9.9      2.780     11.013
REMARK  7 active torsions:
REMARK  status: ('A' for Active; 'I' for Inactive)
REMARK    1  A    between atoms: C_2  and  N_3 
REMARK    2  A    between atoms: C_2  and  C_25 
REMARK       I    between atoms: N_3  and  C_4 
REMARK    3  A    between atoms: C_4  and  C_5 
REMARK    4  A    between atoms: C_8  and  C_9 
REMARK       I    between atoms: C_9  and  N_10 
REMARK    5  A    between atoms: N_10  and  C_11 
REMARK    6  A    between atoms: N_19  and  C_20 
REMARK    7  A    between atoms: C_33  and  O_34 
ROOT
HETATM    1  C   UNL     1       5.926  30.197  57.543  1.00  0.00     0.098 A 
HETATM    2  C   UNL     1       5.604  31.209  58.595  1.00  0.00     0.206 A 
HETATM    3  O   UNL     1       4.440  31.572  58.782  1.00  0.00    -0.286 OA
HETATM    4  C   UNL     1       6.713  31.763  59.428  1.00  0.00     0.098 A 
HETATM    5  C   UNL     1       7.954  31.332  59.143  1.00  0.00     0.112 A 
HETATM    6  N   UNL     1       8.243  30.434  58.134  1.00  0.00    -0.360 N 
HETATM    7  C   UNL     1       7.222  29.870  57.396  1.00  0.00     0.112 A 
ENDROOT
BRANCH   1   8
HETATM    8  C   UNL     1       4.910  29.551  56.663  1.00  0.00     0.257 C 
HETATM    9  N   UNL     1       5.420  28.633  55.786  1.00  0.00    -0.348 N 
HETATM   10  H   UNL     1       6.426  28.472  55.792  1.00  0.00     0.163 HD
HETATM   11  O   UNL     1       3.716  29.822  56.737  1.00  0.00    -0.267 OA
BRANCH   9  12
HETATM   12  C   UNL     1       4.628  27.859  54.848  1.00  0.00     0.114 C 
HETATM   13  C   UNL     1       4.202  28.705  53.648  1.00  0.00     0.037 C 
BRANCH  12  14
HETATM   14  C   UNL     1       5.432  26.637  54.430  1.00  0.00    -0.035 A 
HETATM   15  C   UNL     1       6.489  26.154  55.225  1.00  0.00     0.021 A 
HETATM   16  C   UNL     1       7.164  24.966  54.904  1.00  0.00    -0.025 A 
HETATM   17  C   UNL     1       6.790  24.249  53.749  1.00  0.00    -0.023 A 
HETATM   18  C   UNL     1       8.192  24.465  55.718  1.00  0.00     0.015 A 
HETATM   19  C   UNL     1       5.753  24.745  52.942  1.00  0.00     0.013 A 
HETATM   20  C   UNL     1       7.454  23.050  53.443  1.00  0.00     0.049 A 
HETATM   21  C   UNL     1       5.078  25.920  53.283  1.00  0.00     0.010 A 
HETATM   22  C   UNL     1       8.468  22.550  54.266  1.00  0.00     0.069 A 
HETATM   23  C   UNL     1       8.838  23.265  55.403  1.00  0.00     0.037 A 
BRANCH  22  24
HETATM   24  O   UNL     1       9.010  21.365  53.850  1.00  0.00    -0.356 OA
HETATM   25  C   UNL     1       8.238  20.589  52.942  1.00  0.00     0.210 C 
ENDBRANCH  22  24
ENDBRANCH  12  14
ENDBRANCH   9  12
ENDBRANCH   1   8
BRANCH   4  26
HETATM   26  C   UNL     1       6.522  32.739  60.539  1.00  0.00     0.257 C 
HETATM   27  N   UNL     1       5.362  33.470  60.475  1.00  0.00    -0.352 N 
HETATM   28  H   UNL     1       4.789  33.371  59.636  1.00  0.00     0.163 HD
HETATM   29  O   UNL     1       7.350  32.867  61.436  1.00  0.00    -0.267 OA
BRANCH  27  30
HETATM   30  C   UNL     1       5.046  34.561  61.386  1.00  0.00     0.084 C 
HETATM   31  C   UNL     1       4.149  35.604  60.705  1.00  0.00     0.025 C 
HETATM   32  C   UNL     1       2.728  35.090  60.471  1.00  0.00     0.002 C 
HETATM   33  C   UNL     1       2.093  34.577  61.760  1.00  0.00     0.000 C 
HETATM   34  C   UNL     1       2.960  33.521  62.437  1.00  0.00     0.002 C 
HETATM   35  C   UNL     1       4.389  34.019  62.664  1.00  0.00     0.025 C 
ENDBRANCH  27  30
ENDBRANCH   4  26
BRANCH   6  36
HETATM   36  C   UNL     1       9.613  29.922  57.994  1.00  0.00     0.089 A 
HETATM   37  C   UNL     1      10.157  29.444  56.672  1.00  0.00     0.028 A 
HETATM   38  C   UNL     1      10.678  30.711  57.277  1.00  0.00     0.028 A 
ENDBRANCH   6  36
TORSDOF 7
ENDMDL
MODEL 10
REMARK VINA RESULT:      -9.6      5.613      9.685
REMARK  7 active torsions:
REMARK  status: ('A' for Active; 'I' for Inactive)
REMARK    1  A    between atoms: C_2  and  N_3 
REMARK    2  A    between atoms: C_2  and  C_25 
REMARK       I    between atoms: N_3  and  C_4 
REMARK    3  A    between atoms: C_4  and  C_5 
REMARK    4  A    between atoms: C_8  and  C_9 
REMARK       I    between atoms: C_9  and  N_10 
REMARK    5  A    between atoms: N_10  and  C_11 
REMARK    6  A    between atoms: N_19  and  C_20 
REMARK    7  A    between atoms: C_33  and  O_34 
ROOT
HETATM    1  C   UNL     1       4.194  29.809  54.076  1.00  0.00     0.098 A 
HETATM    2  C   UNL     1       3.710  29.223  52.788  1.00  0.00     0.206 A 
HETATM    3  O   UNL     1       3.913  28.036  52.522  1.00  0.00    -0.286 OA
HETATM    4  C   UNL     1       2.963  30.097  51.834  1.00  0.00     0.098 A 
HETATM    5  C   UNL     1       2.807  31.383  52.191  1.00  0.00     0.112 A 
HETATM    6  N   UNL     1       3.302  31.923  53.362  1.00  0.00    -0.360 N 
HETATM    7  C   UNL     1       3.943  31.114  54.279  1.00  0.00     0.112 A 
ENDROOT
BRANCH   1   8
HETATM    8  C   UNL     1       4.929  29.040  55.122  1.00  0.00     0.257 C 
HETATM    9  N   UNL     1       6.288  29.176  55.076  1.00  0.00    -0.348 N 
HETATM   10  H   UNL     1       6.687  29.765  54.347  1.00  0.00     0.163 HD
HETATM   11  O   UNL     1       4.346  28.354  55.956  1.00  0.00    -0.267 OA
BRANCH   9  12
HETATM   12  C   UNL     1       7.213  28.545  56.001  1.00  0.00     0.114 C 
HETATM   13  C   UNL     1       6.897  28.923  57.448  1.00  0.00     0.037 C 
BRANCH  12  14
HETATM   14  C   UNL     1       7.170  27.042  55.778  1.00  0.00    -0.035 A 
HETATM   15  C   UNL     1       7.396  26.487  54.504  1.00  0.00     0.021 A 
HETATM   16  C   UNL     1       7.467  25.098  54.311  1.00  0.00    -0.025 A 
HETATM   17  C   UNL     1       7.286  24.238  55.413  1.00  0.00    -0.023 A 
HETATM   18  C   UNL     1       7.731  24.548  53.047  1.00  0.00     0.015 A 
HETATM   19  C   UNL     1       7.034  24.790  56.678  1.00  0.00     0.013 A 
HETATM   20  C   UNL     1       7.378  22.849  55.218  1.00  0.00     0.049 A 
HETATM   21  C   UNL     1       6.984  26.175  56.860  1.00  0.00     0.010 A 
HETATM   22  C   UNL     1       7.655  22.309  53.959  1.00  0.00     0.069 A 
HETATM   23  C   UNL     1       7.827  23.163  52.872  1.00  0.00     0.037 A 
BRANCH  22  24
HETATM   24  O   UNL     1       7.731  20.943  53.928  1.00  0.00    -0.356 OA
HETATM   25  C   UNL     1       8.450  20.364  52.846  1.00  0.00     0.210 C 
ENDBRANCH  22  24
ENDBRANCH  12  14
ENDBRANCH   9  12
ENDBRANCH   1   8
BRANCH   4  26
HETATM   26  C   UNL     1       2.388  29.627  50.541  1.00  0.00     0.257 C 
HETATM   27  N   UNL     1       3.286  29.038  49.687  1.00  0.00    -0.352 N 
HETATM   28  H   UNL     1       4.272  29.066  49.948  1.00  0.00     0.163 HD
HETATM   29  O   UNL     1       1.197  29.765  50.276  1.00  0.00    -0.267 OA
BRANCH  27  30
HETATM   30  C   UNL     1       2.957  28.628  48.328  1.00  0.00     0.084 C 
HETATM   31  C   UNL     1       4.137  28.878  47.378  1.00  0.00     0.025 C 
HETATM   32  C   UNL     1       5.300  27.917  47.625  1.00  0.00     0.002 C 
HETATM   33  C   UNL     1       4.850  26.460  47.572  1.00  0.00     0.000 C 
HETATM   34  C   UNL     1       3.695  26.189  48.530  1.00  0.00     0.002 C 
HETATM   35  C   UNL     1       2.529  27.154  48.302  1.00  0.00     0.025 C 
ENDBRANCH  27  30
ENDBRANCH   4  26
BRANCH   6  36
HETATM   36  C   UNL     1       2.958  33.304  53.723  1.00  0.00     0.089 A 
HETATM   37  C   UNL     1       3.954  34.236  54.362  1.00  0.00     0.028 A 
HETATM   38  C   UNL     1       3.507  34.478  52.953  1.00  0.00     0.028 A 
ENDBRANCH   6  36
TORSDOF 7
ENDMDL
