MODEL 1
REMARK VINA RESULT:      -9.6      0.000      0.000
REMARK  4 active torsions:
REMARK  status: ('A' for Active; 'I' for Inactive)
REMARK    1  A    between atoms: C_5  and  N_6 
REMARK       I    between atoms: N_6  and  C_7 
REMARK    2  A    between atoms: C_7  and  C_8 
REMARK    3  A    between atoms: C_12  and  O_13 
REMARK    4  A    between atoms: C_19  and  C_20 
ROOT
HETATM    1  C   UNL     1       4.509  27.894  56.005  1.00  0.00     0.015 C 
HETATM    2  C   UNL     1       5.480  27.226  55.013  1.00  0.00    -0.040 C 
HETATM    3  C   UNL     1       6.796  28.028  55.024  1.00  0.00     0.015 C 
HETATM    4  C   UNL     1       4.840  27.216  53.610  1.00  0.00     0.039 C 
HETATM    5  C   UNL     1       5.713  26.515  52.552  1.00  0.00     0.122 C 
HETATM    6  C   UNL     1       6.327  25.240  53.059  1.00  0.00     0.007 A 
HETATM    7  C   UNL     1       6.370  24.903  54.401  1.00  0.00     0.047 A 
HETATM    8  N   UNL     1       6.953  23.768  54.847  1.00  0.00    -0.237 NA
HETATM    9  C   UNL     1       7.553  22.966  53.944  1.00  0.00     0.133 A 
HETATM   10  N   UNL     1       7.574  23.224  52.624  1.00  0.00    -0.244 NA
HETATM   11  C   UNL     1       6.979  24.359  52.218  1.00  0.00     0.130 A 
HETATM   12  C   UNL     1       5.723  25.766  55.454  1.00  0.00     0.069 C 
ENDROOT
BRANCH   5  13
HETATM   13  N   UNL     1       4.924  26.272  51.353  1.00  0.00    -0.347 N 
HETATM   14  C   UNL     1       4.928  27.143  50.291  1.00  0.00     0.270 C 
HETATM   15  O   UNL     1       5.615  28.159  50.272  1.00  0.00    -0.266 OA
HETATM   16  H   UNL     1       4.240  25.528  51.373  1.00  0.00     0.163 HD
BRANCH  14  17
HETATM   17  C   UNL     1       4.075  26.779  49.193  1.00  0.00     0.122 A 
HETATM   18  N   UNL     1       2.761  27.183  49.147  1.00  0.00    -0.270 N 
HETATM   19  H   UNL     1       2.273  27.743  49.839  1.00  0.00     0.189 HD
HETATM   20  N   UNL     1       2.100  26.774  48.045  1.00  0.00    -0.149 NA
HETATM   21  C   UNL     1       3.034  26.102  47.394  1.00  0.00     0.183 A 
HETATM   22  C   UNL     1       4.273  26.056  48.030  1.00  0.00     0.096 A 
BRANCH  21  23
HETATM   23  O   UNL     1       2.660  25.577  46.232  1.00  0.00    -0.344 OA
HETATM   24  H   UNL     1       1.703  25.430  46.326  1.00  0.00     0.219 HD
ENDBRANCH  21  23
ENDBRANCH  14  17
ENDBRANCH   5  13
BRANCH   9  25
HETATM   25  C   UNL     1       8.169  21.660  54.439  1.00  0.00     0.011 C 
HETATM   26  C   UNL     1       9.627  21.933  54.842  1.00  0.00     0.023 C 
HETATM   27  C   UNL     1       7.404  21.108  55.657  1.00  0.00     0.023 C 
HETATM   28  C   UNL     1       8.136  20.589  53.331  1.00  0.00     0.023 C 
ENDBRANCH   9  25
TORSDOF 4
ENDMDL
MODEL 2
REMARK VINA RESULT:      -8.2      2.961      7.068
REMARK  4 active torsions:
REMARK  status: ('A' for Active; 'I' for Inactive)
REMARK    1  A    between atoms: C_5  and  N_6 
REMARK       I    between atoms: N_6  and  C_7 
REMARK    2  A    between atoms: C_7  and  C_8 
REMARK    3  A    between atoms: C_12  and  O_13 
REMARK    4  A    between atoms: C_19  and  C_20 
ROOT
HETATM    1  C   UNL     1       7.512  28.909  55.487  1.00  0.00     0.015 C 
HETATM    2  C   UNL     1       6.510  28.048  54.695  1.00  0.00    -0.040 C 
HETATM    3  C   UNL     1       5.116  28.242  55.323  1.00  0.00     0.015 C 
HETATM    4  C   UNL     1       6.954  26.571  54.758  1.00  0.00     0.039 C 
HETATM    5  C   UNL     1       6.045  25.631  53.946  1.00  0.00     0.122 C 
HETATM    6  C   UNL     1       5.670  26.201  52.606  1.00  0.00     0.007 A 
HETATM    7  C   UNL     1       5.849  27.533  52.274  1.00  0.00     0.047 A 
HETATM    8  N   UNL     1       5.479  28.040  51.077  1.00  0.00    -0.237 NA
HETATM    9  C   UNL     1       4.871  27.215  50.200  1.00  0.00     0.133 A 
HETATM   10  N   UNL     1       4.643  25.913  50.445  1.00  0.00    -0.244 NA
HETATM   11  C   UNL     1       5.030  25.444  51.644  1.00  0.00     0.130 A 
HETATM   12  C   UNL     1       6.515  28.501  53.218  1.00  0.00     0.069 C 
ENDROOT
BRANCH   5  13
HETATM   13  N   UNL     1       6.692  24.335  53.798  1.00  0.00    -0.347 N 
HETATM   14  C   UNL     1       6.956  23.528  54.877  1.00  0.00     0.270 C 
HETATM   15  O   UNL     1       6.639  23.830  56.022  1.00  0.00    -0.266 OA
HETATM   16  H   UNL     1       7.095  24.102  52.900  1.00  0.00     0.163 HD
BRANCH  14  17
HETATM   17  C   UNL     1       7.626  22.293  54.572  1.00  0.00     0.122 A 
HETATM   18  N   UNL     1       8.095  22.031  53.305  1.00  0.00    -0.270 N 
HETATM   19  H   UNL     1       8.024  22.636  52.493  1.00  0.00     0.189 HD
HETATM   20  N   UNL     1       8.714  20.838  53.186  1.00  0.00    -0.149 NA
HETATM   21  C   UNL     1       8.624  20.355  54.413  1.00  0.00     0.183 A 
HETATM   22  C   UNL     1       7.970  21.183  55.323  1.00  0.00     0.096 A 
BRANCH  21  23
HETATM   23  O   UNL     1       9.173  19.160  54.601  1.00  0.00    -0.344 OA
HETATM   24  H   UNL     1       9.369  18.836  53.705  1.00  0.00     0.219 HD
ENDBRANCH  21  23
ENDBRANCH  14  17
ENDBRANCH   5  13
BRANCH   9  25
HETATM   25  C   UNL     1       4.497  27.773  48.829  1.00  0.00     0.011 C 
HETATM   26  C   UNL     1       4.729  26.676  47.778  1.00  0.00     0.023 C 
HETATM   27  C   UNL     1       3.020  28.208  48.787  1.00  0.00     0.023 C 
HETATM   28  C   UNL     1       5.364  29.001  48.487  1.00  0.00     0.023 C 
ENDBRANCH   9  25
TORSDOF 4
ENDMDL
MODEL 3
REMARK VINA RESULT:      -8.0     13.146     16.874
REMARK  4 active torsions:
REMARK  status: ('A' for Active; 'I' for Inactive)
REMARK    1  A    between atoms: C_5  and  N_6 
REMARK       I    between atoms: N_6  and  C_7 
REMARK    2  A    between atoms: C_7  and  C_8 
REMARK    3  A    between atoms: C_12  and  O_13 
REMARK    4  A    between atoms: C_19  and  C_20 
ROOT
HETATM    1  C   UNL     1       3.957  37.237  62.621  1.00  0.00     0.015 C 
HETATM    2  C   UNL     1       4.375  35.839  63.116  1.00  0.00    -0.040 C 
HETATM    3  C   UNL     1       3.157  34.904  62.981  1.00  0.00     0.015 C 
HETATM    4  C   UNL     1       4.845  35.943  64.582  1.00  0.00     0.039 C 
HETATM    5  C   UNL     1       5.339  34.602  65.156  1.00  0.00     0.122 C 
HETATM    6  C   UNL     1       6.202  33.841  64.188  1.00  0.00     0.007 A 
HETATM    7  C   UNL     1       6.279  34.147  62.840  1.00  0.00     0.047 A 
HETATM    8  N   UNL     1       7.035  33.436  61.975  1.00  0.00    -0.237 NA
HETATM    9  C   UNL     1       7.697  32.360  62.447  1.00  0.00     0.133 A 
HETATM   10  N   UNL     1       7.666  31.980  63.737  1.00  0.00    -0.244 NA
HETATM   11  C   UNL     1       6.907  32.716  64.569  1.00  0.00     0.130 A 
HETATM   12  C   UNL     1       5.554  35.333  62.256  1.00  0.00     0.069 C 
ENDROOT
BRANCH   5  13
HETATM   13  N   UNL     1       6.043  34.837  66.408  1.00  0.00    -0.347 N 
HETATM   14  C   UNL     1       5.520  34.455  67.619  1.00  0.00     0.270 C 
HETATM   15  O   UNL     1       4.448  33.868  67.720  1.00  0.00    -0.266 OA
HETATM   16  H   UNL     1       6.858  35.436  66.393  1.00  0.00     0.163 HD
BRANCH  14  17
HETATM   17  C   UNL     1       6.321  34.783  68.766  1.00  0.00     0.122 A 
HETATM   18  N   UNL     1       5.749  34.981  70.002  1.00  0.00    -0.270 N 
HETATM   19  H   UNL     1       4.761  34.927  70.230  1.00  0.00     0.189 HD
HETATM   20  N   UNL     1       6.636  35.265  70.977  1.00  0.00    -0.149 NA
HETATM   21  C   UNL     1       7.785  35.239  70.324  1.00  0.00     0.183 A 
HETATM   22  C   UNL     1       7.680  34.952  68.964  1.00  0.00     0.096 A 
BRANCH  21  23
HETATM   23  O   UNL     1       8.867  35.481  71.055  1.00  0.00    -0.344 OA
HETATM   24  H   UNL     1       9.193  34.601  71.311  1.00  0.00     0.219 HD
ENDBRANCH  21  23
ENDBRANCH  14  17
ENDBRANCH   5  13
BRANCH   9  25
HETATM   25  C   UNL     1       8.590  31.584  61.483  1.00  0.00     0.011 C 
HETATM   26  C   UNL     1       8.971  30.249  62.141  1.00  0.00     0.023 C 
HETATM   27  C   UNL     1       7.864  31.303  60.153  1.00  0.00     0.023 C 
HETATM   28  C   UNL     1       9.869  32.382  61.165  1.00  0.00     0.023 C 
ENDBRANCH   9  25
TORSDOF 4
ENDMDL
MODEL 4
REMARK VINA RESULT:      -7.8      3.767      6.344
REMARK  4 active torsions:
REMARK  status: ('A' for Active; 'I' for Inactive)
REMARK    1  A    between atoms: C_5  and  N_6 
REMARK       I    between atoms: N_6  and  C_7 
REMARK    2  A    between atoms: C_7  and  C_8 
REMARK    3  A    between atoms: C_12  and  O_13 
REMARK    4  A    between atoms: C_19  and  C_20 
ROOT
HETATM    1  C   UNL     1       8.234  24.207  56.334  1.00  0.00     0.015 C 
HETATM    2  C   UNL     1       7.411  25.495  56.525  1.00  0.00    -0.040 C 
HETATM    3  C   UNL     1       6.145  25.135  57.326  1.00  0.00     0.015 C 
HETATM    4  C   UNL     1       7.054  26.076  55.141  1.00  0.00     0.039 C 
HETATM    5  C   UNL     1       6.276  27.402  55.224  1.00  0.00     0.122 C 
HETATM    6  C   UNL     1       6.832  28.337  56.262  1.00  0.00     0.007 A 
HETATM    7  C   UNL     1       7.723  27.935  57.242  1.00  0.00     0.047 A 
HETATM    8  N   UNL     1       8.192  28.778  58.188  1.00  0.00    -0.237 NA
HETATM    9  C   UNL     1       7.728  30.045  58.195  1.00  0.00     0.133 A 
HETATM   10  N   UNL     1       6.850  30.516  57.292  1.00  0.00    -0.244 NA
HETATM   11  C   UNL     1       6.410  29.648  56.362  1.00  0.00     0.130 A 
HETATM   12  C   UNL     1       8.268  26.530  57.287  1.00  0.00     0.069 C 
ENDROOT
BRANCH   5  13
HETATM   13  N   UNL     1       6.251  28.035  53.913  1.00  0.00    -0.347 N 
HETATM   14  C   UNL     1       5.214  27.842  53.033  1.00  0.00     0.270 C 
HETATM   15  O   UNL     1       4.236  27.154  53.304  1.00  0.00    -0.266 OA
HETATM   16  H   UNL     1       7.090  28.496  53.588  1.00  0.00     0.163 HD
BRANCH  14  17
HETATM   17  C   UNL     1       5.349  28.511  51.768  1.00  0.00     0.122 A 
HETATM   18  N   UNL     1       5.779  29.816  51.693  1.00  0.00    -0.270 N 
HETATM   19  H   UNL     1       6.030  30.418  52.472  1.00  0.00     0.189 HD
HETATM   20  N   UNL     1       5.868  30.293  50.435  1.00  0.00    -0.149 NA
HETATM   21  C   UNL     1       5.485  29.252  49.716  1.00  0.00     0.183 A 
HETATM   22  C   UNL     1       5.147  28.121  50.455  1.00  0.00     0.096 A 
BRANCH  21  23
HETATM   23  O   UNL     1       5.483  29.433  48.400  1.00  0.00    -0.344 OA
HETATM   24  H   UNL     1       4.544  29.397  48.148  1.00  0.00     0.219 HD
ENDBRANCH  21  23
ENDBRANCH  14  17
ENDBRANCH   5  13
BRANCH   9  25
HETATM   25  C   UNL     1       8.292  31.012  59.232  1.00  0.00     0.011 C 
HETATM   26  C   UNL     1       7.243  32.102  59.501  1.00  0.00     0.023 C 
HETATM   27  C   UNL     1       8.617  30.287  60.553  1.00  0.00     0.023 C 
HETATM   28  C   UNL     1       9.589  31.665  58.718  1.00  0.00     0.023 C 
ENDBRANCH   9  25
TORSDOF 4
ENDMDL
MODEL 5
REMARK VINA RESULT:      -7.6      3.431      7.339
REMARK  4 active torsions:
REMARK  status: ('A' for Active; 'I' for Inactive)
REMARK    1  A    between atoms: C_5  and  N_6 
REMARK       I    between atoms: N_6  and  C_7 
REMARK    2  A    between atoms: C_7  and  C_8 
REMARK    3  A    between atoms: C_12  and  O_13 
REMARK    4  A    between atoms: C_19  and  C_20 
ROOT
HETATM    1  C   UNL     1       6.828  23.667  54.190  1.00  0.00     0.015 C 
HETATM    2  C   UNL     1       6.725  24.979  53.389  1.00  0.00    -0.040 C 
HETATM    3  C   UNL     1       8.119  25.291  52.809  1.00  0.00     0.015 C 
HETATM    4  C   UNL     1       6.241  26.105  54.325  1.00  0.00     0.039 C 
HETATM    5  C   UNL     1       6.051  27.453  53.603  1.00  0.00     0.122 C 
HETATM    6  C   UNL     1       5.378  27.304  52.267  1.00  0.00     0.007 A 
HETATM    7  C   UNL     1       5.239  26.088  51.621  1.00  0.00     0.047 A 
HETATM    8  N   UNL     1       4.660  25.972  50.405  1.00  0.00    -0.237 NA
HETATM    9  C   UNL     1       4.248  27.099  49.789  1.00  0.00     0.133 A 
HETATM   10  N   UNL     1       4.358  28.323  50.335  1.00  0.00    -0.244 NA
HETATM   11  C   UNL     1       4.935  28.397  51.548  1.00  0.00     0.130 A 
HETATM   12  C   UNL     1       5.688  24.798  52.259  1.00  0.00     0.069 C 
ENDROOT
BRANCH   5  13
HETATM   13  N   UNL     1       5.309  28.365  54.461  1.00  0.00    -0.347 N 
HETATM   14  C   UNL     1       5.932  29.138  55.411  1.00  0.00     0.270 C 
HETATM   15  O   UNL     1       7.147  29.132  55.574  1.00  0.00    -0.266 OA
HETATM   16  H   UNL     1       4.299  28.306  54.462  1.00  0.00     0.163 HD
BRANCH  14  17
HETATM   17  C   UNL     1       5.060  29.966  56.199  1.00  0.00     0.122 A 
HETATM   18  N   UNL     1       4.496  29.500  57.364  1.00  0.00    -0.270 N 
HETATM   19  H   UNL     1       4.619  28.578  57.773  1.00  0.00     0.189 HD
HETATM   20  N   UNL     1       3.717  30.402  57.995  1.00  0.00    -0.149 NA
HETATM   21  C   UNL     1       3.806  31.452  57.196  1.00  0.00     0.183 A 
HETATM   22  C   UNL     1       4.608  31.267  56.072  1.00  0.00     0.096 A 
BRANCH  21  23
HETATM   23  O   UNL     1       3.127  32.526  57.583  1.00  0.00    -0.344 OA
HETATM   24  H   UNL     1       2.404  32.176  58.132  1.00  0.00     0.219 HD
ENDBRANCH  21  23
ENDBRANCH  14  17
ENDBRANCH   5  13
BRANCH   9  25
HETATM   25  C   UNL     1       3.550  26.967  48.439  1.00  0.00     0.011 C 
HETATM   26  C   UNL     1       4.425  27.642  47.371  1.00  0.00     0.023 C 
HETATM   27  C   UNL     1       3.343  25.487  48.059  1.00  0.00     0.023 C 
HETATM   28  C   UNL     1       2.167  27.646  48.472  1.00  0.00     0.023 C 
ENDBRANCH   9  25
TORSDOF 4
ENDMDL
MODEL 6
REMARK VINA RESULT:      -7.5      2.955      7.276
REMARK  4 active torsions:
REMARK  status: ('A' for Active; 'I' for Inactive)
REMARK    1  A    between atoms: C_5  and  N_6 
REMARK       I    between atoms: N_6  and  C_7 
REMARK    2  A    between atoms: C_7  and  C_8 
REMARK    3  A    between atoms: C_12  and  O_13 
REMARK    4  A    between atoms: C_19  and  C_20 
ROOT
HETATM    1  C   UNL     1       3.462  27.217  48.888  1.00  0.00     0.015 C 
HETATM    2  C   UNL     1       4.414  27.631  50.026  1.00  0.00    -0.040 C 
HETATM    3  C   UNL     1       5.513  28.529  49.423  1.00  0.00     0.015 C 
HETATM    4  C   UNL     1       5.014  26.363  50.669  1.00  0.00     0.039 C 
HETATM    5  C   UNL     1       5.940  26.669  51.860  1.00  0.00     0.122 C 
HETATM    6  C   UNL     1       5.384  27.729  52.770  1.00  0.00     0.007 A 
HETATM    7  C   UNL     1       4.332  28.556  52.414  1.00  0.00     0.047 A 
HETATM    8  N   UNL     1       3.861  29.525  53.229  1.00  0.00    -0.237 NA
HETATM    9  C   UNL     1       4.480  29.714  54.413  1.00  0.00     0.133 A 
HETATM   10  N   UNL     1       5.518  28.969  54.832  1.00  0.00    -0.244 NA
HETATM   11  C   UNL     1       5.955  28.011  53.996  1.00  0.00     0.130 A 
HETATM   12  C   UNL     1       3.609  28.394  51.101  1.00  0.00     0.069 C 
ENDROOT
BRANCH   5  13
HETATM   13  N   UNL     1       6.211  25.442  52.595  1.00  0.00    -0.347 N 
HETATM   14  C   UNL     1       7.457  24.862  52.607  1.00  0.00     0.270 C 
HETATM   15  O   UNL     1       8.420  25.354  52.030  1.00  0.00    -0.266 OA
HETATM   16  H   UNL     1       5.426  24.926  52.970  1.00  0.00     0.163 HD
BRANCH  14  17
HETATM   17  C   UNL     1       7.558  23.638  53.354  1.00  0.00     0.122 A 
HETATM   18  N   UNL     1       7.324  23.608  54.709  1.00  0.00    -0.270 N 
HETATM   19  H   UNL     1       7.074  24.395  55.300  1.00  0.00     0.189 HD
HETATM   20  N   UNL     1       7.442  22.382  55.259  1.00  0.00    -0.149 NA
HETATM   21  C   UNL     1       7.755  21.637  54.212  1.00  0.00     0.183 A 
HETATM   22  C   UNL     1       7.848  22.330  53.006  1.00  0.00     0.096 A 
BRANCH  21  23
HETATM   23  O   UNL     1       7.928  20.344  54.459  1.00  0.00    -0.344 OA
HETATM   24  H   UNL     1       8.745  20.110  53.985  1.00  0.00     0.219 HD
ENDBRANCH  21  23
ENDBRANCH  14  17
ENDBRANCH   5  13
BRANCH   9  25
HETATM   25  C   UNL     1       3.920  30.776  55.356  1.00  0.00     0.011 C 
HETATM   26  C   UNL     1       5.068  31.706  55.777  1.00  0.00     0.023 C 
HETATM   27  C   UNL     1       2.820  31.609  54.669  1.00  0.00     0.023 C 
HETATM   28  C   UNL     1       3.306  30.121  56.608  1.00  0.00     0.023 C 
ENDBRANCH   9  25
TORSDOF 4
ENDMDL
MODEL 7
REMARK VINA RESULT:      -7.2      2.244      3.542
REMARK  4 active torsions:
REMARK  status: ('A' for Active; 'I' for Inactive)
REMARK    1  A    between atoms: C_5  and  N_6 
REMARK       I    between atoms: N_6  and  C_7 
REMARK    2  A    between atoms: C_7  and  C_8 
REMARK    3  A    between atoms: C_12  and  O_13 
REMARK    4  A    between atoms: C_19  and  C_20 
ROOT
HETATM    1  C   UNL     1       2.446  31.695  54.662  1.00  0.00     0.015 C 
HETATM    2  C   UNL     1       3.566  30.733  54.226  1.00  0.00    -0.040 C 
HETATM    3  C   UNL     1       4.881  31.536  54.153  1.00  0.00     0.015 C 
HETATM    4  C   UNL     1       3.204  30.123  52.856  1.00  0.00     0.039 C 
HETATM    5  C   UNL     1       4.239  29.099  52.356  1.00  0.00     0.122 C 
HETATM    6  C   UNL     1       4.707  28.171  53.442  1.00  0.00     0.007 A 
HETATM    7  C   UNL     1       4.486  28.408  54.787  1.00  0.00     0.047 A 
HETATM    8  N   UNL     1       4.939  27.582  55.756  1.00  0.00    -0.237 NA
HETATM    9  C   UNL     1       5.674  26.514  55.385  1.00  0.00     0.133 A 
HETATM   10  N   UNL     1       5.952  26.216  54.103  1.00  0.00    -0.244 NA
HETATM   11  C   UNL     1       5.480  27.059  53.168  1.00  0.00     0.130 A 
HETATM   12  C   UNL     1       3.677  29.590  55.259  1.00  0.00     0.069 C 
ENDROOT
BRANCH   5  13
HETATM   13  N   UNL     1       3.685  28.352  51.236  1.00  0.00    -0.347 N 
HETATM   14  C   UNL     1       4.344  28.246  50.035  1.00  0.00     0.270 C 
HETATM   15  O   UNL     1       5.447  28.745  49.841  1.00  0.00    -0.266 OA
HETATM   16  H   UNL     1       2.724  28.042  51.297  1.00  0.00     0.163 HD
BRANCH  14  17
HETATM   17  C   UNL     1       3.653  27.501  49.018  1.00  0.00     0.122 A 
HETATM   18  N   UNL     1       2.279  27.485  48.956  1.00  0.00    -0.270 N 
HETATM   19  H   UNL     1       1.637  27.961  49.581  1.00  0.00     0.189 HD
HETATM   20  N   UNL     1       1.786  26.754  47.935  1.00  0.00    -0.149 NA
HETATM   21  C   UNL     1       2.887  26.311  47.353  1.00  0.00     0.183 A 
HETATM   22  C   UNL     1       4.074  26.721  47.955  1.00  0.00     0.096 A 
BRANCH  21  23
HETATM   23  O   UNL     1       2.702  25.549  46.281  1.00  0.00    -0.344 OA
HETATM   24  H   UNL     1       2.551  24.656  46.637  1.00  0.00     0.219 HD
ENDBRANCH  21  23
ENDBRANCH  14  17
ENDBRANCH   5  13
BRANCH   9  25
HETATM   25  C   UNL     1       6.146  25.553  56.473  1.00  0.00     0.011 C 
HETATM   26  C   UNL     1       4.933  25.156  57.329  1.00  0.00     0.023 C 
HETATM   27  C   UNL     1       6.771  24.282  55.864  1.00  0.00     0.023 C 
HETATM   28  C   UNL     1       7.207  26.222  57.367  1.00  0.00     0.023 C 
ENDBRANCH   9  25
TORSDOF 4
ENDMDL
MODEL 8
REMARK VINA RESULT:      -6.9      3.424      4.719
REMARK  4 active torsions:
REMARK  status: ('A' for Active; 'I' for Inactive)
REMARK    1  A    between atoms: C_5  and  N_6 
REMARK       I    between atoms: N_6  and  C_7 
REMARK    2  A    between atoms: C_7  and  C_8 
REMARK    3  A    between atoms: C_12  and  O_13 
REMARK    4  A    between atoms: C_19  and  C_20 
ROOT
HETATM    1  C   UNL     1       2.002  32.681  52.640  1.00  0.00     0.015 C 
HETATM    2  C   UNL     1       3.224  31.746  52.564  1.00  0.00    -0.040 C 
HETATM    3  C   UNL     1       4.473  32.615  52.319  1.00  0.00     0.015 C 
HETATM    4  C   UNL     1       3.013  30.731  51.421  1.00  0.00     0.039 C 
HETATM    5  C   UNL     1       4.159  29.711  51.297  1.00  0.00     0.122 C 
HETATM    6  C   UNL     1       4.616  29.188  52.631  1.00  0.00     0.007 A 
HETATM    7  C   UNL     1       4.277  29.785  53.833  1.00  0.00     0.047 A 
HETATM    8  N   UNL     1       4.720  29.324  55.024  1.00  0.00    -0.237 NA
HETATM    9  C   UNL     1       5.562  28.271  55.022  1.00  0.00     0.133 A 
HETATM   10  N   UNL     1       5.957  27.640  53.902  1.00  0.00    -0.244 NA
HETATM   11  C   UNL     1       5.491  28.125  52.737  1.00  0.00     0.130 A 
HETATM   12  C   UNL     1       3.346  30.969  53.894  1.00  0.00     0.069 C 
ENDROOT
BRANCH   5  13
HETATM   13  N   UNL     1       3.749  28.620  50.424  1.00  0.00    -0.347 N 
HETATM   14  C   UNL     1       4.547  28.169  49.401  1.00  0.00     0.270 C 
HETATM   15  O   UNL     1       5.661  28.631  49.179  1.00  0.00    -0.266 OA
HETATM   16  H   UNL     1       2.791  28.301  50.476  1.00  0.00     0.163 HD
BRANCH  14  17
HETATM   17  C   UNL     1       3.990  27.106  48.610  1.00  0.00     0.122 A 
HETATM   18  N   UNL     1       3.728  25.872  49.157  1.00  0.00    -0.270 N 
HETATM   19  H   UNL     1       3.891  25.586  50.118  1.00  0.00     0.189 HD
HETATM   20  N   UNL     1       3.192  24.990  48.289  1.00  0.00    -0.149 NA
HETATM   21  C   UNL     1       3.120  25.703  47.177  1.00  0.00     0.183 A 
HETATM   22  C   UNL     1       3.591  27.010  47.288  1.00  0.00     0.096 A 
BRANCH  21  23
HETATM   23  O   UNL     1       2.607  25.075  46.125  1.00  0.00    -0.344 OA
HETATM   24  H   UNL     1       1.656  25.273  46.161  1.00  0.00     0.219 HD
ENDBRANCH  21  23
ENDBRANCH  14  17
ENDBRANCH   5  13
BRANCH   9  25
HETATM   25  C   UNL     1       6.025  27.718  56.368  1.00  0.00     0.011 C 
HETATM   26  C   UNL     1       5.784  28.790  57.442  1.00  0.00     0.023 C 
HETATM   27  C   UNL     1       5.248  26.442  56.745  1.00  0.00     0.023 C 
HETATM   28  C   UNL     1       7.524  27.365  56.324  1.00  0.00     0.023 C 
ENDBRANCH   9  25
TORSDOF 4
ENDMDL
MODEL 9
REMARK VINA RESULT:      -6.8      4.369      6.731
REMARK  4 active torsions:
REMARK  status: ('A' for Active; 'I' for Inactive)
REMARK    1  A    between atoms: C_5  and  N_6 
REMARK       I    between atoms: N_6  and  C_7 
REMARK    2  A    between atoms: C_7  and  C_8 
REMARK    3  A    between atoms: C_12  and  O_13 
REMARK    4  A    between atoms: C_19  and  C_20 
ROOT
HETATM    1  C   UNL     1       2.422  26.604  46.897  1.00  0.00     0.015 C 
HETATM    2  C   UNL     1       2.887  27.447  48.099  1.00  0.00    -0.040 C 
HETATM    3  C   UNL     1       1.639  27.845  48.912  1.00  0.00     0.015 C 
HETATM    4  C   UNL     1       3.641  28.690  47.582  1.00  0.00     0.039 C 
HETATM    5  C   UNL     1       4.198  29.574  48.713  1.00  0.00     0.122 C 
HETATM    6  C   UNL     1       4.830  28.773  49.817  1.00  0.00     0.007 A 
HETATM    7  C   UNL     1       4.647  27.408  49.960  1.00  0.00     0.047 A 
HETATM    8  N   UNL     1       5.195  26.704  50.976  1.00  0.00    -0.237 NA
HETATM    9  C   UNL     1       5.905  27.378  51.904  1.00  0.00     0.133 A 
HETATM   10  N   UNL     1       6.119  28.704  51.852  1.00  0.00    -0.244 NA
HETATM   11  C   UNL     1       5.562  29.370  50.824  1.00  0.00     0.130 A 
HETATM   12  C   UNL     1       3.857  26.606  48.958  1.00  0.00     0.069 C 
ENDROOT
BRANCH   5  13
HETATM   13  N   UNL     1       5.143  30.534  48.160  1.00  0.00    -0.347 N 
HETATM   14  C   UNL     1       4.797  31.843  47.927  1.00  0.00     0.270 C 
HETATM   15  O   UNL     1       3.687  32.291  48.196  1.00  0.00    -0.266 OA
HETATM   16  H   UNL     1       6.019  30.186  47.795  1.00  0.00     0.163 HD
BRANCH  14  17
HETATM   17  C   UNL     1       5.830  32.659  47.352  1.00  0.00     0.122 A 
HETATM   18  N   UNL     1       6.764  33.289  48.142  1.00  0.00    -0.270 N 
HETATM   19  H   UNL     1       6.824  33.256  49.155  1.00  0.00     0.189 HD
HETATM   20  N   UNL     1       7.676  34.003  47.450  1.00  0.00    -0.149 NA
HETATM   21  C   UNL     1       7.293  33.804  46.200  1.00  0.00     0.183 A 
HETATM   22  C   UNL     1       6.169  32.994  46.052  1.00  0.00     0.096 A 
BRANCH  21  23
HETATM   23  O   UNL     1       8.035  34.398  45.272  1.00  0.00    -0.344 OA
HETATM   24  H   UNL     1       7.427  34.545  44.527  1.00  0.00     0.219 HD
ENDBRANCH  21  23
ENDBRANCH  14  17
ENDBRANCH   5  13
BRANCH   9  25
HETATM   25  C   UNL     1       6.565  26.579  53.024  1.00  0.00     0.011 C 
HETATM   26  C   UNL     1       5.461  25.955  53.892  1.00  0.00     0.023 C 
HETATM   27  C   UNL     1       7.457  25.456  52.459  1.00  0.00     0.023 C 
HETATM   28  C   UNL     1       7.448  27.492  53.897  1.00  0.00     0.023 C 
ENDBRANCH   9  25
TORSDOF 4
ENDMDL
MODEL 10
REMARK VINA RESULT:      -6.7      3.470      8.408
REMARK  4 active torsions:
REMARK  status: ('A' for Active; 'I' for Inactive)
REMARK    1  A    between atoms: C_5  and  N_6 
REMARK       I    between atoms: N_6  and  C_7 
REMARK    2  A    between atoms: C_7  and  C_8 
REMARK    3  A    between atoms: C_12  and  O_13 
REMARK    4  A    between atoms: C_19  and  C_20 
ROOT
HETATM    1  C   UNL     1       3.165  25.158  47.916  1.00  0.00     0.015 C 
HETATM    2  C   UNL     1       3.882  26.337  48.601  1.00  0.00    -0.040 C 
HETATM    3  C   UNL     1       5.040  26.784  47.687  1.00  0.00     0.015 C 
HETATM    4  C   UNL     1       4.399  25.880  49.981  1.00  0.00     0.039 C 
HETATM    5  C   UNL     1       5.085  27.008  50.774  1.00  0.00     0.122 C 
HETATM    6  C   UNL     1       4.338  28.310  50.693  1.00  0.00     0.007 A 
HETATM    7  C   UNL     1       3.340  28.554  49.766  1.00  0.00     0.047 A 
HETATM    8  N   UNL     1       2.697  29.740  49.683  1.00  0.00    -0.237 NA
HETATM    9  C   UNL     1       3.086  30.730  50.512  1.00  0.00     0.133 A 
HETATM   10  N   UNL     1       4.057  30.587  51.432  1.00  0.00    -0.244 NA
HETATM   11  C   UNL     1       4.669  29.391  51.487  1.00  0.00     0.130 A 
HETATM   12  C   UNL     1       2.871  27.486  48.810  1.00  0.00     0.069 C 
ENDROOT
BRANCH   5  13
HETATM   13  N   UNL     1       5.261  26.593  52.158  1.00  0.00    -0.347 N 
HETATM   14  C   UNL     1       6.337  25.839  52.559  1.00  0.00     0.270 C 
HETATM   15  O   UNL     1       7.227  25.495  51.789  1.00  0.00    -0.266 OA
HETATM   16  H   UNL     1       4.492  26.731  52.800  1.00  0.00     0.163 HD
BRANCH  14  17
HETATM   17  C   UNL     1       6.354  25.485  53.952  1.00  0.00     0.122 A 
HETATM   18  N   UNL     1       5.246  25.667  54.748  1.00  0.00    -0.270 N 
HETATM   19  H   UNL     1       4.350  26.052  54.463  1.00  0.00     0.189 HD
HETATM   20  N   UNL     1       5.418  25.270  56.025  1.00  0.00    -0.149 NA
HETATM   21  C   UNL     1       6.664  24.829  56.014  1.00  0.00     0.183 A 
HETATM   22  C   UNL     1       7.309  24.927  54.783  1.00  0.00     0.096 A 
BRANCH  21  23
HETATM   23  O   UNL     1       7.115  24.354  57.170  1.00  0.00    -0.344 OA
HETATM   24  H   UNL     1       6.361  23.870  57.548  1.00  0.00     0.219 HD
ENDBRANCH  21  23
ENDBRANCH  14  17
ENDBRANCH   5  13
BRANCH   9  25
HETATM   25  C   UNL     1       2.330  32.055  50.455  1.00  0.00     0.011 C 
HETATM   26  C   UNL     1       0.862  31.761  50.106  1.00  0.00     0.023 C 
HETATM   27  C   UNL     1       2.390  32.792  51.807  1.00  0.00     0.023 C 
HETATM   28  C   UNL     1       2.935  32.981  49.382  1.00  0.00     0.023 C 
ENDBRANCH   9  25
TORSDOF 4
ENDMDL
