MODEL 1
REMARK VINA RESULT:     -10.8      0.000      0.000
REMARK  2 active torsions:
REMARK  status: ('A' for Active; 'I' for Inactive)
REMARK    1  A    between atoms: C_4  and  C_5 
REMARK       I    between atoms: N_12  and  C_13 
REMARK    2  A    between atoms: C_13  and  C_14 
ROOT
HETATM    1  C   UNL     1       8.252  23.566  56.080  1.00  0.00     0.097 A 
HETATM    2  N   UNL     1       8.558  23.281  57.361  1.00  0.00    -0.173 NA
HETATM    3  N   UNL     1       8.363  24.426  58.032  1.00  0.00    -0.281 N 
HETATM    4  H   UNL     1       8.521  24.429  59.035  1.00  0.00     0.189 HD
HETATM    5  C   UNL     1       7.932  25.432  57.236  1.00  0.00     0.039 A 
HETATM    6  C   UNL     1       7.871  24.935  55.955  1.00  0.00     0.015 A 
HETATM    7  C   UNL     1       7.422  25.739  54.786  1.00  0.00     0.169 C 
HETATM    8  N   UNL     1       6.809  27.013  55.231  1.00  0.00    -0.343 N 
HETATM    9  C   UNL     1       6.110  27.848  54.351  1.00  0.00     0.254 C 
HETATM   10  O   UNL     1       5.839  29.021  54.600  1.00  0.00    -0.267 OA
HETATM   11  C   UNL     1       7.423  27.682  56.401  1.00  0.00     0.132 C 
HETATM   12  C   UNL     1       7.521  26.789  57.652  1.00  0.00     0.079 C 
ENDROOT
BRANCH   9  13
HETATM   13  C   UNL     1       5.711  27.344  53.020  1.00  0.00     0.035 A 
HETATM   14  C   UNL     1       5.711  28.249  51.954  1.00  0.00     0.056 A 
HETATM   15  C   UNL     1       5.328  27.819  50.687  1.00  0.00     0.103 A 
HETATM   16  C   UNL     1       4.909  26.498  50.491  1.00  0.00     0.102 A 
HETATM   17  O   UNL     1       5.373  28.751  49.683  1.00  0.00    -0.346 OA
HETATM   18  O   UNL     1       4.494  26.018  49.275  1.00  0.00    -0.346 OA
HETATM   19  C   UNL     1       4.899  25.598  51.558  1.00  0.00     0.040 A 
HETATM   20  C   UNL     1       4.176  27.088  48.377  1.00  0.00     0.202 C 
HETATM   21  C   UNL     1       5.267  28.144  48.391  1.00  0.00     0.202 C 
HETATM   22  C   UNL     1       5.284  26.024  52.832  1.00  0.00     0.020 A 
ENDBRANCH   9  13
BRANCH   1  23
HETATM   23  C   UNL     1       8.286  22.520  55.055  1.00  0.00    -0.005 A 
HETATM   24  C   UNL     1       8.666  21.215  55.408  1.00  0.00     0.014 A 
HETATM   25  C   UNL     1       8.672  20.190  54.460  1.00  0.00     0.001 A 
HETATM   26  C   UNL     1       8.302  20.457  53.145  1.00  0.00     0.000 A 
HETATM   27  C   UNL     1       7.935  21.751  52.776  1.00  0.00     0.001 A 
HETATM   28  C   UNL     1       7.931  22.779  53.725  1.00  0.00     0.014 A 
ENDBRANCH   1  23
TORSDOF 2
ENDMDL
MODEL 2
REMARK VINA RESULT:      -9.7      3.306      6.762
REMARK  2 active torsions:
REMARK  status: ('A' for Active; 'I' for Inactive)
REMARK    1  A    between atoms: C_4  and  C_5 
REMARK       I    between atoms: N_12  and  C_13 
REMARK    2  A    between atoms: C_13  and  C_14 
ROOT
HETATM    1  C   UNL     1       5.815  25.278  53.956  1.00  0.00     0.097 A 
HETATM    2  N   UNL     1       5.311  24.757  52.819  1.00  0.00    -0.173 NA
HETATM    3  N   UNL     1       4.533  25.722  52.305  1.00  0.00    -0.281 N 
HETATM    4  H   UNL     1       4.063  25.542  51.424  1.00  0.00     0.189 HD
HETATM    5  C   UNL     1       4.526  26.846  53.060  1.00  0.00     0.039 A 
HETATM    6  C   UNL     1       5.319  26.600  54.156  1.00  0.00     0.015 A 
HETATM    7  C   UNL     1       5.577  27.608  55.221  1.00  0.00     0.169 C 
HETATM    8  N   UNL     1       5.104  28.948  54.800  1.00  0.00    -0.343 N 
HETATM    9  C   UNL     1       5.422  30.107  55.518  1.00  0.00     0.254 C 
HETATM   10  O   UNL     1       4.830  31.176  55.376  1.00  0.00    -0.267 OA
HETATM   11  C   UNL     1       3.849  29.002  54.015  1.00  0.00     0.132 C 
HETATM   12  C   UNL     1       3.868  28.130  52.745  1.00  0.00     0.079 C 
ENDROOT
BRANCH   9  13
HETATM   13  C   UNL     1       6.480  30.066  56.549  1.00  0.00     0.035 A 
HETATM   14  C   UNL     1       6.275  30.802  57.721  1.00  0.00     0.056 A 
HETATM   15  C   UNL     1       7.253  30.803  58.711  1.00  0.00     0.103 A 
HETATM   16  C   UNL     1       8.449  30.101  58.517  1.00  0.00     0.102 A 
HETATM   17  O   UNL     1       6.979  31.525  59.843  1.00  0.00    -0.346 OA
HETATM   18  O   UNL     1       9.463  30.083  59.440  1.00  0.00    -0.346 OA
HETATM   19  C   UNL     1       8.656  29.376  57.342  1.00  0.00     0.040 A 
HETATM   20  C   UNL     1       9.316  31.143  60.393  1.00  0.00     0.202 C 
HETATM   21  C   UNL     1       7.887  31.212  60.904  1.00  0.00     0.202 C 
HETATM   22  C   UNL     1       7.678  29.371  56.345  1.00  0.00     0.020 A 
ENDBRANCH   9  13
BRANCH   1  23
HETATM   23  C   UNL     1       6.775  24.520  54.762  1.00  0.00    -0.005 A 
HETATM   24  C   UNL     1       7.674  23.646  54.129  1.00  0.00     0.014 A 
HETATM   25  C   UNL     1       8.624  22.938  54.868  1.00  0.00     0.001 A 
HETATM   26  C   UNL     1       8.686  23.093  56.250  1.00  0.00     0.000 A 
HETATM   27  C   UNL     1       7.791  23.947  56.894  1.00  0.00     0.001 A 
HETATM   28  C   UNL     1       6.837  24.654  56.154  1.00  0.00     0.014 A 
ENDBRANCH   1  23
TORSDOF 2
ENDMDL
MODEL 3
REMARK VINA RESULT:      -9.5      2.290      3.499
REMARK  2 active torsions:
REMARK  status: ('A' for Active; 'I' for Inactive)
REMARK    1  A    between atoms: C_4  and  C_5 
REMARK       I    between atoms: N_12  and  C_13 
REMARK    2  A    between atoms: C_13  and  C_14 
ROOT
HETATM    1  C   UNL     1       5.919  26.257  55.282  1.00  0.00     0.097 A 
HETATM    2  N   UNL     1       5.638  25.931  56.559  1.00  0.00    -0.173 NA
HETATM    3  N   UNL     1       4.914  26.956  57.033  1.00  0.00    -0.281 N 
HETATM    4  H   UNL     1       4.576  26.905  57.989  1.00  0.00     0.189 HD
HETATM    5  C   UNL     1       4.709  27.923  56.108  1.00  0.00     0.039 A 
HETATM    6  C   UNL     1       5.364  27.532  54.964  1.00  0.00     0.015 A 
HETATM    7  C   UNL     1       5.362  28.329  53.707  1.00  0.00     0.169 C 
HETATM    8  N   UNL     1       4.359  29.418  53.779  1.00  0.00    -0.343 N 
HETATM    9  C   UNL     1       4.000  30.172  52.656  1.00  0.00     0.254 C 
HETATM   10  O   UNL     1       3.404  31.246  52.722  1.00  0.00    -0.267 OA
HETATM   11  C   UNL     1       4.193  30.093  55.087  1.00  0.00     0.132 C 
HETATM   12  C   UNL     1       3.876  29.134  56.250  1.00  0.00     0.079 C 
ENDROOT
BRANCH   9  13
HETATM   13  C   UNL     1       4.391  29.714  51.307  1.00  0.00     0.035 A 
HETATM   14  C   UNL     1       3.697  28.629  50.761  1.00  0.00     0.056 A 
HETATM   15  C   UNL     1       4.044  28.156  49.499  1.00  0.00     0.103 A 
HETATM   16  C   UNL     1       5.106  28.739  48.798  1.00  0.00     0.102 A 
HETATM   17  O   UNL     1       3.308  27.106  49.014  1.00  0.00    -0.346 OA
HETATM   18  O   UNL     1       5.516  28.303  47.565  1.00  0.00    -0.346 OA
HETATM   19  C   UNL     1       5.806  29.814  49.349  1.00  0.00     0.040 A 
HETATM   20  C   UNL     1       5.011  26.993  47.283  1.00  0.00     0.202 C 
HETATM   21  C   UNL     1       3.531  26.905  47.614  1.00  0.00     0.202 C 
HETATM   22  C   UNL     1       5.461  30.294  50.615  1.00  0.00     0.020 A 
ENDBRANCH   9  13
BRANCH   1  23
HETATM   23  C   UNL     1       6.651  25.327  54.419  1.00  0.00    -0.005 A 
HETATM   24  C   UNL     1       6.832  23.996  54.829  1.00  0.00     0.014 A 
HETATM   25  C   UNL     1       7.493  23.078  54.011  1.00  0.00     0.001 A 
HETATM   26  C   UNL     1       7.986  23.480  52.773  1.00  0.00     0.000 A 
HETATM   27  C   UNL     1       7.827  24.802  52.358  1.00  0.00     0.001 A 
HETATM   28  C   UNL     1       7.167  25.723  53.179  1.00  0.00     0.014 A 
ENDBRANCH   1  23
TORSDOF 2
ENDMDL
MODEL 4
REMARK VINA RESULT:      -9.3      3.011      7.121
REMARK  2 active torsions:
REMARK  status: ('A' for Active; 'I' for Inactive)
REMARK    1  A    between atoms: C_4  and  C_5 
REMARK       I    between atoms: N_12  and  C_13 
REMARK    2  A    between atoms: C_13  and  C_14 
ROOT
HETATM    1  C   UNL     1       3.311  28.828  51.130  1.00  0.00     0.097 A 
HETATM    2  N   UNL     1       2.729  30.038  51.007  1.00  0.00    -0.173 NA
HETATM    3  N   UNL     1       2.809  30.592  52.226  1.00  0.00    -0.281 N 
HETATM    4  H   UNL     1       2.440  31.529  52.354  1.00  0.00     0.189 HD
HETATM    5  C   UNL     1       3.429  29.791  53.125  1.00  0.00     0.039 A 
HETATM    6  C   UNL     1       3.749  28.624  52.471  1.00  0.00     0.015 A 
HETATM    7  C   UNL     1       4.460  27.490  53.123  1.00  0.00     0.169 C 
HETATM    8  N   UNL     1       5.000  27.899  54.442  1.00  0.00    -0.343 N 
HETATM    9  C   UNL     1       5.895  27.096  55.159  1.00  0.00     0.254 C 
HETATM   10  O   UNL     1       6.139  27.254  56.353  1.00  0.00    -0.267 OA
HETATM   11  C   UNL     1       4.169  28.819  55.252  1.00  0.00     0.132 C 
HETATM   12  C   UNL     1       3.780  30.118  54.522  1.00  0.00     0.079 C 
ENDROOT
BRANCH   9  13
HETATM   13  C   UNL     1       6.555  25.954  54.492  1.00  0.00     0.035 A 
HETATM   14  C   UNL     1       6.662  24.757  55.206  1.00  0.00     0.056 A 
HETATM   15  C   UNL     1       7.290  23.661  54.621  1.00  0.00     0.103 A 
HETATM   16  C   UNL     1       7.842  23.771  53.339  1.00  0.00     0.102 A 
HETATM   17  O   UNL     1       7.340  22.512  55.367  1.00  0.00    -0.346 OA
HETATM   18  O   UNL     1       8.497  22.739  52.718  1.00  0.00    -0.346 OA
HETATM   19  C   UNL     1       7.743  24.970  52.632  1.00  0.00     0.040 A 
HETATM   20  C   UNL     1       8.875  21.724  53.655  1.00  0.00     0.202 C 
HETATM   21  C   UNL     1       7.715  21.381  54.574  1.00  0.00     0.202 C 
HETATM   22  C   UNL     1       7.114  26.073  53.214  1.00  0.00     0.020 A 
ENDBRANCH   9  13
BRANCH   1  23
HETATM   23  C   UNL     1       3.467  27.955  49.964  1.00  0.00    -0.005 A 
HETATM   24  C   UNL     1       2.424  27.854  49.029  1.00  0.00     0.014 A 
HETATM   25  C   UNL     1       2.560  27.058  47.890  1.00  0.00     0.001 A 
HETATM   26  C   UNL     1       3.738  26.350  47.672  1.00  0.00     0.000 A 
HETATM   27  C   UNL     1       4.777  26.429  48.599  1.00  0.00     0.001 A 
HETATM   28  C   UNL     1       4.641  27.225  49.742  1.00  0.00     0.014 A 
ENDBRANCH   1  23
TORSDOF 2
ENDMDL
MODEL 5
REMARK VINA RESULT:      -9.3      3.082      7.288
REMARK  2 active torsions:
REMARK  status: ('A' for Active; 'I' for Inactive)
REMARK    1  A    between atoms: C_4  and  C_5 
REMARK       I    between atoms: N_12  and  C_13 
REMARK    2  A    between atoms: C_13  and  C_14 
ROOT
HETATM    1  C   UNL     1       5.749  30.041  55.630  1.00  0.00     0.097 A 
HETATM    2  N   UNL     1       4.960  31.127  55.503  1.00  0.00    -0.173 NA
HETATM    3  N   UNL     1       4.098  30.822  54.521  1.00  0.00    -0.281 N 
HETATM    4  H   UNL     1       3.391  31.507  54.272  1.00  0.00     0.189 HD
HETATM    5  C   UNL     1       4.293  29.580  54.020  1.00  0.00     0.039 A 
HETATM    6  C   UNL     1       5.370  29.042  54.686  1.00  0.00     0.015 A 
HETATM    7  C   UNL     1       5.889  27.671  54.427  1.00  0.00     0.169 C 
HETATM    8  N   UNL     1       4.942  26.902  53.586  1.00  0.00    -0.343 N 
HETATM    9  C   UNL     1       5.082  25.524  53.380  1.00  0.00     0.254 C 
HETATM   10  O   UNL     1       4.507  24.911  52.483  1.00  0.00    -0.267 OA
HETATM   11  C   UNL     1       4.239  27.645  52.514  1.00  0.00     0.132 C 
HETATM   12  C   UNL     1       3.470  28.883  53.012  1.00  0.00     0.079 C 
ENDROOT
BRANCH   9  13
HETATM   13  C   UNL     1       6.006  24.744  54.230  1.00  0.00     0.035 A 
HETATM   14  C   UNL     1       6.790  23.766  53.611  1.00  0.00     0.056 A 
HETATM   15  C   UNL     1       7.663  22.998  54.377  1.00  0.00     0.103 A 
HETATM   16  C   UNL     1       7.725  23.181  55.763  1.00  0.00     0.102 A 
HETATM   17  O   UNL     1       8.419  22.074  53.704  1.00  0.00    -0.346 OA
HETATM   18  O   UNL     1       8.542  22.439  56.578  1.00  0.00    -0.346 OA
HETATM   19  C   UNL     1       6.933  24.150  56.381  1.00  0.00     0.040 A 
HETATM   20  C   UNL     1       8.994  21.252  55.917  1.00  0.00     0.202 C 
HETATM   21  C   UNL     1       9.484  21.569  54.515  1.00  0.00     0.202 C 
HETATM   22  C   UNL     1       6.056  24.924  55.617  1.00  0.00     0.020 A 
ENDBRANCH   9  13
BRANCH   1  23
HETATM   23  C   UNL     1       6.781  29.988  56.668  1.00  0.00    -0.005 A 
HETATM   24  C   UNL     1       8.016  29.383  56.387  1.00  0.00     0.014 A 
HETATM   25  C   UNL     1       9.032  29.350  57.345  1.00  0.00     0.001 A 
HETATM   26  C   UNL     1       8.823  29.918  58.599  1.00  0.00     0.000 A 
HETATM   27  C   UNL     1       7.595  30.509  58.897  1.00  0.00     0.001 A 
HETATM   28  C   UNL     1       6.577  30.540  57.939  1.00  0.00     0.014 A 
ENDBRANCH   1  23
TORSDOF 2
ENDMDL
MODEL 6
REMARK VINA RESULT:      -9.2      8.424     12.643
REMARK  2 active torsions:
REMARK  status: ('A' for Active; 'I' for Inactive)
REMARK    1  A    between atoms: C_4  and  C_5 
REMARK       I    between atoms: N_12  and  C_13 
REMARK    2  A    between atoms: C_13  and  C_14 
ROOT
HETATM    1  C   UNL     1       5.385  32.555  57.892  1.00  0.00     0.097 A 
HETATM    2  N   UNL     1       5.307  31.838  56.753  1.00  0.00    -0.173 NA
HETATM    3  N   UNL     1       6.170  30.824  56.916  1.00  0.00    -0.281 N 
HETATM    4  H   UNL     1       6.257  30.142  56.169  1.00  0.00     0.189 HD
HETATM    5  C   UNL     1       6.791  30.854  58.118  1.00  0.00     0.039 A 
HETATM    6  C   UNL     1       6.338  31.972  58.779  1.00  0.00     0.015 A 
HETATM    7  C   UNL     1       6.778  32.347  60.150  1.00  0.00     0.169 C 
HETATM    8  N   UNL     1       7.527  31.234  60.782  1.00  0.00    -0.343 N 
HETATM    9  C   UNL     1       7.859  31.241  62.142  1.00  0.00     0.254 C 
HETATM   10  O   UNL     1       8.706  30.500  62.637  1.00  0.00    -0.267 OA
HETATM   11  C   UNL     1       8.420  30.442  59.906  1.00  0.00     0.132 C 
HETATM   12  C   UNL     1       7.717  29.845  58.671  1.00  0.00     0.079 C 
ENDROOT
BRANCH   9  13
HETATM   13  C   UNL     1       7.220  32.217  63.050  1.00  0.00     0.035 A 
HETATM   14  C   UNL     1       5.842  32.422  62.920  1.00  0.00     0.056 A 
HETATM   15  C   UNL     1       5.204  33.343  63.745  1.00  0.00     0.103 A 
HETATM   16  C   UNL     1       5.944  34.085  64.673  1.00  0.00     0.102 A 
HETATM   17  O   UNL     1       3.850  33.479  63.580  1.00  0.00    -0.346 OA
HETATM   18  O   UNL     1       5.381  35.027  65.495  1.00  0.00    -0.346 OA
HETATM   19  C   UNL     1       7.320  33.887  64.794  1.00  0.00     0.040 A 
HETATM   20  C   UNL     1       4.085  35.418  65.026  1.00  0.00     0.202 C 
HETATM   21  C   UNL     1       3.254  34.200  64.663  1.00  0.00     0.202 C 
HETATM   22  C   UNL     1       7.967  32.963  63.969  1.00  0.00     0.020 A 
ENDBRANCH   9  13
BRANCH   1  23
HETATM   23  C   UNL     1       4.519  33.718  58.101  1.00  0.00    -0.005 A 
HETATM   24  C   UNL     1       3.578  33.704  59.144  1.00  0.00     0.014 A 
HETATM   25  C   UNL     1       2.766  34.812  59.390  1.00  0.00     0.001 A 
HETATM   26  C   UNL     1       2.880  35.948  58.593  1.00  0.00     0.000 A 
HETATM   27  C   UNL     1       3.800  35.972  57.546  1.00  0.00     0.001 A 
HETATM   28  C   UNL     1       4.613  34.861  57.297  1.00  0.00     0.014 A 
ENDBRANCH   1  23
TORSDOF 2
ENDMDL
MODEL 7
REMARK VINA RESULT:      -9.1      3.508      8.003
REMARK  2 active torsions:
REMARK  status: ('A' for Active; 'I' for Inactive)
REMARK    1  A    between atoms: C_4  and  C_5 
REMARK       I    between atoms: N_12  and  C_13 
REMARK    2  A    between atoms: C_13  and  C_14 
ROOT
HETATM    1  C   UNL     1       4.919  27.925  51.005  1.00  0.00     0.097 A 
HETATM    2  N   UNL     1       4.383  27.257  49.965  1.00  0.00    -0.173 NA
HETATM    3  N   UNL     1       4.437  25.963  50.313  1.00  0.00    -0.281 N 
HETATM    4  H   UNL     1       4.062  25.275  49.667  1.00  0.00     0.189 HD
HETATM    5  C   UNL     1       4.976  25.773  51.540  1.00  0.00     0.039 A 
HETATM    6  C   UNL     1       5.331  27.012  52.020  1.00  0.00     0.015 A 
HETATM    7  C   UNL     1       5.946  27.225  53.359  1.00  0.00     0.169 C 
HETATM    8  N   UNL     1       5.863  25.991  54.176  1.00  0.00    -0.343 N 
HETATM    9  C   UNL     1       6.165  25.984  55.543  1.00  0.00     0.254 C 
HETATM   10  O   UNL     1       6.385  24.958  56.183  1.00  0.00    -0.267 OA
HETATM   11  C   UNL     1       6.050  24.703  53.469  1.00  0.00     0.132 C 
HETATM   12  C   UNL     1       5.094  24.499  52.278  1.00  0.00     0.079 C 
ENDROOT
BRANCH   9  13
HETATM   13  C   UNL     1       6.293  27.262  56.274  1.00  0.00     0.035 A 
HETATM   14  C   UNL     1       7.573  27.657  56.676  1.00  0.00     0.056 A 
HETATM   15  C   UNL     1       7.736  28.846  57.381  1.00  0.00     0.103 A 
HETATM   16  C   UNL     1       6.620  29.622  57.715  1.00  0.00     0.102 A 
HETATM   17  O   UNL     1       9.019  29.185  57.724  1.00  0.00    -0.346 OA
HETATM   18  O   UNL     1       6.709  30.789  58.430  1.00  0.00    -0.346 OA
HETATM   19  C   UNL     1       5.342  29.221  57.323  1.00  0.00     0.040 A 
HETATM   20  C   UNL     1       7.971  30.893  59.100  1.00  0.00     0.202 C 
HETATM   21  C   UNL     1       9.110  30.546  58.157  1.00  0.00     0.202 C 
HETATM   22  C   UNL     1       5.172  28.029  56.615  1.00  0.00     0.020 A 
ENDBRANCH   9  13
BRANCH   1  23
HETATM   23  C   UNL     1       4.965  29.390  51.006  1.00  0.00    -0.005 A 
HETATM   24  C   UNL     1       5.769  30.058  50.069  1.00  0.00     0.014 A 
HETATM   25  C   UNL     1       5.804  31.454  50.022  1.00  0.00     0.001 A 
HETATM   26  C   UNL     1       5.038  32.198  50.916  1.00  0.00     0.000 A 
HETATM   27  C   UNL     1       4.246  31.548  51.861  1.00  0.00     0.001 A 
HETATM   28  C   UNL     1       4.213  30.150  51.910  1.00  0.00     0.014 A 
ENDBRANCH   1  23
TORSDOF 2
ENDMDL
MODEL 8
REMARK VINA RESULT:      -9.0      6.676      8.806
REMARK  2 active torsions:
REMARK  status: ('A' for Active; 'I' for Inactive)
REMARK    1  A    between atoms: C_4  and  C_5 
REMARK       I    between atoms: N_12  and  C_13 
REMARK    2  A    between atoms: C_13  and  C_14 
ROOT
HETATM    1  C   UNL     1       8.586  30.708  60.453  1.00  0.00     0.097 A 
HETATM    2  N   UNL     1       9.122  30.075  61.516  1.00  0.00    -0.173 NA
HETATM    3  N   UNL     1       8.477  30.570  62.582  1.00  0.00    -0.281 N 
HETATM    4  H   UNL     1       8.719  30.210  63.500  1.00  0.00     0.189 HD
HETATM    5  C   UNL     1       7.539  31.486  62.247  1.00  0.00     0.039 A 
HETATM    6  C   UNL     1       7.588  31.633  60.880  1.00  0.00     0.015 A 
HETATM    7  C   UNL     1       6.691  32.548  60.123  1.00  0.00     0.169 C 
HETATM    8  N   UNL     1       5.595  33.044  60.990  1.00  0.00    -0.343 N 
HETATM    9  C   UNL     1       4.496  33.738  60.472  1.00  0.00     0.254 C 
HETATM   10  O   UNL     1       3.727  34.403  61.164  1.00  0.00    -0.267 OA
HETATM   11  C   UNL     1       5.935  33.337  62.401  1.00  0.00     0.132 C 
HETATM   12  C   UNL     1       6.578  32.153  63.149  1.00  0.00     0.079 C 
ENDROOT
BRANCH   9  13
HETATM   13  C   UNL     1       4.249  33.743  59.015  1.00  0.00     0.035 A 
HETATM   14  C   UNL     1       3.696  32.592  58.445  1.00  0.00     0.056 A 
HETATM   15  C   UNL     1       3.461  32.549  57.074  1.00  0.00     0.103 A 
HETATM   16  C   UNL     1       3.813  33.638  56.267  1.00  0.00     0.102 A 
HETATM   17  O   UNL     1       2.895  31.401  56.584  1.00  0.00    -0.346 OA
HETATM   18  O   UNL     1       3.634  33.649  54.908  1.00  0.00    -0.346 OA
HETATM   19  C   UNL     1       4.375  34.781  56.836  1.00  0.00     0.040 A 
HETATM   20  C   UNL     1       3.429  32.325  54.400  1.00  0.00     0.202 C 
HETATM   21  C   UNL     1       2.415  31.575  55.247  1.00  0.00     0.202 C 
HETATM   22  C   UNL     1       4.612  34.831  58.212  1.00  0.00     0.020 A 
ENDBRANCH   9  13
BRANCH   1  23
HETATM   23  C   UNL     1       9.007  30.367  59.092  1.00  0.00    -0.005 A 
HETATM   24  C   UNL     1      10.140  30.986  58.541  1.00  0.00     0.014 A 
HETATM   25  C   UNL     1      10.585  30.654  57.260  1.00  0.00     0.001 A 
HETATM   26  C   UNL     1       9.901  29.700  56.512  1.00  0.00     0.000 A 
HETATM   27  C   UNL     1       8.766  29.086  57.040  1.00  0.00     0.001 A 
HETATM   28  C   UNL     1       8.318  29.421  58.323  1.00  0.00     0.014 A 
ENDBRANCH   1  23
TORSDOF 2
ENDMDL
MODEL 9
REMARK VINA RESULT:      -8.9      2.376      5.358
REMARK  2 active torsions:
REMARK  status: ('A' for Active; 'I' for Inactive)
REMARK    1  A    between atoms: C_4  and  C_5 
REMARK       I    between atoms: N_12  and  C_13 
REMARK    2  A    between atoms: C_13  and  C_14 
ROOT
HETATM    1  C   UNL     1       7.493  27.107  57.118  1.00  0.00     0.097 A 
HETATM    2  N   UNL     1       8.357  26.308  57.774  1.00  0.00    -0.173 NA
HETATM    3  N   UNL     1       8.356  25.153  57.092  1.00  0.00    -0.281 N 
HETATM    4  H   UNL     1       8.963  24.405  57.411  1.00  0.00     0.189 HD
HETATM    5  C   UNL     1       7.535  25.182  56.015  1.00  0.00     0.039 A 
HETATM    6  C   UNL     1       6.930  26.417  56.003  1.00  0.00     0.015 A 
HETATM    7  C   UNL     1       5.962  26.843  54.956  1.00  0.00     0.169 C 
HETATM    8  N   UNL     1       5.961  25.888  53.823  1.00  0.00    -0.343 N 
HETATM    9  C   UNL     1       5.310  26.168  52.616  1.00  0.00     0.254 C 
HETATM   10  O   UNL     1       5.043  25.312  51.775  1.00  0.00    -0.267 OA
HETATM   11  C   UNL     1       6.114  24.453  54.154  1.00  0.00     0.132 C 
HETATM   12  C   UNL     1       7.368  24.133  54.990  1.00  0.00     0.079 C 
ENDROOT
BRANCH   9  13
HETATM   13  C   UNL     1       4.851  27.544  52.330  1.00  0.00     0.035 A 
HETATM   14  C   UNL     1       5.666  28.348  51.526  1.00  0.00     0.056 A 
HETATM   15  C   UNL     1       5.279  29.655  51.245  1.00  0.00     0.103 A 
HETATM   16  C   UNL     1       4.099  30.171  51.795  1.00  0.00     0.102 A 
HETATM   17  O   UNL     1       6.111  30.379  50.432  1.00  0.00    -0.346 OA
HETATM   18  O   UNL     1       3.676  31.457  51.580  1.00  0.00    -0.346 OA
HETATM   19  C   UNL     1       3.293  29.371  52.606  1.00  0.00     0.040 A 
HETATM   20  C   UNL     1       4.739  32.278  51.082  1.00  0.00     0.202 C 
HETATM   21  C   UNL     1       5.480  31.574  49.959  1.00  0.00     0.202 C 
HETATM   22  C   UNL     1       3.676  28.058  52.892  1.00  0.00     0.020 A 
ENDBRANCH   9  13
BRANCH   1  23
HETATM   23  C   UNL     1       7.285  28.492  57.547  1.00  0.00    -0.005 A 
HETATM   24  C   UNL     1       8.351  29.210  58.114  1.00  0.00     0.014 A 
HETATM   25  C   UNL     1       8.192  30.543  58.498  1.00  0.00     0.001 A 
HETATM   26  C   UNL     1       6.964  31.175  58.324  1.00  0.00     0.000 A 
HETATM   27  C   UNL     1       5.893  30.471  57.775  1.00  0.00     0.001 A 
HETATM   28  C   UNL     1       6.050  29.135  57.393  1.00  0.00     0.014 A 
ENDBRANCH   1  23
TORSDOF 2
ENDMDL
MODEL 10
REMARK VINA RESULT:      -8.8      3.144      7.099
REMARK  2 active torsions:
REMARK  status: ('A' for Active; 'I' for Inactive)
REMARK    1  A    between atoms: C_4  and  C_5 
REMARK       I    between atoms: N_12  and  C_13 
REMARK    2  A    between atoms: C_13  and  C_14 
ROOT
HETATM    1  C   UNL     1       5.774  26.405  52.623  1.00  0.00     0.097 A 
HETATM    2  N   UNL     1       5.504  25.271  51.946  1.00  0.00    -0.173 NA
HETATM    3  N   UNL     1       5.962  24.279  52.724  1.00  0.00    -0.281 N 
HETATM    4  H   UNL     1       5.843  23.323  52.405  1.00  0.00     0.189 HD
HETATM    5  C   UNL     1       6.505  24.730  53.879  1.00  0.00     0.039 A 
HETATM    6  C   UNL     1       6.433  26.103  53.851  1.00  0.00     0.015 A 
HETATM    7  C   UNL     1       6.917  26.970  54.959  1.00  0.00     0.169 C 
HETATM    8  N   UNL     1       7.215  26.162  56.166  1.00  0.00    -0.343 N 
HETATM    9  C   UNL     1       7.472  26.751  57.409  1.00  0.00     0.254 C 
HETATM   10  O   UNL     1       7.994  26.153  58.347  1.00  0.00    -0.267 OA
HETATM   11  C   UNL     1       7.821  24.828  55.948  1.00  0.00     0.132 C 
HETATM   12  C   UNL     1       7.009  23.919  55.006  1.00  0.00     0.079 C 
ENDROOT
BRANCH   9  13
HETATM   13  C   UNL     1       7.167  28.182  57.622  1.00  0.00     0.035 A 
HETATM   14  C   UNL     1       5.866  28.617  57.348  1.00  0.00     0.056 A 
HETATM   15  C   UNL     1       5.540  29.959  57.520  1.00  0.00     0.103 A 
HETATM   16  C   UNL     1       6.519  30.872  57.930  1.00  0.00     0.102 A 
HETATM   17  O   UNL     1       4.243  30.314  57.256  1.00  0.00    -0.346 OA
HETATM   18  O   UNL     1       6.270  32.211  58.093  1.00  0.00    -0.346 OA
HETATM   19  C   UNL     1       7.819  30.438  58.193  1.00  0.00     0.040 A 
HETATM   20  C   UNL     1       5.058  32.597  57.436  1.00  0.00     0.202 C 
HETATM   21  C   UNL     1       3.939  31.620  57.755  1.00  0.00     0.202 C 
HETATM   22  C   UNL     1       8.152  29.092  58.022  1.00  0.00     0.020 A 
ENDBRANCH   9  13
BRANCH   1  23
HETATM   23  C   UNL     1       5.348  27.705  52.099  1.00  0.00    -0.005 A 
HETATM   24  C   UNL     1       5.506  27.988  50.733  1.00  0.00     0.014 A 
HETATM   25  C   UNL     1       5.075  29.204  50.199  1.00  0.00     0.001 A 
HETATM   26  C   UNL     1       4.485  30.156  51.025  1.00  0.00     0.000 A 
HETATM   27  C   UNL     1       4.334  29.895  52.387  1.00  0.00     0.001 A 
HETATM   28  C   UNL     1       4.768  28.678  52.923  1.00  0.00     0.014 A 
ENDBRANCH   1  23
TORSDOF 2
ENDMDL
