MODEL 1
REMARK VINA RESULT:     -10.5      0.000      0.000
REMARK  6 active torsions:
REMARK  status: ('A' for Active; 'I' for Inactive)
REMARK    1  A    between atoms: C_4  and  N_5 
REMARK       I    between atoms: N_5  and  C_6 
REMARK       I    between atoms: C_6  and  N_16 
REMARK    2  A    between atoms: N_16  and  CA_17 
REMARK    3  A    between atoms: CA_17  and  C_18 
REMARK    4  A    between atoms: CA_17  and  CB_20 
REMARK    5  A    between atoms: C_18  and  O_19 
REMARK    6  A    between atoms: CB_20  and  CG_21 
ROOT
HETATM    1  N   UNK A   0       8.288  24.685  56.661  1.00  0.00    -0.307 N 
HETATM    2  C   UNK A   0       7.801  25.790  57.276  1.00  0.00     0.321 C 
HETATM    3  O   UNK A   0       7.962  25.930  58.488  1.00  0.00    -0.247 OA
HETATM    4  H   UNK A   0       8.904  24.146  57.268  1.00  0.00     0.170 HD
ATOM      5  N   TRP A   1       7.177  26.724  56.510  1.00  0.00    -0.336 N 
ATOM      6  H   TRP A   1       7.528  26.806  55.566  1.00  0.00     0.164 HD
ENDROOT
BRANCH   5   7
ATOM      7  CA  TRP A   1       6.712  27.992  57.088  1.00  0.00     0.114 C 
BRANCH   7   8
ATOM      8  C   TRP A   1       5.179  28.052  56.994  1.00  0.00     0.189 C 
BRANCH   8   9
ATOM      9  O   TRP A   1       4.654  29.062  57.860  1.00  0.00    -0.399 OA
ATOM     10  H   TRP A   1       5.227  29.840  57.749  1.00  0.00     0.209 HD
ENDBRANCH   8   9
ENDBRANCH   7   8
BRANCH   7  11
ATOM     11  CB  TRP A   1       7.394  29.187  56.390  1.00  0.00     0.068 C 
BRANCH  11  12
ATOM     12  CG  TRP A   1       8.459  29.837  57.223  1.00  0.00    -0.028 A 
ATOM     13  CD2 TRP A   1       8.277  30.724  58.333  1.00  0.00    -0.002 A 
ATOM     14  CE2 TRP A   1       9.545  31.093  58.784  1.00  0.00     0.042 A 
ATOM     15  CE3 TRP A   1       7.150  31.251  58.996  1.00  0.00     0.014 A 
ATOM     16  CZ2 TRP A   1       9.744  31.963  59.862  1.00  0.00     0.030 A 
ATOM     17  NE1 TRP A   1      10.462  30.457  57.980  1.00  0.00    -0.365 N 
ATOM     18  CH2 TRP A   1       8.609  32.471  60.501  1.00  0.00     0.002 A 
ATOM     19  CZ3 TRP A   1       7.330  32.122  60.076  1.00  0.00     0.001 A 
ATOM     20  HE1 TRP A   1      11.464  30.548  58.070  1.00  0.00     0.165 HD
ATOM     21  CD1 TRP A   1       9.821  29.700  57.040  1.00  0.00     0.096 A 
ENDBRANCH  11  12
ENDBRANCH   7  11
ENDBRANCH   5   7
BRANCH   1  22
HETATM   22  C   UNK A   0       8.127  24.100  55.384  1.00  0.00     0.066 A 
HETATM   23  C   UNK A   0       7.854  24.825  54.217  1.00  0.00     0.038 A 
HETATM   24  C   UNK A   0       7.718  24.172  52.987  1.00  0.00    -0.059 A 
HETATM   25  C   UNK A   0       7.411  24.945  51.737  1.00  0.00     0.048 C 
HETATM   26  C   UNK A   0       7.808  22.778  52.945  1.00  0.00     0.020 A 
HETATM   27  C   UNK A   0       8.040  22.039  54.115  1.00  0.00    -0.005 A 
HETATM   28  C   UNK A   0       8.200  22.696  55.352  1.00  0.00     0.093 A 
HETATM   29  C   UNK A   0       8.111  20.639  54.090  1.00  0.00     0.015 A 
HETATM   30  N   UNK A   0       8.418  22.001  56.497  1.00  0.00    -0.258 NA
HETATM   31  C   UNK A   0       8.479  20.654  56.432  1.00  0.00     0.117 A 
HETATM   32  C   UNK A   0       8.333  19.934  55.265  1.00  0.00     0.020 A 
ENDBRANCH   1  22
TORSDOF 6
ENDMDL
MODEL 2
REMARK VINA RESULT:     -10.0      1.796      8.516
REMARK  6 active torsions:
REMARK  status: ('A' for Active; 'I' for Inactive)
REMARK    1  A    between atoms: C_4  and  N_5 
REMARK       I    between atoms: N_5  and  C_6 
REMARK       I    between atoms: C_6  and  N_16 
REMARK    2  A    between atoms: N_16  and  CA_17 
REMARK    3  A    between atoms: CA_17  and  C_18 
REMARK    4  A    between atoms: CA_17  and  CB_20 
REMARK    5  A    between atoms: C_18  and  O_19 
REMARK    6  A    between atoms: CB_20  and  CG_21 
ROOT
HETATM    1  N   UNK A   0       6.385  29.609  55.764  1.00  0.00    -0.307 N 
HETATM    2  C   UNK A   0       6.079  28.327  55.448  1.00  0.00     0.321 C 
HETATM    3  O   UNK A   0       5.434  28.092  54.427  1.00  0.00    -0.247 OA
HETATM    4  H   UNK A   0       6.179  30.254  55.003  1.00  0.00     0.170 HD
ATOM      5  N   TRP A   1       6.534  27.341  56.266  1.00  0.00    -0.336 N 
ATOM      6  H   TRP A   1       7.418  27.536  56.717  1.00  0.00     0.164 HD
ENDROOT
BRANCH   5   7
ATOM      7  CA  TRP A   1       6.328  25.925  55.935  1.00  0.00     0.114 C 
BRANCH   7   8
ATOM      8  C   TRP A   1       5.377  25.303  56.971  1.00  0.00     0.189 C 
BRANCH   8   9
ATOM      9  O   TRP A   1       4.256  26.158  57.211  1.00  0.00    -0.399 OA
ATOM     10  H   TRP A   1       3.505  25.573  57.411  1.00  0.00     0.209 HD
ENDBRANCH   8   9
ENDBRANCH   7   8
BRANCH   7  11
ATOM     11  CB  TRP A   1       7.680  25.186  55.856  1.00  0.00     0.068 C 
BRANCH  11  12
ATOM     12  CG  TRP A   1       7.804  24.293  54.658  1.00  0.00    -0.028 A 
ATOM     13  CD2 TRP A   1       7.915  22.864  54.643  1.00  0.00    -0.002 A 
ATOM     14  CE2 TRP A   1       8.025  22.469  53.309  1.00  0.00     0.042 A 
ATOM     15  CE3 TRP A   1       7.935  21.870  55.642  1.00  0.00     0.014 A 
ATOM     16  CZ2 TRP A   1       8.158  21.129  52.924  1.00  0.00     0.030 A 
ATOM     17  NE1 TRP A   1       7.985  23.610  52.543  1.00  0.00    -0.365 N 
ATOM     18  CH2 TRP A   1       8.175  20.164  53.934  1.00  0.00     0.002 A 
ATOM     19  CZ3 TRP A   1       8.065  20.526  55.274  1.00  0.00     0.001 A 
ATOM     20  HE1 TRP A   1       8.054  23.627  51.535  1.00  0.00     0.165 HD
ATOM     21  CD1 TRP A   1       7.850  24.711  53.342  1.00  0.00     0.096 A 
ENDBRANCH  11  12
ENDBRANCH   7  11
ENDBRANCH   5   7
BRANCH   1  22
HETATM   22  C   UNK A   0       6.906  30.258  56.907  1.00  0.00     0.066 A 
HETATM   23  C   UNK A   0       6.129  30.983  57.820  1.00  0.00     0.038 A 
HETATM   24  C   UNK A   0       6.719  31.590  58.935  1.00  0.00    -0.059 A 
HETATM   25  C   UNK A   0       5.891  32.380  59.906  1.00  0.00     0.048 C 
HETATM   26  C   UNK A   0       8.104  31.506  59.100  1.00  0.00     0.020 A 
HETATM   27  C   UNK A   0       8.896  30.817  58.169  1.00  0.00    -0.005 A 
HETATM   28  C   UNK A   0       8.302  30.185  57.057  1.00  0.00     0.093 A 
HETATM   29  C   UNK A   0      10.289  30.743  58.311  1.00  0.00     0.015 A 
HETATM   30  N   UNK A   0       9.049  29.519  56.141  1.00  0.00    -0.258 NA
HETATM   31  C   UNK A   0      10.387  29.471  56.312  1.00  0.00     0.117 A 
HETATM   32  C   UNK A   0      11.049  30.061  57.369  1.00  0.00     0.020 A 
ENDBRANCH   1  22
TORSDOF 6
ENDMDL
MODEL 3
REMARK VINA RESULT:      -9.8      1.814      8.781
REMARK  6 active torsions:
REMARK  status: ('A' for Active; 'I' for Inactive)
REMARK    1  A    between atoms: C_4  and  N_5 
REMARK       I    between atoms: N_5  and  C_6 
REMARK       I    between atoms: C_6  and  N_16 
REMARK    2  A    between atoms: N_16  and  CA_17 
REMARK    3  A    between atoms: CA_17  and  C_18 
REMARK    4  A    between atoms: CA_17  and  CB_20 
REMARK    5  A    between atoms: C_18  and  O_19 
REMARK    6  A    between atoms: CB_20  and  CG_21 
ROOT
HETATM    1  N   UNK A   0       6.987  29.331  55.844  1.00  0.00    -0.307 N 
HETATM    2  C   UNK A   0       6.424  28.109  55.684  1.00  0.00     0.321 C 
HETATM    3  O   UNK A   0       5.445  27.984  54.949  1.00  0.00    -0.247 OA
HETATM    4  H   UNK A   0       6.623  30.014  55.182  1.00  0.00     0.170 HD
ATOM      5  N   TRP A   1       6.995  27.053  56.322  1.00  0.00    -0.336 N 
ATOM      6  H   TRP A   1       7.997  27.118  56.441  1.00  0.00     0.164 HD
ENDROOT
BRANCH   5   7
ATOM      7  CA  TRP A   1       6.502  25.684  56.118  1.00  0.00     0.114 C 
BRANCH   7   8
ATOM      8  C   TRP A   1       5.450  25.366  57.192  1.00  0.00     0.189 C 
BRANCH   8   9
ATOM      9  O   TRP A   1       4.291  26.188  57.029  1.00  0.00    -0.399 OA
ATOM     10  H   TRP A   1       4.166  26.296  56.070  1.00  0.00     0.209 HD
ENDBRANCH   8   9
ENDBRANCH   7   8
BRANCH   7  11
ATOM     11  CB  TRP A   1       7.675  24.681  56.123  1.00  0.00     0.068 C 
BRANCH  11  12
ATOM     12  CG  TRP A   1       7.792  23.893  54.853  1.00  0.00    -0.028 A 
ATOM     13  CD2 TRP A   1       8.083  22.497  54.716  1.00  0.00    -0.002 A 
ATOM     14  CE2 TRP A   1       8.111  22.209  53.351  1.00  0.00     0.042 A 
ATOM     15  CE3 TRP A   1       8.330  21.451  55.629  1.00  0.00     0.014 A 
ATOM     16  CZ2 TRP A   1       8.375  20.927  52.852  1.00  0.00     0.030 A 
ATOM     17  NE1 TRP A   1       7.849  23.381  52.683  1.00  0.00    -0.365 N 
ATOM     18  CH2 TRP A   1       8.616  19.909  53.778  1.00  0.00     0.002 A 
ATOM     19  CZ3 TRP A   1       8.594  20.164  55.147  1.00  0.00     0.001 A 
ATOM     20  HE1 TRP A   1       7.815  23.474  51.677  1.00  0.00     0.165 HD
ATOM     21  CD1 TRP A   1       7.654  24.399  53.575  1.00  0.00     0.096 A 
ENDBRANCH  11  12
ENDBRANCH   7  11
ENDBRANCH   5   7
BRANCH   1  22
HETATM   22  C   UNK A   0       7.948  29.880  56.725  1.00  0.00     0.066 A 
HETATM   23  C   UNK A   0       9.323  29.630  56.641  1.00  0.00     0.038 A 
HETATM   24  C   UNK A   0      10.212  30.221  57.547  1.00  0.00    -0.059 A 
HETATM   25  C   UNK A   0      11.685  29.943  57.469  1.00  0.00     0.048 C 
HETATM   26  C   UNK A   0       9.703  31.025  58.570  1.00  0.00     0.020 A 
HETATM   27  C   UNK A   0       8.323  31.248  58.687  1.00  0.00    -0.005 A 
HETATM   28  C   UNK A   0       7.427  30.673  57.763  1.00  0.00     0.093 A 
HETATM   29  C   UNK A   0       7.798  32.036  59.722  1.00  0.00     0.015 A 
HETATM   30  N   UNK A   0       6.089  30.870  57.861  1.00  0.00    -0.258 NA
HETATM   31  C   UNK A   0       5.621  31.634  58.871  1.00  0.00     0.117 A 
HETATM   32  C   UNK A   0       6.427  32.232  59.818  1.00  0.00     0.020 A 
ENDBRANCH   1  22
TORSDOF 6
ENDMDL
MODEL 4
REMARK VINA RESULT:      -9.8      1.828      3.464
REMARK  6 active torsions:
REMARK  status: ('A' for Active; 'I' for Inactive)
REMARK    1  A    between atoms: C_4  and  N_5 
REMARK       I    between atoms: N_5  and  C_6 
REMARK       I    between atoms: C_6  and  N_16 
REMARK    2  A    between atoms: N_16  and  CA_17 
REMARK    3  A    between atoms: CA_17  and  C_18 
REMARK    4  A    between atoms: CA_17  and  CB_20 
REMARK    5  A    between atoms: C_18  and  O_19 
REMARK    6  A    between atoms: CB_20  and  CG_21 
ROOT
HETATM    1  N   UNK A   0       6.244  25.482  56.657  1.00  0.00    -0.307 N 
HETATM    2  C   UNK A   0       6.420  26.822  56.761  1.00  0.00     0.321 C 
HETATM    3  O   UNK A   0       5.530  27.514  57.255  1.00  0.00    -0.247 OA
HETATM    4  H   UNK A   0       5.425  25.160  57.171  1.00  0.00     0.170 HD
ATOM      5  N   TRP A   1       7.603  27.344  56.342  1.00  0.00    -0.336 N 
ATOM      6  H   TRP A   1       8.402  26.736  56.455  1.00  0.00     0.164 HD
ENDROOT
BRANCH   5   7
ATOM      7  CA  TRP A   1       7.906  28.772  56.515  1.00  0.00     0.114 C 
BRANCH   7   8
ATOM      8  C   TRP A   1       8.867  29.217  55.401  1.00  0.00     0.189 C 
BRANCH   8   9
ATOM      9  O   TRP A   1       8.447  28.707  54.132  1.00  0.00    -0.399 OA
ATOM     10  H   TRP A   1       7.563  29.078  53.969  1.00  0.00     0.209 HD
ENDBRANCH   8   9
ENDBRANCH   7   8
BRANCH   7  11
ATOM     11  CB  TRP A   1       8.473  29.037  57.926  1.00  0.00     0.068 C 
BRANCH  11  12
ATOM     12  CG  TRP A   1       7.762  30.136  58.658  1.00  0.00    -0.028 A 
ATOM     13  CD2 TRP A   1       8.152  30.759  59.887  1.00  0.00    -0.002 A 
ATOM     14  CE2 TRP A   1       7.182  31.712  60.198  1.00  0.00     0.042 A 
ATOM     15  CE3 TRP A   1       9.241  30.598  60.768  1.00  0.00     0.014 A 
ATOM     16  CZ2 TRP A   1       7.243  32.511  61.346  1.00  0.00     0.030 A 
ATOM     17  NE1 TRP A   1       6.238  31.670  59.199  1.00  0.00    -0.365 N 
ATOM     18  CH2 TRP A   1       8.333  32.331  62.202  1.00  0.00     0.002 A 
ATOM     19  CZ3 TRP A   1       9.319  31.390  61.920  1.00  0.00     0.001 A 
ATOM     20  HE1 TRP A   1       5.409  32.248  59.168  1.00  0.00     0.165 HD
ATOM     21  CD1 TRP A   1       6.577  30.729  58.268  1.00  0.00     0.096 A 
ENDBRANCH  11  12
ENDBRANCH   7  11
ENDBRANCH   5   7
BRANCH   1  22
HETATM   22  C   UNK A   0       6.919  24.435  55.990  1.00  0.00     0.066 A 
HETATM   23  C   UNK A   0       7.424  23.295  56.627  1.00  0.00     0.038 A 
HETATM   24  C   UNK A   0       8.074  22.296  55.893  1.00  0.00    -0.059 A 
HETATM   25  C   UNK A   0       8.629  21.080  56.575  1.00  0.00     0.048 C 
HETATM   26  C   UNK A   0       8.257  22.473  54.519  1.00  0.00     0.020 A 
HETATM   27  C   UNK A   0       7.791  23.631  53.878  1.00  0.00    -0.005 A 
HETATM   28  C   UNK A   0       7.116  24.630  54.611  1.00  0.00     0.093 A 
HETATM   29  C   UNK A   0       7.987  23.832  52.504  1.00  0.00     0.015 A 
HETATM   30  N   UNK A   0       6.664  25.760  54.013  1.00  0.00    -0.258 NA
HETATM   31  C   UNK A   0       6.873  25.917  52.689  1.00  0.00     0.117 A 
HETATM   32  C   UNK A   0       7.523  24.992  51.898  1.00  0.00     0.020 A 
ENDBRANCH   1  22
TORSDOF 6
ENDMDL
MODEL 5
REMARK VINA RESULT:      -9.6      8.585     10.867
REMARK  6 active torsions:
REMARK  status: ('A' for Active; 'I' for Inactive)
REMARK    1  A    between atoms: C_4  and  N_5 
REMARK       I    between atoms: N_5  and  C_6 
REMARK       I    between atoms: C_6  and  N_16 
REMARK    2  A    between atoms: N_16  and  CA_17 
REMARK    3  A    between atoms: CA_17  and  C_18 
REMARK    4  A    between atoms: CA_17  and  CB_20 
REMARK    5  A    between atoms: C_18  and  O_19 
REMARK    6  A    between atoms: CB_20  and  CG_21 
ROOT
HETATM    1  N   UNK A   0       4.628  31.852  61.569  1.00  0.00    -0.307 N 
HETATM    2  C   UNK A   0       3.904  32.389  60.557  1.00  0.00     0.321 C 
HETATM    3  O   UNK A   0       2.916  31.789  60.135  1.00  0.00    -0.247 OA
HETATM    4  H   UNK A   0       4.161  31.055  61.999  1.00  0.00     0.170 HD
ATOM      5  N   TRP A   1       4.286  33.599  60.071  1.00  0.00    -0.336 N 
ATOM      6  H   TRP A   1       4.711  34.217  60.749  1.00  0.00     0.164 HD
ENDROOT
BRANCH   5   7
ATOM      7  CA  TRP A   1       3.493  34.290  59.044  1.00  0.00     0.114 C 
BRANCH   7   8
ATOM      8  C   TRP A   1       4.282  34.297  57.725  1.00  0.00     0.189 C 
BRANCH   8   9
ATOM      9  O   TRP A   1       5.487  33.537  57.847  1.00  0.00    -0.399 OA
ATOM     10  H   TRP A   1       5.965  33.648  57.007  1.00  0.00     0.209 HD
ENDBRANCH   8   9
ENDBRANCH   7   8
BRANCH   7  11
ATOM     11  CB  TRP A   1       3.116  35.709  59.517  1.00  0.00     0.068 C 
BRANCH  11  12
ATOM     12  CG  TRP A   1       3.219  35.892  61.001  1.00  0.00    -0.028 A 
ATOM     13  CD2 TRP A   1       4.211  36.633  61.722  1.00  0.00    -0.002 A 
ATOM     14  CE2 TRP A   1       3.918  36.508  63.081  1.00  0.00     0.042 A 
ATOM     15  CE3 TRP A   1       5.334  37.397  61.344  1.00  0.00     0.014 A 
ATOM     16  CZ2 TRP A   1       4.694  37.107  64.082  1.00  0.00     0.030 A 
ATOM     17  NE1 TRP A   1       2.795  35.722  63.184  1.00  0.00    -0.365 N 
ATOM     18  CH2 TRP A   1       5.801  37.858  63.680  1.00  0.00     0.002 A 
ATOM     19  CZ3 TRP A   1       6.119  38.003  62.332  1.00  0.00     0.001 A 
ATOM     20  HE1 TRP A   1       2.359  35.455  64.056  1.00  0.00     0.165 HD
ATOM     21  CD1 TRP A   1       2.365  35.348  61.941  1.00  0.00     0.096 A 
ENDBRANCH  11  12
ENDBRANCH   7  11
ENDBRANCH   5   7
BRANCH   1  22
HETATM   22  C   UNK A   0       5.886  32.130  62.154  1.00  0.00     0.066 A 
HETATM   23  C   UNK A   0       7.114  31.790  61.572  1.00  0.00     0.038 A 
HETATM   24  C   UNK A   0       8.318  32.109  62.211  1.00  0.00    -0.059 A 
HETATM   25  C   UNK A   0       9.635  31.733  61.597  1.00  0.00     0.048 C 
HETATM   26  C   UNK A   0       8.279  32.728  63.463  1.00  0.00     0.020 A 
HETATM   27  C   UNK A   0       7.053  33.036  64.073  1.00  0.00    -0.005 A 
HETATM   28  C   UNK A   0       5.839  32.736  63.422  1.00  0.00     0.093 A 
HETATM   29  C   UNK A   0       7.000  33.637  65.338  1.00  0.00     0.015 A 
HETATM   30  N   UNK A   0       4.642  33.018  63.996  1.00  0.00    -0.258 NA
HETATM   31  C   UNK A   0       4.632  33.597  65.215  1.00  0.00     0.117 A 
HETATM   32  C   UNK A   0       5.772  33.923  65.921  1.00  0.00     0.020 A 
ENDBRANCH   1  22
TORSDOF 6
ENDMDL
MODEL 6
REMARK VINA RESULT:      -9.5      4.555      8.439
REMARK  6 active torsions:
REMARK  status: ('A' for Active; 'I' for Inactive)
REMARK    1  A    between atoms: C_4  and  N_5 
REMARK       I    between atoms: N_5  and  C_6 
REMARK       I    between atoms: C_6  and  N_16 
REMARK    2  A    between atoms: N_16  and  CA_17 
REMARK    3  A    between atoms: CA_17  and  C_18 
REMARK    4  A    between atoms: CA_17  and  CB_20 
REMARK    5  A    between atoms: C_18  and  O_19 
REMARK    6  A    between atoms: CB_20  and  CG_21 
ROOT
HETATM    1  N   UNK A   0       4.837  26.058  50.806  1.00  0.00    -0.307 N 
HETATM    2  C   UNK A   0       4.999  25.703  52.103  1.00  0.00     0.321 C 
HETATM    3  O   UNK A   0       4.864  24.524  52.430  1.00  0.00    -0.247 OA
HETATM    4  H   UNK A   0       4.779  25.250  50.188  1.00  0.00     0.170 HD
ATOM      5  N   TRP A   1       5.343  26.672  52.993  1.00  0.00    -0.336 N 
ATOM      6  H   TRP A   1       5.915  27.415  52.614  1.00  0.00     0.164 HD
ENDROOT
BRANCH   5   7
ATOM      7  CA  TRP A   1       5.633  26.346  54.396  1.00  0.00     0.114 C 
BRANCH   7   8
ATOM      8  C   TRP A   1       5.126  27.490  55.289  1.00  0.00     0.189 C 
BRANCH   8   9
ATOM      9  O   TRP A   1       4.440  26.976  56.434  1.00  0.00    -0.399 OA
ATOM     10  H   TRP A   1       4.298  26.028  56.263  1.00  0.00     0.209 HD
ENDBRANCH   8   9
ENDBRANCH   7   8
BRANCH   7  11
ATOM     11  CB  TRP A   1       7.139  26.070  54.586  1.00  0.00     0.068 C 
BRANCH  11  12
ATOM     12  CG  TRP A   1       7.424  24.788  55.310  1.00  0.00    -0.028 A 
ATOM     13  CD2 TRP A   1       7.633  23.491  54.738  1.00  0.00    -0.002 A 
ATOM     14  CE2 TRP A   1       7.844  22.600  55.791  1.00  0.00     0.042 A 
ATOM     15  CE3 TRP A   1       7.658  22.991  53.420  1.00  0.00     0.014 A 
ATOM     16  CZ2 TRP A   1       8.078  21.234  55.593  1.00  0.00     0.030 A 
ATOM     17  NE1 TRP A   1       7.766  23.324  56.957  1.00  0.00    -0.365 N 
ATOM     18  CH2 TRP A   1       8.098  20.764  54.277  1.00  0.00     0.002 A 
ATOM     19  CZ3 TRP A   1       7.891  21.628  53.204  1.00  0.00     0.001 A 
ATOM     20  HE1 TRP A   1       7.870  22.934  57.883  1.00  0.00     0.165 HD
ATOM     21  CD1 TRP A   1       7.516  24.639  56.680  1.00  0.00     0.096 A 
ENDBRANCH  11  12
ENDBRANCH   7  11
ENDBRANCH   5   7
BRANCH   1  22
HETATM   22  C   UNK A   0       4.712  27.286  50.115  1.00  0.00     0.066 A 
HETATM   23  C   UNK A   0       5.366  28.467  50.489  1.00  0.00     0.038 A 
HETATM   24  C   UNK A   0       5.198  29.641  49.745  1.00  0.00    -0.059 A 
HETATM   25  C   UNK A   0       5.885  30.912  50.152  1.00  0.00     0.048 C 
HETATM   26  C   UNK A   0       4.329  29.633  48.651  1.00  0.00     0.020 A 
HETATM   27  C   UNK A   0       3.638  28.466  48.293  1.00  0.00    -0.005 A 
HETATM   28  C   UNK A   0       3.822  27.275  49.026  1.00  0.00     0.093 A 
HETATM   29  C   UNK A   0       2.747  28.450  47.210  1.00  0.00     0.015 A 
HETATM   30  N   UNK A   0       3.159  26.137  48.702  1.00  0.00    -0.258 NA
HETATM   31  C   UNK A   0       2.309  26.162  47.654  1.00  0.00     0.117 A 
HETATM   32  C   UNK A   0       2.070  27.282  46.884  1.00  0.00     0.020 A 
ENDBRANCH   1  22
TORSDOF 6
ENDMDL
MODEL 7
REMARK VINA RESULT:      -9.4      2.014      8.918
REMARK  6 active torsions:
REMARK  status: ('A' for Active; 'I' for Inactive)
REMARK    1  A    between atoms: C_4  and  N_5 
REMARK       I    between atoms: N_5  and  C_6 
REMARK       I    between atoms: C_6  and  N_16 
REMARK    2  A    between atoms: N_16  and  CA_17 
REMARK    3  A    between atoms: CA_17  and  C_18 
REMARK    4  A    between atoms: CA_17  and  CB_20 
REMARK    5  A    between atoms: C_18  and  O_19 
REMARK    6  A    between atoms: CB_20  and  CG_21 
ROOT
HETATM    1  N   UNK A   0       8.767  30.268  58.177  1.00  0.00    -0.307 N 
HETATM    2  C   UNK A   0       8.860  29.286  57.248  1.00  0.00     0.321 C 
HETATM    3  O   UNK A   0       9.957  29.014  56.761  1.00  0.00    -0.247 OA
HETATM    4  H   UNK A   0       9.681  30.577  58.505  1.00  0.00     0.170 HD
ATOM      5  N   TRP A   1       7.727  28.612  56.916  1.00  0.00    -0.336 N 
ATOM      6  H   TRP A   1       7.054  28.515  57.664  1.00  0.00     0.164 HD
ENDROOT
BRANCH   5   7
ATOM      7  CA  TRP A   1       7.766  27.470  55.992  1.00  0.00     0.114 C 
BRANCH   7   8
ATOM      8  C   TRP A   1       7.308  27.936  54.601  1.00  0.00     0.189 C 
BRANCH   8   9
ATOM      9  O   TRP A   1       8.362  28.621  53.920  1.00  0.00    -0.399 OA
ATOM     10  H   TRP A   1       8.552  28.101  53.120  1.00  0.00     0.209 HD
ENDBRANCH   8   9
ENDBRANCH   7   8
BRANCH   7  11
ATOM     11  CB  TRP A   1       6.913  26.305  56.537  1.00  0.00     0.068 C 
BRANCH  11  12
ATOM     12  CG  TRP A   1       7.547  24.960  56.345  1.00  0.00    -0.028 A 
ATOM     13  CD2 TRP A   1       7.590  24.179  55.144  1.00  0.00    -0.002 A 
ATOM     14  CE2 TRP A   1       8.265  22.995  55.441  1.00  0.00     0.042 A 
ATOM     15  CE3 TRP A   1       7.113  24.370  53.831  1.00  0.00     0.014 A 
ATOM     16  CZ2 TRP A   1       8.485  21.989  54.492  1.00  0.00     0.030 A 
ATOM     17  NE1 TRP A   1       8.617  23.050  56.768  1.00  0.00    -0.365 N 
ATOM     18  CH2 TRP A   1       8.002  22.203  53.198  1.00  0.00     0.002 A 
ATOM     19  CZ3 TRP A   1       7.326  23.375  52.869  1.00  0.00     0.001 A 
ATOM     20  HE1 TRP A   1       9.111  22.320  57.262  1.00  0.00     0.165 HD
ATOM     21  CD1 TRP A   1       8.194  24.227  57.321  1.00  0.00     0.096 A 
ENDBRANCH  11  12
ENDBRANCH   7  11
ENDBRANCH   5   7
BRANCH   1  22
HETATM   22  C   UNK A   0       7.701  30.973  58.782  1.00  0.00     0.066 A 
HETATM   23  C   UNK A   0       6.543  31.377  58.105  1.00  0.00     0.038 A 
HETATM   24  C   UNK A   0       5.526  32.064  58.778  1.00  0.00    -0.059 A 
HETATM   25  C   UNK A   0       4.291  32.510  58.052  1.00  0.00     0.048 C 
HETATM   26  C   UNK A   0       5.702  32.387  60.126  1.00  0.00     0.020 A 
HETATM   27  C   UNK A   0       6.877  32.023  60.803  1.00  0.00    -0.005 A 
HETATM   28  C   UNK A   0       7.894  31.311  60.133  1.00  0.00     0.093 A 
HETATM   29  C   UNK A   0       7.076  32.360  62.149  1.00  0.00     0.015 A 
HETATM   30  N   UNK A   0       9.039  30.956  60.766  1.00  0.00    -0.258 NA
HETATM   31  C   UNK A   0       9.194  31.299  62.062  1.00  0.00     0.117 A 
HETATM   32  C   UNK A   0       8.252  31.995  62.791  1.00  0.00     0.020 A 
ENDBRANCH   1  22
TORSDOF 6
ENDMDL
MODEL 8
REMARK VINA RESULT:      -9.2      7.179     10.413
REMARK  6 active torsions:
REMARK  status: ('A' for Active; 'I' for Inactive)
REMARK    1  A    between atoms: C_4  and  N_5 
REMARK       I    between atoms: N_5  and  C_6 
REMARK       I    between atoms: C_6  and  N_16 
REMARK    2  A    between atoms: N_16  and  CA_17 
REMARK    3  A    between atoms: CA_17  and  C_18 
REMARK    4  A    between atoms: CA_17  and  CB_20 
REMARK    5  A    between atoms: C_18  and  O_19 
REMARK    6  A    between atoms: CB_20  and  CG_21 
ROOT
HETATM    1  N   UNK A   0       4.812  32.000  60.849  1.00  0.00    -0.307 N 
HETATM    2  C   UNK A   0       3.981  32.788  60.124  1.00  0.00     0.321 C 
HETATM    3  O   UNK A   0       3.157  32.270  59.371  1.00  0.00    -0.247 OA
HETATM    4  H   UNK A   0       4.541  31.018  60.813  1.00  0.00     0.170 HD
ATOM      5  N   TRP A   1       4.073  34.134  60.289  1.00  0.00    -0.336 N 
ATOM      6  H   TRP A   1       4.345  34.433  61.216  1.00  0.00     0.164 HD
ENDROOT
BRANCH   5   7
ATOM      7  CA  TRP A   1       3.141  35.048  59.614  1.00  0.00     0.114 C 
BRANCH   7   8
ATOM      8  C   TRP A   1       3.926  35.921  58.623  1.00  0.00     0.189 C 
BRANCH   8   9
ATOM      9  O   TRP A   1       4.222  37.199  59.193  1.00  0.00    -0.399 OA
ATOM     10  H   TRP A   1       3.805  37.207  60.072  1.00  0.00     0.209 HD
ENDBRANCH   8   9
ENDBRANCH   7   8
BRANCH   7  11
ATOM     11  CB  TRP A   1       2.359  35.884  60.649  1.00  0.00     0.068 C 
BRANCH  11  12
ATOM     12  CG  TRP A   1       2.458  35.349  62.047  1.00  0.00    -0.028 A 
ATOM     13  CD2 TRP A   1       3.332  35.796  63.091  1.00  0.00    -0.002 A 
ATOM     14  CE2 TRP A   1       3.088  34.996  64.208  1.00  0.00     0.042 A 
ATOM     15  CE3 TRP A   1       4.312  36.805  63.188  1.00  0.00     0.014 A 
ATOM     16  CZ2 TRP A   1       3.776  35.153  65.418  1.00  0.00     0.030 A 
ATOM     17  NE1 TRP A   1       2.107  34.099  63.859  1.00  0.00    -0.365 N 
ATOM     18  CH2 TRP A   1       4.742  36.161  65.488  1.00  0.00     0.002 A 
ATOM     19  CZ3 TRP A   1       5.007  36.977  64.391  1.00  0.00     0.001 A 
ATOM     20  HE1 TRP A   1       1.736  33.387  64.472  1.00  0.00     0.165 HD
ATOM     21  CD1 TRP A   1       1.720  34.303  62.564  1.00  0.00     0.096 A 
ENDBRANCH  11  12
ENDBRANCH   7  11
ENDBRANCH   5   7
BRANCH   1  22
HETATM   22  C   UNK A   0       5.972  32.220  61.626  1.00  0.00     0.066 A 
HETATM   23  C   UNK A   0       5.955  32.682  62.948  1.00  0.00     0.038 A 
HETATM   24  C   UNK A   0       7.149  32.866  63.655  1.00  0.00    -0.059 A 
HETATM   25  C   UNK A   0       7.135  33.375  65.067  1.00  0.00     0.048 C 
HETATM   26  C   UNK A   0       8.365  32.630  63.007  1.00  0.00     0.020 A 
HETATM   27  C   UNK A   0       8.394  32.206  61.670  1.00  0.00    -0.005 A 
HETATM   28  C   UNK A   0       7.192  31.998  60.962  1.00  0.00     0.093 A 
HETATM   29  C   UNK A   0       9.607  31.987  61.002  1.00  0.00     0.015 A 
HETATM   30  N   UNK A   0       7.196  31.596  59.667  1.00  0.00    -0.258 NA
HETATM   31  C   UNK A   0       8.384  31.396  59.058  1.00  0.00     0.117 A 
HETATM   32  C   UNK A   0       9.605  31.576  59.675  1.00  0.00     0.020 A 
ENDBRANCH   1  22
TORSDOF 6
ENDMDL
MODEL 9
REMARK VINA RESULT:      -9.2      4.120      8.570
REMARK  6 active torsions:
REMARK  status: ('A' for Active; 'I' for Inactive)
REMARK    1  A    between atoms: C_4  and  N_5 
REMARK       I    between atoms: N_5  and  C_6 
REMARK       I    between atoms: C_6  and  N_16 
REMARK    2  A    between atoms: N_16  and  CA_17 
REMARK    3  A    between atoms: CA_17  and  C_18 
REMARK    4  A    between atoms: CA_17  and  CB_20 
REMARK    5  A    between atoms: C_18  and  O_19 
REMARK    6  A    between atoms: CB_20  and  CG_21 
ROOT
HETATM    1  N   UNK A   0       4.285  26.720  52.116  1.00  0.00    -0.307 N 
HETATM    2  C   UNK A   0       4.703  25.900  53.111  1.00  0.00     0.321 C 
HETATM    3  O   UNK A   0       4.451  24.697  53.051  1.00  0.00    -0.247 OA
HETATM    4  H   UNK A   0       3.934  26.203  51.311  1.00  0.00     0.170 HD
ATOM      5  N   TRP A   1       5.422  26.446  54.127  1.00  0.00    -0.336 N 
ATOM      6  H   TRP A   1       6.001  27.232  53.866  1.00  0.00     0.164 HD
ENDROOT
BRANCH   5   7
ATOM      7  CA  TRP A   1       5.994  25.606  55.188  1.00  0.00     0.114 C 
BRANCH   7   8
ATOM      8  C   TRP A   1       5.804  26.310  56.541  1.00  0.00     0.189 C 
BRANCH   8   9
ATOM      9  O   TRP A   1       4.416  26.519  56.816  1.00  0.00    -0.399 OA
ATOM     10  H   TRP A   1       4.201  27.404  56.472  1.00  0.00     0.209 HD
ENDBRANCH   8   9
ENDBRANCH   7   8
BRANCH   7  11
ATOM     11  CB  TRP A   1       7.475  25.290  54.889  1.00  0.00     0.068 C 
BRANCH  11  12
ATOM     12  CG  TRP A   1       7.691  23.917  54.327  1.00  0.00    -0.028 A 
ATOM     13  CD2 TRP A   1       7.974  22.713  55.051  1.00  0.00    -0.002 A 
ATOM     14  CE2 TRP A   1       8.116  21.688  54.115  1.00  0.00     0.042 A 
ATOM     15  CE3 TRP A   1       8.126  22.401  56.417  1.00  0.00     0.014 A 
ATOM     16  CZ2 TRP A   1       8.405  20.366  54.476  1.00  0.00     0.030 A 
ATOM     17  NE1 TRP A   1       7.929  22.244  52.872  1.00  0.00    -0.365 N 
ATOM     18  CH2 TRP A   1       8.551  20.084  55.837  1.00  0.00     0.002 A 
ATOM     19  CZ3 TRP A   1       8.414  21.085  56.796  1.00  0.00     0.001 A 
ATOM     20  HE1 TRP A   1       7.984  21.735  52.001  1.00  0.00     0.165 HD
ATOM     21  CD1 TRP A   1       7.671  23.582  52.987  1.00  0.00     0.096 A 
ENDBRANCH  11  12
ENDBRANCH   7  11
ENDBRANCH   5   7
BRANCH   1  22
HETATM   22  C   UNK A   0       4.206  28.122  51.943  1.00  0.00     0.066 A 
HETATM   23  C   UNK A   0       3.827  29.016  52.952  1.00  0.00     0.038 A 
HETATM   24  C   UNK A   0       3.784  30.394  52.703  1.00  0.00    -0.059 A 
HETATM   25  C   UNK A   0       3.364  31.354  53.778  1.00  0.00     0.048 C 
HETATM   26  C   UNK A   0       4.076  30.862  51.420  1.00  0.00     0.020 A 
HETATM   27  C   UNK A   0       4.416  29.969  50.392  1.00  0.00    -0.005 A 
HETATM   28  C   UNK A   0       4.483  28.584  50.644  1.00  0.00     0.093 A 
HETATM   29  C   UNK A   0       4.690  30.424  49.094  1.00  0.00     0.015 A 
HETATM   30  N   UNK A   0       4.804  27.703  49.664  1.00  0.00    -0.258 NA
HETATM   31  C   UNK A   0       5.060  28.179  48.427  1.00  0.00     0.117 A 
HETATM   32  C   UNK A   0       5.017  29.517  48.094  1.00  0.00     0.020 A 
ENDBRANCH   1  22
TORSDOF 6
ENDMDL
MODEL 10
REMARK VINA RESULT:      -9.1      1.952      2.699
REMARK  6 active torsions:
REMARK  status: ('A' for Active; 'I' for Inactive)
REMARK    1  A    between atoms: C_4  and  N_5 
REMARK       I    between atoms: N_5  and  C_6 
REMARK       I    between atoms: C_6  and  N_16 
REMARK    2  A    between atoms: N_16  and  CA_17 
REMARK    3  A    between atoms: CA_17  and  C_18 
REMARK    4  A    between atoms: CA_17  and  CB_20 
REMARK    5  A    between atoms: C_18  and  O_19 
REMARK    6  A    between atoms: CB_20  and  CG_21 
ROOT
HETATM    1  N   UNK A   0       7.583  25.706  56.391  1.00  0.00    -0.307 N 
HETATM    2  C   UNK A   0       7.928  26.923  56.877  1.00  0.00     0.321 C 
HETATM    3  O   UNK A   0       8.041  27.081  58.092  1.00  0.00    -0.247 OA
HETATM    4  H   UNK A   0       7.615  24.981  57.107  1.00  0.00     0.170 HD
ATOM      5  N   TRP A   1       8.171  27.921  55.986  1.00  0.00    -0.336 N 
ATOM      6  H   TRP A   1       8.560  27.619  55.103  1.00  0.00     0.164 HD
ENDROOT
BRANCH   5   7
ATOM      7  CA  TRP A   1       8.647  29.238  56.432  1.00  0.00     0.114 C 
BRANCH   7   8
ATOM      8  C   TRP A   1       9.947  29.578  55.687  1.00  0.00     0.189 C 
BRANCH   8   9
ATOM      9  O   TRP A   1      10.646  30.640  56.341  1.00  0.00    -0.399 OA
ATOM     10  H   TRP A   1      10.566  30.471  57.295  1.00  0.00     0.209 HD
ENDBRANCH   8   9
ENDBRANCH   7   8
BRANCH   7  11
ATOM     11  CB  TRP A   1       8.820  29.260  57.965  1.00  0.00     0.068 C 
BRANCH  11  12
ATOM     12  CG  TRP A   1       7.936  30.257  58.652  1.00  0.00    -0.028 A 
ATOM     13  CD2 TRP A   1       8.168  30.910  59.906  1.00  0.00    -0.002 A 
ATOM     14  CE2 TRP A   1       7.072  31.736  60.155  1.00  0.00     0.042 A 
ATOM     15  CE3 TRP A   1       9.209  30.871  60.856  1.00  0.00     0.014 A 
ATOM     16  CZ2 TRP A   1       6.962  32.525  61.307  1.00  0.00     0.030 A 
ATOM     17  NE1 TRP A   1       6.207  31.593  59.096  1.00  0.00    -0.365 N 
ATOM     18  CH2 TRP A   1       8.008  32.468  62.232  1.00  0.00     0.002 A 
ATOM     19  CZ3 TRP A   1       9.116  31.654  62.013  1.00  0.00     0.001 A 
ATOM     20  HE1 TRP A   1       5.319  32.068  59.012  1.00  0.00     0.165 HD
ATOM     21  CD1 TRP A   1       6.716  30.708  58.187  1.00  0.00     0.096 A 
ENDBRANCH  11  12
ENDBRANCH   7  11
ENDBRANCH   5   7
BRANCH   1  22
HETATM   22  C   UNK A   0       7.172  25.214  55.131  1.00  0.00     0.066 A 
HETATM   23  C   UNK A   0       6.185  25.813  54.338  1.00  0.00     0.038 A 
HETATM   24  C   UNK A   0       5.841  25.269  53.095  1.00  0.00    -0.059 A 
HETATM   25  C   UNK A   0       4.774  25.900  52.250  1.00  0.00     0.048 C 
HETATM   26  C   UNK A   0       6.461  24.089  52.676  1.00  0.00     0.020 A 
HETATM   27  C   UNK A   0       7.421  23.458  53.481  1.00  0.00    -0.005 A 
HETATM   28  C   UNK A   0       7.786  24.016  54.724  1.00  0.00     0.093 A 
HETATM   29  C   UNK A   0       8.035  22.262  53.083  1.00  0.00     0.015 A 
HETATM   30  N   UNK A   0       8.707  23.420  55.522  1.00  0.00    -0.258 NA
HETATM   31  C   UNK A   0       9.275  22.269  55.104  1.00  0.00     0.117 A 
HETATM   32  C   UNK A   0       8.976  21.656  53.904  1.00  0.00     0.020 A 
ENDBRANCH   1  22
TORSDOF 6
ENDMDL
