MODEL 1
REMARK VINA RESULT:     -11.1      0.000      0.000
REMARK  2 active torsions:
REMARK  status: ('A' for Active; 'I' for Inactive)
REMARK    1  A    between atoms: C_5  and  C_6 
REMARK    2  A    between atoms: N_12  and  C_13 
ROOT
HETATM    1  C   UNL     1       8.265  31.716  60.525  1.00  0.00     0.047 A 
HETATM    2  N   UNL     1       7.680  30.514  60.170  1.00  0.00    -0.344 N 
HETATM    3  C   UNL     1       8.073  29.827  59.054  1.00  0.00     0.119 A 
HETATM    4  C   UNL     1       9.107  30.251  58.307  1.00  0.00     0.123 A 
HETATM    5  C   UNL     1       9.316  29.247  57.252  1.00  0.00     0.280 A 
HETATM    6  O   UNL     1      10.184  29.298  56.400  1.00  0.00    -0.265 OA
HETATM    7  N   UNL     1       8.331  28.271  57.472  1.00  0.00    -0.236 N 
HETATM    8  N   UNL     1       7.533  28.648  58.574  1.00  0.00    -0.179 NA
HETATM    9  C   UNL     1       9.824  31.480  58.656  1.00  0.00     0.193 A 
HETATM   10  O   UNL     1      10.787  31.908  58.033  1.00  0.00    -0.287 OA
HETATM   11  C   UNL     1       9.310  32.224  59.844  1.00  0.00     0.086 A 
HETATM   12  H   UNL     1       6.771  30.296  60.565  1.00  0.00     0.167 HD
HETATM   13  H   UNL     1       7.524  27.940  59.308  1.00  0.00     0.155 HD
ENDROOT
BRANCH   1  14
HETATM   14  C   UNL     1       7.722  32.423  61.700  1.00  0.00    -0.009 A 
HETATM   15  C   UNL     1       6.586  33.235  61.595  1.00  0.00     0.014 A 
HETATM   16  C   UNL     1       6.077  33.897  62.717  1.00  0.00     0.007 A 
HETATM   17  C   UNL     1       6.699  33.763  63.963  1.00  0.00    -0.062 A 
HETATM   18  C   UNL     1       6.141  34.449  65.174  1.00  0.00     0.048 C 
HETATM   19  C   UNL     1       7.820  32.934  64.076  1.00  0.00     0.007 A 
HETATM   20  C   UNL     1       8.329  32.274  62.954  1.00  0.00     0.014 A 
ENDBRANCH   1  14
BRANCH   7  21
HETATM   21  C   UNL     1       8.048  27.094  56.745  1.00  0.00     0.055 A 
HETATM   22  C   UNL     1       8.293  25.825  57.293  1.00  0.00     0.034 A 
HETATM   23  C   UNL     1       7.998  24.662  56.573  1.00  0.00     0.044 A 
HETATM   24  C   UNL     1       7.460  24.761  55.298  1.00  0.00     0.116 A 
HETATM   25  F   UNL     1       7.177  23.648  54.608  1.00  0.00    -0.206 F 
HETATM   26  C   UNL     1       7.213  26.002  54.728  1.00  0.00     0.044 A 
HETATM   27  C   UNL     1       7.508  27.164  55.449  1.00  0.00     0.034 A 
ENDBRANCH   7  21
TORSDOF 2
ENDMDL
MODEL 2
REMARK VINA RESULT:     -10.2      3.354      9.156
REMARK  2 active torsions:
REMARK  status: ('A' for Active; 'I' for Inactive)
REMARK    1  A    between atoms: C_5  and  C_6 
REMARK    2  A    between atoms: N_12  and  C_13 
ROOT
HETATM    1  C   UNL     1       7.104  26.578  55.304  1.00  0.00     0.047 A 
HETATM    2  N   UNL     1       7.653  26.904  56.531  1.00  0.00    -0.344 N 
HETATM    3  C   UNL     1       7.489  28.145  57.084  1.00  0.00     0.119 A 
HETATM    4  C   UNL     1       6.711  29.068  56.494  1.00  0.00     0.123 A 
HETATM    5  C   UNL     1       6.683  30.238  57.386  1.00  0.00     0.280 A 
HETATM    6  O   UNL     1       6.059  31.263  57.176  1.00  0.00    -0.265 OA
HETATM    7  N   UNL     1       7.496  29.891  58.476  1.00  0.00    -0.236 N 
HETATM    8  N   UNL     1       8.028  28.599  58.273  1.00  0.00    -0.179 NA
HETATM    9  C   UNL     1       6.039  28.778  55.226  1.00  0.00     0.193 A 
HETATM   10  O   UNL     1       5.299  29.564  54.649  1.00  0.00    -0.287 OA
HETATM   11  C   UNL     1       6.306  27.433  54.636  1.00  0.00     0.086 A 
HETATM   12  H   UNL     1       8.415  26.328  56.876  1.00  0.00     0.167 HD
HETATM   13  H   UNL     1       7.795  27.959  59.033  1.00  0.00     0.155 HD
ENDROOT
BRANCH   1  14
HETATM   14  C   UNL     1       7.400  25.242  54.753  1.00  0.00    -0.009 A 
HETATM   15  C   UNL     1       7.392  24.104  55.570  1.00  0.00     0.014 A 
HETATM   16  C   UNL     1       7.671  22.842  55.035  1.00  0.00     0.007 A 
HETATM   17  C   UNL     1       7.967  22.697  53.676  1.00  0.00    -0.062 A 
HETATM   18  C   UNL     1       8.239  21.341  53.093  1.00  0.00     0.048 C 
HETATM   19  C   UNL     1       7.953  23.828  52.853  1.00  0.00     0.007 A 
HETATM   20  C   UNL     1       7.677  25.089  53.388  1.00  0.00     0.014 A 
ENDBRANCH   1  14
BRANCH   7  21
HETATM   21  C   UNL     1       7.847  30.645  59.617  1.00  0.00     0.055 A 
HETATM   22  C   UNL     1       6.971  31.599  60.157  1.00  0.00     0.034 A 
HETATM   23  C   UNL     1       7.319  32.334  61.296  1.00  0.00     0.044 A 
HETATM   24  C   UNL     1       8.550  32.122  61.899  1.00  0.00     0.116 A 
HETATM   25  F   UNL     1       8.885  32.825  62.989  1.00  0.00    -0.206 F 
HETATM   26  C   UNL     1       9.440  31.190  61.385  1.00  0.00     0.044 A 
HETATM   27  C   UNL     1       9.090  30.456  60.247  1.00  0.00     0.034 A 
ENDBRANCH   7  21
TORSDOF 2
ENDMDL
MODEL 3
REMARK VINA RESULT:     -10.2      3.126      8.565
REMARK  2 active torsions:
REMARK  status: ('A' for Active; 'I' for Inactive)
REMARK    1  A    between atoms: C_5  and  C_6 
REMARK    2  A    between atoms: N_12  and  C_13 
ROOT
HETATM    1  C   UNL     1       8.418  28.683  56.890  1.00  0.00     0.047 A 
HETATM    2  N   UNL     1       7.598  29.130  57.910  1.00  0.00    -0.344 N 
HETATM    3  C   UNL     1       8.015  30.081  58.802  1.00  0.00     0.119 A 
HETATM    4  C   UNL     1       9.209  30.681  58.667  1.00  0.00     0.123 A 
HETATM    5  C   UNL     1       9.301  31.699  59.725  1.00  0.00     0.280 A 
HETATM    6  O   UNL     1      10.246  32.450  59.894  1.00  0.00    -0.265 OA
HETATM    7  N   UNL     1       8.096  31.600  60.437  1.00  0.00    -0.236 N 
HETATM    8  N   UNL     1       7.307  30.567  59.885  1.00  0.00    -0.179 NA
HETATM    9  C   UNL     1      10.110  30.313  57.572  1.00  0.00     0.193 A 
HETATM   10  O   UNL     1      11.199  30.836  57.377  1.00  0.00    -0.287 OA
HETATM   11  C   UNL     1       9.631  29.224  56.668  1.00  0.00     0.086 A 
HETATM   12  H   UNL     1       6.810  28.547  58.173  1.00  0.00     0.167 HD
HETATM   13  H   UNL     1       6.389  30.897  59.587  1.00  0.00     0.155 HD
ENDROOT
BRANCH   1  14
HETATM   14  C   UNL     1       7.911  27.600  56.027  1.00  0.00    -0.009 A 
HETATM   15  C   UNL     1       7.603  26.339  56.552  1.00  0.00     0.014 A 
HETATM   16  C   UNL     1       7.119  25.322  55.724  1.00  0.00     0.007 A 
HETATM   17  C   UNL     1       6.939  25.545  54.356  1.00  0.00    -0.062 A 
HETATM   18  C   UNL     1       6.394  24.465  53.469  1.00  0.00     0.048 C 
HETATM   19  C   UNL     1       7.223  26.811  53.831  1.00  0.00     0.007 A 
HETATM   20  C   UNL     1       7.709  27.827  54.659  1.00  0.00     0.014 A 
ENDBRANCH   1  14
BRANCH   7  21
HETATM   21  C   UNL     1       7.655  32.317  61.571  1.00  0.00     0.055 A 
HETATM   22  C   UNL     1       6.548  33.177  61.501  1.00  0.00     0.034 A 
HETATM   23  C   UNL     1       6.107  33.876  62.631  1.00  0.00     0.044 A 
HETATM   24  C   UNL     1       6.774  33.721  63.837  1.00  0.00     0.116 A 
HETATM   25  F   UNL     1       6.354  34.389  64.919  1.00  0.00    -0.206 F 
HETATM   26  C   UNL     1       7.876  32.883  63.935  1.00  0.00     0.044 A 
HETATM   27  C   UNL     1       8.315  32.185  62.805  1.00  0.00     0.034 A 
ENDBRANCH   7  21
TORSDOF 2
ENDMDL
MODEL 4
REMARK VINA RESULT:      -9.7      3.163      5.172
REMARK  2 active torsions:
REMARK  status: ('A' for Active; 'I' for Inactive)
REMARK    1  A    between atoms: C_5  and  C_6 
REMARK    2  A    between atoms: N_12  and  C_13 
ROOT
HETATM    1  C   UNL     1       6.626  28.809  57.060  1.00  0.00     0.047 A 
HETATM    2  N   UNL     1       7.376  27.651  56.954  1.00  0.00    -0.344 N 
HETATM    3  C   UNL     1       6.999  26.624  56.132  1.00  0.00     0.119 A 
HETATM    4  C   UNL     1       5.929  26.739  55.327  1.00  0.00     0.123 A 
HETATM    5  C   UNL     1       5.861  25.507  54.525  1.00  0.00     0.280 A 
HETATM    6  O   UNL     1       5.022  25.272  53.674  1.00  0.00    -0.265 OA
HETATM    7  N   UNL     1       6.946  24.727  54.954  1.00  0.00    -0.236 N 
HETATM    8  N   UNL     1       7.637  25.407  55.981  1.00  0.00    -0.179 NA
HETATM    9  C   UNL     1       5.121  27.960  55.330  1.00  0.00     0.193 A 
HETATM   10  O   UNL     1       4.150  28.139  54.606  1.00  0.00    -0.287 OA
HETATM   11  C   UNL     1       5.540  29.021  56.294  1.00  0.00     0.086 A 
HETATM   12  H   UNL     1       8.035  27.445  57.699  1.00  0.00     0.167 HD
HETATM   13  H   UNL     1       8.622  25.551  55.757  1.00  0.00     0.155 HD
ENDROOT
BRANCH   1  14
HETATM   14  C   UNL     1       7.070  29.827  58.030  1.00  0.00    -0.009 A 
HETATM   15  C   UNL     1       6.323  30.992  58.250  1.00  0.00     0.014 A 
HETATM   16  C   UNL     1       6.752  31.948  59.176  1.00  0.00     0.007 A 
HETATM   17  C   UNL     1       7.938  31.761  59.893  1.00  0.00    -0.062 A 
HETATM   18  C   UNL     1       8.388  32.771  60.906  1.00  0.00     0.048 C 
HETATM   19  C   UNL     1       8.675  30.588  59.692  1.00  0.00     0.007 A 
HETATM   20  C   UNL     1       8.247  29.633  58.766  1.00  0.00     0.014 A 
ENDBRANCH   1  14
BRANCH   7  21
HETATM   21  C   UNL     1       7.349  23.438  54.545  1.00  0.00     0.055 A 
HETATM   22  C   UNL     1       7.637  23.158  53.200  1.00  0.00     0.034 A 
HETATM   23  C   UNL     1       8.049  21.881  52.803  1.00  0.00     0.044 A 
HETATM   24  C   UNL     1       8.171  20.874  53.748  1.00  0.00     0.116 A 
HETATM   25  F   UNL     1       8.564  19.651  53.370  1.00  0.00    -0.206 F 
HETATM   26  C   UNL     1       7.887  21.119  55.085  1.00  0.00     0.044 A 
HETATM   27  C   UNL     1       7.476  22.396  55.480  1.00  0.00     0.034 A 
ENDBRANCH   7  21
TORSDOF 2
ENDMDL
MODEL 5
REMARK VINA RESULT:      -9.7      8.311     10.665
REMARK  2 active torsions:
REMARK  status: ('A' for Active; 'I' for Inactive)
REMARK    1  A    between atoms: C_5  and  C_6 
REMARK    2  A    between atoms: N_12  and  C_13 
ROOT
HETATM    1  C   UNL     1       6.993  24.925  53.424  1.00  0.00     0.047 A 
HETATM    2  N   UNL     1       6.127  24.679  52.374  1.00  0.00    -0.344 N 
HETATM    3  C   UNL     1       5.526  25.698  51.685  1.00  0.00     0.119 A 
HETATM    4  C   UNL     1       5.824  26.981  51.948  1.00  0.00     0.123 A 
HETATM    5  C   UNL     1       5.080  27.802  50.980  1.00  0.00     0.280 A 
HETATM    6  O   UNL     1       5.124  29.017  50.913  1.00  0.00    -0.265 OA
HETATM    7  N   UNL     1       4.361  26.886  50.196  1.00  0.00    -0.236 N 
HETATM    8  N   UNL     1       4.611  25.575  50.656  1.00  0.00    -0.179 NA
HETATM    9  C   UNL     1       6.784  27.324  53.000  1.00  0.00     0.193 A 
HETATM   10  O   UNL     1       7.117  28.469  53.274  1.00  0.00    -0.287 OA
HETATM   11  C   UNL     1       7.358  26.176  53.763  1.00  0.00     0.086 A 
HETATM   12  H   UNL     1       5.713  23.754  52.309  1.00  0.00     0.167 HD
HETATM   13  H   UNL     1       4.983  24.970  49.924  1.00  0.00     0.155 HD
ENDROOT
BRANCH   1  14
HETATM   14  C   UNL     1       7.530  23.763  54.157  1.00  0.00    -0.009 A 
HETATM   15  C   UNL     1       7.855  23.850  55.517  1.00  0.00     0.014 A 
HETATM   16  C   UNL     1       8.360  22.740  56.201  1.00  0.00     0.007 A 
HETATM   17  C   UNL     1       8.555  21.525  55.537  1.00  0.00    -0.062 A 
HETATM   18  C   UNL     1       9.072  20.325  56.274  1.00  0.00     0.048 C 
HETATM   19  C   UNL     1       8.211  21.427  54.184  1.00  0.00     0.007 A 
HETATM   20  C   UNL     1       7.708  22.538  53.500  1.00  0.00     0.014 A 
ENDBRANCH   1  14
BRANCH   7  21
HETATM   21  C   UNL     1       3.461  27.118  49.133  1.00  0.00     0.055 A 
HETATM   22  C   UNL     1       3.432  26.279  48.009  1.00  0.00     0.034 A 
HETATM   23  C   UNL     1       2.529  26.506  46.964  1.00  0.00     0.044 A 
HETATM   24  C   UNL     1       1.651  27.577  47.036  1.00  0.00     0.116 A 
HETATM   25  F   UNL     1       0.786  27.795  46.037  1.00  0.00    -0.206 F 
HETATM   26  C   UNL     1       1.661  28.428  48.133  1.00  0.00     0.044 A 
HETATM   27  C   UNL     1       2.564  28.200  49.176  1.00  0.00     0.034 A 
ENDBRANCH   7  21
TORSDOF 2
ENDMDL
MODEL 6
REMARK VINA RESULT:      -9.4      8.061     10.812
REMARK  2 active torsions:
REMARK  status: ('A' for Active; 'I' for Inactive)
REMARK    1  A    between atoms: C_5  and  C_6 
REMARK    2  A    between atoms: N_12  and  C_13 
ROOT
HETATM    1  C   UNL     1       6.599  25.033  53.388  1.00  0.00     0.047 A 
HETATM    2  N   UNL     1       5.967  25.093  52.159  1.00  0.00    -0.344 N 
HETATM    3  C   UNL     1       5.385  26.246  51.706  1.00  0.00     0.119 A 
HETATM    4  C   UNL     1       5.484  27.391  52.403  1.00  0.00     0.123 A 
HETATM    5  C   UNL     1       4.834  28.439  51.600  1.00  0.00     0.280 A 
HETATM    6  O   UNL     1       4.750  29.612  51.917  1.00  0.00    -0.265 OA
HETATM    7  N   UNL     1       4.376  27.788  50.444  1.00  0.00    -0.236 N 
HETATM    8  N   UNL     1       4.687  26.413  50.525  1.00  0.00    -0.179 NA
HETATM    9  C   UNL     1       6.196  27.427  53.682  1.00  0.00     0.193 A 
HETATM   10  O   UNL     1       6.343  28.440  54.354  1.00  0.00    -0.287 OA
HETATM   11  C   UNL     1       6.753  26.126  54.159  1.00  0.00     0.086 A 
HETATM   12  H   UNL     1       5.679  24.218  51.733  1.00  0.00     0.167 HD
HETATM   13  H   UNL     1       5.250  26.095  49.735  1.00  0.00     0.155 HD
ENDROOT
BRANCH   1  14
HETATM   14  C   UNL     1       7.127  23.727  53.825  1.00  0.00    -0.009 A 
HETATM   15  C   UNL     1       7.594  22.787  52.897  1.00  0.00     0.014 A 
HETATM   16  C   UNL     1       8.096  21.554  53.324  1.00  0.00     0.007 A 
HETATM   17  C   UNL     1       8.135  21.236  54.685  1.00  0.00    -0.062 A 
HETATM   18  C   UNL     1       8.698  19.925  55.148  1.00  0.00     0.048 C 
HETATM   19  C   UNL     1       7.691  22.181  55.616  1.00  0.00     0.007 A 
HETATM   20  C   UNL     1       7.187  23.413  55.190  1.00  0.00     0.014 A 
ENDBRANCH   1  14
BRANCH   7  21
HETATM   21  C   UNL     1       3.657  28.301  49.343  1.00  0.00     0.055 A 
HETATM   22  C   UNL     1       4.321  28.853  48.236  1.00  0.00     0.034 A 
HETATM   23  C   UNL     1       3.604  29.350  47.141  1.00  0.00     0.044 A 
HETATM   24  C   UNL     1       2.218  29.299  47.148  1.00  0.00     0.116 A 
HETATM   25  F   UNL     1       1.531  29.773  46.101  1.00  0.00    -0.206 F 
HETATM   26  C   UNL     1       1.534  28.765  48.231  1.00  0.00     0.044 A 
HETATM   27  C   UNL     1       2.252  28.269  49.325  1.00  0.00     0.034 A 
ENDBRANCH   7  21
TORSDOF 2
ENDMDL
MODEL 7
REMARK VINA RESULT:      -9.3      2.349      2.982
REMARK  2 active torsions:
REMARK  status: ('A' for Active; 'I' for Inactive)
REMARK    1  A    between atoms: C_5  and  C_6 
REMARK    2  A    between atoms: N_12  and  C_13 
ROOT
HETATM    1  C   UNL     1       6.703  30.918  58.727  1.00  0.00     0.047 A 
HETATM    2  N   UNL     1       7.266  29.698  58.397  1.00  0.00    -0.344 N 
HETATM    3  C   UNL     1       6.980  29.073  57.213  1.00  0.00     0.119 A 
HETATM    4  C   UNL     1       6.210  29.666  56.285  1.00  0.00     0.123 A 
HETATM    5  C   UNL     1       6.181  28.772  55.117  1.00  0.00     0.280 A 
HETATM    6  O   UNL     1       5.589  28.999  54.077  1.00  0.00    -0.265 OA
HETATM    7  N   UNL     1       6.969  27.668  55.477  1.00  0.00    -0.236 N 
HETATM    8  N   UNL     1       7.440  27.837  56.798  1.00  0.00    -0.179 NA
HETATM    9  C   UNL     1       5.631  30.989  56.530  1.00  0.00     0.193 A 
HETATM   10  O   UNL     1       4.942  31.593  55.719  1.00  0.00    -0.287 OA
HETATM   11  C   UNL     1       5.921  31.594  57.864  1.00  0.00     0.086 A 
HETATM   12  H   UNL     1       7.649  29.136  59.150  1.00  0.00     0.167 HD
HETATM   13  H   UNL     1       8.458  27.803  56.854  1.00  0.00     0.155 HD
ENDROOT
BRANCH   1  14
HETATM   14  C   UNL     1       7.008  31.477  60.057  1.00  0.00    -0.009 A 
HETATM   15  C   UNL     1       6.138  32.380  60.681  1.00  0.00     0.014 A 
HETATM   16  C   UNL     1       6.436  32.899  61.944  1.00  0.00     0.007 A 
HETATM   17  C   UNL     1       7.612  32.530  62.604  1.00  0.00    -0.062 A 
HETATM   18  C   UNL     1       7.923  33.064  63.971  1.00  0.00     0.048 C 
HETATM   19  C   UNL     1       8.474  31.612  61.995  1.00  0.00     0.007 A 
HETATM   20  C   UNL     1       8.176  31.093  60.731  1.00  0.00     0.014 A 
ENDBRANCH   1  14
BRANCH   7  21
HETATM   21  C   UNL     1       7.267  26.495  54.750  1.00  0.00     0.055 A 
HETATM   22  C   UNL     1       7.277  25.237  55.372  1.00  0.00     0.034 A 
HETATM   23  C   UNL     1       7.561  24.076  54.644  1.00  0.00     0.044 A 
HETATM   24  C   UNL     1       7.841  24.167  53.289  1.00  0.00     0.116 A 
HETATM   25  F   UNL     1       8.113  23.057  52.591  1.00  0.00    -0.206 F 
HETATM   26  C   UNL     1       7.845  25.398  52.648  1.00  0.00     0.044 A 
HETATM   27  C   UNL     1       7.561  26.557  53.377  1.00  0.00     0.034 A 
ENDBRANCH   7  21
TORSDOF 2
ENDMDL
MODEL 8
REMARK VINA RESULT:      -9.1      5.819      9.661
REMARK  2 active torsions:
REMARK  status: ('A' for Active; 'I' for Inactive)
REMARK    1  A    between atoms: C_5  and  C_6 
REMARK    2  A    between atoms: N_12  and  C_13 
ROOT
HETATM    1  C   UNL     1       7.042  25.440  55.301  1.00  0.00     0.047 A 
HETATM    2  N   UNL     1       6.165  26.237  54.587  1.00  0.00    -0.344 N 
HETATM    3  C   UNL     1       5.725  27.437  55.076  1.00  0.00     0.119 A 
HETATM    4  C   UNL     1       6.199  27.929  56.232  1.00  0.00     0.123 A 
HETATM    5  C   UNL     1       5.592  29.257  56.414  1.00  0.00     0.280 A 
HETATM    6  O   UNL     1       5.810  30.003  57.353  1.00  0.00    -0.265 OA
HETATM    7  N   UNL     1       4.762  29.440  55.298  1.00  0.00    -0.236 N 
HETATM    8  N   UNL     1       4.815  28.291  54.479  1.00  0.00    -0.179 NA
HETATM    9  C   UNL     1       7.183  27.178  57.015  1.00  0.00     0.193 A 
HETATM   10  O   UNL     1       7.673  27.580  58.063  1.00  0.00    -0.287 OA
HETATM   11  C   UNL     1       7.577  25.846  56.468  1.00  0.00     0.086 A 
HETATM   12  H   UNL     1       5.624  25.799  53.848  1.00  0.00     0.167 HD
HETATM   13  H   UNL     1       5.108  28.506  53.526  1.00  0.00     0.155 HD
ENDROOT
BRANCH   1  14
HETATM   14  C   UNL     1       7.398  24.128  54.729  1.00  0.00    -0.009 A 
HETATM   15  C   UNL     1       7.504  22.990  55.538  1.00  0.00     0.014 A 
HETATM   16  C   UNL     1       7.838  21.751  54.983  1.00  0.00     0.007 A 
HETATM   17  C   UNL     1       8.079  21.629  53.611  1.00  0.00    -0.062 A 
HETATM   18  C   UNL     1       8.412  20.296  53.008  1.00  0.00     0.048 C 
HETATM   19  C   UNL     1       7.953  22.759  52.796  1.00  0.00     0.007 A 
HETATM   20  C   UNL     1       7.620  23.998  53.351  1.00  0.00     0.014 A 
ENDBRANCH   1  14
BRANCH   7  21
HETATM   21  C   UNL     1       3.918  30.522  54.966  1.00  0.00     0.055 A 
HETATM   22  C   UNL     1       3.991  31.142  53.709  1.00  0.00     0.034 A 
HETATM   23  C   UNL     1       3.143  32.207  53.382  1.00  0.00     0.044 A 
HETATM   24  C   UNL     1       2.221  32.661  54.312  1.00  0.00     0.116 A 
HETATM   25  F   UNL     1       1.409  33.680  54.000  1.00  0.00    -0.206 F 
HETATM   26  C   UNL     1       2.131  32.073  55.566  1.00  0.00     0.044 A 
HETATM   27  C   UNL     1       2.978  31.009  55.892  1.00  0.00     0.034 A 
ENDBRANCH   7  21
TORSDOF 2
ENDMDL
MODEL 9
REMARK VINA RESULT:      -9.1      5.152      6.469
REMARK  2 active torsions:
REMARK  status: ('A' for Active; 'I' for Inactive)
REMARK    1  A    between atoms: C_5  and  C_6 
REMARK    2  A    between atoms: N_12  and  C_13 
ROOT
HETATM    1  C   UNL     1       5.324  28.698  55.960  1.00  0.00     0.047 A 
HETATM    2  N   UNL     1       5.281  27.550  55.190  1.00  0.00    -0.344 N 
HETATM    3  C   UNL     1       6.174  26.529  55.373  1.00  0.00     0.119 A 
HETATM    4  C   UNL     1       7.074  26.567  56.371  1.00  0.00     0.123 A 
HETATM    5  C   UNL     1       7.805  25.290  56.337  1.00  0.00     0.280 A 
HETATM    6  O   UNL     1       8.689  24.970  57.113  1.00  0.00    -0.265 OA
HETATM    7  N   UNL     1       7.254  24.577  55.262  1.00  0.00    -0.236 N 
HETATM    8  N   UNL     1       6.260  25.362  54.637  1.00  0.00    -0.179 NA
HETATM    9  C   UNL     1       7.139  27.718  57.274  1.00  0.00     0.193 A 
HETATM   10  O   UNL     1       7.917  27.805  58.215  1.00  0.00    -0.287 OA
HETATM   11  C   UNL     1       6.186  28.831  56.986  1.00  0.00     0.086 A 
HETATM   12  H   UNL     1       4.785  27.593  54.306  1.00  0.00     0.167 HD
HETATM   13  H   UNL     1       5.354  24.894  54.612  1.00  0.00     0.155 HD
ENDROOT
BRANCH   1  14
HETATM   14  C   UNL     1       4.371  29.777  55.637  1.00  0.00    -0.009 A 
HETATM   15  C   UNL     1       4.134  30.160  54.311  1.00  0.00     0.014 A 
HETATM   16  C   UNL     1       3.224  31.181  54.017  1.00  0.00     0.007 A 
HETATM   17  C   UNL     1       2.541  31.841  55.043  1.00  0.00    -0.062 A 
HETATM   18  C   UNL     1       1.545  32.918  54.731  1.00  0.00     0.048 C 
HETATM   19  C   UNL     1       2.759  31.445  56.368  1.00  0.00     0.007 A 
HETATM   20  C   UNL     1       3.669  30.426  56.662  1.00  0.00     0.014 A 
ENDBRANCH   1  14
BRANCH   7  21
HETATM   21  C   UNL     1       7.592  23.304  54.754  1.00  0.00     0.055 A 
HETATM   22  C   UNL     1       7.967  23.132  53.413  1.00  0.00     0.034 A 
HETATM   23  C   UNL     1       8.313  21.869  52.918  1.00  0.00     0.044 A 
HETATM   24  C   UNL     1       8.282  20.769  53.762  1.00  0.00     0.116 A 
HETATM   25  F   UNL     1       8.613  19.561  53.290  1.00  0.00    -0.206 F 
HETATM   26  C   UNL     1       7.908  20.907  55.092  1.00  0.00     0.044 A 
HETATM   27  C   UNL     1       7.563  22.170  55.585  1.00  0.00     0.034 A 
ENDBRANCH   7  21
TORSDOF 2
ENDMDL
MODEL 10
REMARK VINA RESULT:      -8.8      4.365      6.662
REMARK  2 active torsions:
REMARK  status: ('A' for Active; 'I' for Inactive)
REMARK    1  A    between atoms: C_5  and  C_6 
REMARK    2  A    between atoms: N_12  and  C_13 
ROOT
HETATM    1  C   UNL     1       7.779  28.395  56.178  1.00  0.00     0.047 A 
HETATM    2  N   UNL     1       7.247  28.937  55.022  1.00  0.00    -0.344 N 
HETATM    3  C   UNL     1       6.850  28.147  53.977  1.00  0.00     0.119 A 
HETATM    4  C   UNL     1       6.879  26.807  54.071  1.00  0.00     0.123 A 
HETATM    5  C   UNL     1       6.308  26.277  52.823  1.00  0.00     0.280 A 
HETATM    6  O   UNL     1       6.162  25.095  52.567  1.00  0.00    -0.265 OA
HETATM    7  N   UNL     1       5.983  27.407  52.056  1.00  0.00    -0.236 N 
HETATM    8  N   UNL     1       6.353  28.574  52.759  1.00  0.00    -0.179 NA
HETATM    9  C   UNL     1       7.364  26.155  55.289  1.00  0.00     0.193 A 
HETATM   10  O   UNL     1       7.395  24.942  55.449  1.00  0.00    -0.287 OA
HETATM   11  C   UNL     1       7.847  27.064  56.371  1.00  0.00     0.086 A 
HETATM   12  H   UNL     1       7.427  29.918  54.833  1.00  0.00     0.167 HD
HETATM   13  H   UNL     1       5.566  29.207  52.902  1.00  0.00     0.155 HD
ENDROOT
BRANCH   1  14
HETATM   14  C   UNL     1       8.252  29.328  57.218  1.00  0.00    -0.009 A 
HETATM   15  C   UNL     1       9.596  29.715  57.287  1.00  0.00     0.014 A 
HETATM   16  C   UNL     1      10.032  30.603  58.275  1.00  0.00     0.007 A 
HETATM   17  C   UNL     1       9.133  31.117  59.215  1.00  0.00    -0.062 A 
HETATM   18  C   UNL     1       9.591  32.091  60.259  1.00  0.00     0.048 C 
HETATM   19  C   UNL     1       7.785  30.751  59.136  1.00  0.00     0.007 A 
HETATM   20  C   UNL     1       7.350  29.861  58.149  1.00  0.00     0.014 A 
ENDBRANCH   1  14
BRANCH   7  21
HETATM   21  C   UNL     1       5.431  27.491  50.759  1.00  0.00     0.055 A 
HETATM   22  C   UNL     1       4.862  26.368  50.138  1.00  0.00     0.034 A 
HETATM   23  C   UNL     1       4.305  26.460  48.857  1.00  0.00     0.044 A 
HETATM   24  C   UNL     1       4.316  27.675  48.189  1.00  0.00     0.116 A 
HETATM   25  F   UNL     1       3.783  27.765  46.964  1.00  0.00    -0.206 F 
HETATM   26  C   UNL     1       4.877  28.801  48.776  1.00  0.00     0.044 A 
HETATM   27  C   UNL     1       5.434  28.708  50.055  1.00  0.00     0.034 A 
ENDBRANCH   7  21
TORSDOF 2
ENDMDL
