MODEL 1
REMARK VINA RESULT:      -7.5      0.000      0.000
REMARK  5 active torsions:
REMARK  status: ('A' for Active; 'I' for Inactive)
REMARK    1  A    between atoms: C_2  and  O_3 
REMARK    2  A    between atoms: C_4  and  C_5 
REMARK    3  A    between atoms: C_5  and  O_6 
REMARK    4  A    between atoms: C_9  and  C_10 
REMARK    5  A    between atoms: C_22  and  O_23 
ROOT
HETATM    1  C   UNL     1       4.912  28.911  56.348  1.00  0.00     0.047 C 
HETATM    2  C   UNL     1       5.598  28.159  55.198  1.00  0.00     0.073 C 
HETATM    3  C   UNL     1       6.794  27.257  55.665  1.00  0.00     0.133 C 
HETATM    4  C   UNL     1       7.393  26.296  54.579  1.00  0.00     0.074 C 
HETATM    5  C   UNL     1       6.514  26.153  53.380  1.00  0.00     0.030 A 
HETATM    6  C   UNL     1       5.225  26.629  53.307  1.00  0.00     0.042 A 
HETATM    7  N   UNL     1       4.756  26.334  52.059  1.00  0.00    -0.279 N 
HETATM    8  H   UNL     1       3.846  26.533  51.657  1.00  0.00     0.189 HD
HETATM    9  N   UNL     1       5.691  25.748  51.281  1.00  0.00    -0.149 NA
HETATM   10  C   UNL     1       6.734  25.652  52.096  1.00  0.00     0.190 A 
HETATM   11  C   UNL     1       4.525  27.394  54.368  1.00  0.00     0.097 C 
ENDROOT
BRANCH   4  12
HETATM   12  C   UNL     1       7.706  24.868  55.020  1.00  0.00    -0.048 A 
HETATM   13  C   UNL     1       6.932  23.763  54.611  1.00  0.00     0.009 A 
HETATM   14  C   UNL     1       7.227  22.472  55.051  1.00  0.00     0.024 A 
HETATM   15  C   UNL     1       8.303  22.265  55.908  1.00  0.00     0.034 A 
HETATM   16 CL   UNL     1       8.666  20.676  56.454  1.00  0.00    -0.084 Cl
HETATM   17  C   UNL     1       9.084  23.339  56.328  1.00  0.00     0.024 A 
HETATM   18  C   UNL     1       8.786  24.633  55.889  1.00  0.00     0.009 A 
ENDBRANCH   4  12
BRANCH   3  19
HETATM   19  C   UNL     1       6.474  26.534  56.958  1.00  0.00     0.266 C 
HETATM   20  O   UNL     1       5.556  25.741  57.112  1.00  0.00    -0.265 OA
BRANCH  19  21
HETATM   21  O   UNL     1       7.370  26.895  57.921  1.00  0.00    -0.326 OA
HETATM   22  C   UNL     1       8.226  27.979  57.560  1.00  0.00     0.213 C 
ENDBRANCH  19  21
ENDBRANCH   3  19
BRANCH   2  23
HETATM   23  O   UNL     1       6.149  29.219  54.375  1.00  0.00    -0.389 OA
HETATM   24  H   UNL     1       5.446  29.869  54.194  1.00  0.00     0.210 HD
ENDBRANCH   2  23
BRANCH  10  25
HETATM   25  O   UNL     1       7.834  25.134  51.560  1.00  0.00    -0.343 OA
HETATM   26  H   UNL     1       8.178  24.530  52.241  1.00  0.00     0.219 HD
ENDBRANCH  10  25
TORSDOF 5
ENDMDL
MODEL 2
REMARK VINA RESULT:      -7.2      3.527      6.021
REMARK  5 active torsions:
REMARK  status: ('A' for Active; 'I' for Inactive)
REMARK    1  A    between atoms: C_2  and  O_3 
REMARK    2  A    between atoms: C_4  and  C_5 
REMARK    3  A    between atoms: C_5  and  O_6 
REMARK    4  A    between atoms: C_9  and  C_10 
REMARK    5  A    between atoms: C_22  and  O_23 
ROOT
HETATM    1  C   UNL     1       7.364  22.389  53.326  1.00  0.00     0.047 C 
HETATM    2  C   UNL     1       7.718  23.595  54.208  1.00  0.00     0.073 C 
HETATM    3  C   UNL     1       7.424  24.978  53.527  1.00  0.00     0.133 C 
HETATM    4  C   UNL     1       7.553  26.239  54.450  1.00  0.00     0.074 C 
HETATM    5  C   UNL     1       7.606  25.894  55.903  1.00  0.00     0.030 A 
HETATM    6  C   UNL     1       7.354  24.639  56.407  1.00  0.00     0.042 A 
HETATM    7  N   UNL     1       7.522  24.706  57.760  1.00  0.00    -0.279 N 
HETATM    8  H   UNL     1       7.417  23.972  58.453  1.00  0.00     0.189 HD
HETATM    9  N   UNL     1       7.937  25.925  58.169  1.00  0.00    -0.149 NA
HETATM   10  C   UNL     1       7.979  26.617  57.037  1.00  0.00     0.190 A 
HETATM   11  C   UNL     1       7.047  23.430  55.603  1.00  0.00     0.097 C 
ENDROOT
BRANCH   4  12
HETATM   12  C   UNL     1       6.460  27.298  54.329  1.00  0.00    -0.048 A 
HETATM   13  C   UNL     1       5.371  27.366  55.222  1.00  0.00     0.009 A 
HETATM   14  C   UNL     1       4.372  28.330  55.069  1.00  0.00     0.024 A 
HETATM   15  C   UNL     1       4.448  29.241  54.022  1.00  0.00     0.034 A 
HETATM   16 CL   UNL     1       3.217  30.427  53.831  1.00  0.00    -0.084 Cl
HETATM   17  C   UNL     1       5.512  29.196  53.126  1.00  0.00     0.024 A 
HETATM   18  C   UNL     1       6.512  28.228  53.277  1.00  0.00     0.009 A 
ENDBRANCH   4  12
BRANCH   3  19
HETATM   19  C   UNL     1       6.113  24.956  52.766  1.00  0.00     0.266 C 
HETATM   20  O   UNL     1       5.027  24.657  53.244  1.00  0.00    -0.265 OA
BRANCH  19  21
HETATM   21  O   UNL     1       6.326  25.327  51.471  1.00  0.00    -0.326 OA
HETATM   22  C   UNL     1       5.209  25.955  50.842  1.00  0.00     0.213 C 
ENDBRANCH  19  21
ENDBRANCH   3  19
BRANCH   2  23
HETATM   23  O   UNL     1       9.155  23.490  54.373  1.00  0.00    -0.389 OA
HETATM   24  H   UNL     1       9.344  23.216  55.289  1.00  0.00     0.210 HD
ENDBRANCH   2  23
BRANCH  10  25
HETATM   25  O   UNL     1       8.406  27.870  57.147  1.00  0.00    -0.343 OA
HETATM   26  H   UNL     1       9.358  27.790  57.328  1.00  0.00     0.219 HD
ENDBRANCH  10  25
TORSDOF 5
ENDMDL
MODEL 3
REMARK VINA RESULT:      -7.2      3.412      5.121
REMARK  5 active torsions:
REMARK  status: ('A' for Active; 'I' for Inactive)
REMARK    1  A    between atoms: C_2  and  O_3 
REMARK    2  A    between atoms: C_4  and  C_5 
REMARK    3  A    between atoms: C_5  and  O_6 
REMARK    4  A    between atoms: C_9  and  C_10 
REMARK    5  A    between atoms: C_22  and  O_23 
ROOT
HETATM    1  C   UNL     1       8.520  25.096  58.122  1.00  0.00     0.047 C 
HETATM    2  C   UNL     1       8.215  24.084  57.007  1.00  0.00     0.073 C 
HETATM    3  C   UNL     1       6.953  24.457  56.151  1.00  0.00     0.133 C 
HETATM    4  C   UNL     1       6.718  23.591  54.865  1.00  0.00     0.074 C 
HETATM    5  C   UNL     1       7.911  22.777  54.483  1.00  0.00     0.030 A 
HETATM    6  C   UNL     1       9.155  22.918  55.055  1.00  0.00     0.042 A 
HETATM    7  N   UNL     1       9.973  21.994  54.472  1.00  0.00    -0.279 N 
HETATM    8  H   UNL     1      10.957  21.814  54.645  1.00  0.00     0.189 HD
HETATM    9  N   UNL     1       9.318  21.204  53.593  1.00  0.00    -0.149 NA
HETATM   10  C   UNL     1       8.085  21.694  53.620  1.00  0.00     0.190 A 
HETATM   11  C   UNL     1       9.499  23.848  56.158  1.00  0.00     0.097 C 
ENDROOT
BRANCH   4  12
HETATM   12  C   UNL     1       6.319  24.338  53.594  1.00  0.00    -0.048 A 
HETATM   13  C   UNL     1       7.258  24.709  52.609  1.00  0.00     0.009 A 
HETATM   14  C   UNL     1       6.867  25.415  51.470  1.00  0.00     0.024 A 
HETATM   15  C   UNL     1       5.531  25.760  51.297  1.00  0.00     0.034 A 
HETATM   16 CL   UNL     1       5.049  26.633  49.896  1.00  0.00    -0.084 Cl
HETATM   17  C   UNL     1       4.584  25.407  52.255  1.00  0.00     0.024 A 
HETATM   18  C   UNL     1       4.976  24.702  53.398  1.00  0.00     0.009 A 
ENDBRANCH   4  12
BRANCH   3  19
HETATM   19  C   UNL     1       6.898  25.943  55.860  1.00  0.00     0.266 C 
HETATM   20  O   UNL     1       7.763  26.579  55.276  1.00  0.00    -0.265 OA
BRANCH  19  21
HETATM   21  O   UNL     1       5.732  26.463  56.343  1.00  0.00    -0.326 OA
HETATM   22  C   UNL     1       4.961  25.559  57.134  1.00  0.00     0.213 C 
ENDBRANCH  19  21
ENDBRANCH   3  19
BRANCH   2  23
HETATM   23  O   UNL     1       7.906  22.863  57.726  1.00  0.00    -0.389 OA
HETATM   24  H   UNL     1       8.205  22.104  57.193  1.00  0.00     0.210 HD
ENDBRANCH   2  23
BRANCH  10  25
HETATM   25  O   UNL     1       7.200  21.061  52.858  1.00  0.00    -0.343 OA
HETATM   26  H   UNL     1       6.335  21.368  53.180  1.00  0.00     0.219 HD
ENDBRANCH  10  25
TORSDOF 5
ENDMDL
MODEL 4
REMARK VINA RESULT:      -7.0      3.392      4.882
REMARK  5 active torsions:
REMARK  status: ('A' for Active; 'I' for Inactive)
REMARK    1  A    between atoms: C_2  and  O_3 
REMARK    2  A    between atoms: C_4  and  C_5 
REMARK    3  A    between atoms: C_5  and  O_6 
REMARK    4  A    between atoms: C_9  and  C_10 
REMARK    5  A    between atoms: C_22  and  O_23 
ROOT
HETATM    1  C   UNL     1       3.105  30.974  55.746  1.00  0.00     0.047 C 
HETATM    2  C   UNL     1       4.107  30.025  56.419  1.00  0.00     0.073 C 
HETATM    3  C   UNL     1       4.126  28.586  55.791  1.00  0.00     0.133 C 
HETATM    4  C   UNL     1       5.276  27.640  56.282  1.00  0.00     0.074 C 
HETATM    5  C   UNL     1       6.360  28.367  57.009  1.00  0.00     0.030 A 
HETATM    6  C   UNL     1       6.464  29.738  57.066  1.00  0.00     0.042 A 
HETATM    7  N   UNL     1       7.554  30.028  57.834  1.00  0.00    -0.279 N 
HETATM    8  H   UNL     1       7.933  30.935  58.087  1.00  0.00     0.189 HD
HETATM    9  N   UNL     1       8.137  28.921  58.342  1.00  0.00    -0.149 NA
HETATM   10  C   UNL     1       7.402  27.940  57.834  1.00  0.00     0.190 A 
HETATM   11  C   UNL     1       5.507  30.703  56.470  1.00  0.00     0.097 C 
ENDROOT
BRANCH   4  12
HETATM   12  C   UNL     1       5.992  26.816  55.215  1.00  0.00    -0.048 A 
HETATM   13  C   UNL     1       7.051  27.336  54.442  1.00  0.00     0.009 A 
HETATM   14  C   UNL     1       7.670  26.566  53.455  1.00  0.00     0.024 A 
HETATM   15  C   UNL     1       7.241  25.263  53.227  1.00  0.00     0.034 A 
HETATM   16 CL   UNL     1       8.000  24.316  52.009  1.00  0.00    -0.084 Cl
HETATM   17  C   UNL     1       6.197  24.726  53.975  1.00  0.00     0.024 A 
HETATM   18  C   UNL     1       5.575  25.498  54.962  1.00  0.00     0.009 A 
ENDBRANCH   4  12
BRANCH   3  19
HETATM   19  C   UNL     1       4.030  28.637  54.280  1.00  0.00     0.266 C 
HETATM   20  O   UNL     1       3.334  27.903  53.593  1.00  0.00    -0.265 OA
BRANCH  19  21
HETATM   21  O   UNL     1       4.832  29.632  53.801  1.00  0.00    -0.326 OA
HETATM   22  C   UNL     1       4.701  29.879  52.401  1.00  0.00     0.213 C 
ENDBRANCH  19  21
ENDBRANCH   3  19
BRANCH   2  23
HETATM   23  O   UNL     1       3.605  29.900  57.774  1.00  0.00    -0.389 OA
HETATM   24  H   UNL     1       4.189  29.296  58.268  1.00  0.00     0.210 HD
ENDBRANCH   2  23
BRANCH  10  25
HETATM   25  O   UNL     1       7.740  26.713  58.214  1.00  0.00    -0.343 OA
HETATM   26  H   UNL     1       8.296  26.377  57.491  1.00  0.00     0.219 HD
ENDBRANCH  10  25
TORSDOF 5
ENDMDL
MODEL 5
REMARK VINA RESULT:      -7.0      2.770      4.830
REMARK  5 active torsions:
REMARK  status: ('A' for Active; 'I' for Inactive)
REMARK    1  A    between atoms: C_2  and  O_3 
REMARK    2  A    between atoms: C_4  and  C_5 
REMARK    3  A    between atoms: C_5  and  O_6 
REMARK    4  A    between atoms: C_9  and  C_10 
REMARK    5  A    between atoms: C_22  and  O_23 
ROOT
HETATM    1  C   UNL     1       5.754  24.152  52.253  1.00  0.00     0.047 C 
HETATM    2  C   UNL     1       5.202  25.323  53.078  1.00  0.00     0.073 C 
HETATM    3  C   UNL     1       5.956  25.541  54.438  1.00  0.00     0.133 C 
HETATM    4  C   UNL     1       5.590  26.849  55.222  1.00  0.00     0.074 C 
HETATM    5  C   UNL     1       4.838  27.836  54.391  1.00  0.00     0.030 A 
HETATM    6  C   UNL     1       4.664  27.724  53.030  1.00  0.00     0.042 A 
HETATM    7  N   UNL     1       3.911  28.790  52.631  1.00  0.00    -0.279 N 
HETATM    8  H   UNL     1       3.591  29.032  51.698  1.00  0.00     0.189 HD
HETATM    9  N   UNL     1       3.523  29.565  53.667  1.00  0.00    -0.149 NA
HETATM   10  C   UNL     1       4.091  28.971  54.708  1.00  0.00     0.190 A 
HETATM   11  C   UNL     1       5.139  26.599  52.188  1.00  0.00     0.097 C 
ENDROOT
BRANCH   4  12
HETATM   12  C   UNL     1       6.750  27.635  55.828  1.00  0.00    -0.048 A 
HETATM   13  C   UNL     1       7.576  28.479  55.058  1.00  0.00     0.009 A 
HETATM   14  C   UNL     1       8.646  29.166  55.636  1.00  0.00     0.024 A 
HETATM   15  C   UNL     1       8.905  29.020  56.994  1.00  0.00     0.034 A 
HETATM   16 CL   UNL     1      10.224  29.862  57.706  1.00  0.00    -0.084 Cl
HETATM   17  C   UNL     1       8.105  28.192  57.778  1.00  0.00     0.024 A 
HETATM   18  C   UNL     1       7.035  27.502  57.198  1.00  0.00     0.009 A 
ENDBRANCH   4  12
BRANCH   3  19
HETATM   19  C   UNL     1       7.452  25.366  54.279  1.00  0.00     0.266 C 
HETATM   20  O   UNL     1       8.118  25.806  53.353  1.00  0.00    -0.265 OA
BRANCH  19  21
HETATM   21  O   UNL     1       7.946  24.649  55.330  1.00  0.00    -0.326 OA
HETATM   22  C   UNL     1       7.826  23.233  55.192  1.00  0.00     0.213 C 
ENDBRANCH  19  21
ENDBRANCH   3  19
BRANCH   2  23
HETATM   23  O   UNL     1       3.847  24.913  53.393  1.00  0.00    -0.389 OA
HETATM   24  H   UNL     1       3.817  23.939  53.426  1.00  0.00     0.210 HD
ENDBRANCH   2  23
BRANCH  10  25
HETATM   25  O   UNL     1       3.833  29.518  55.891  1.00  0.00    -0.343 OA
HETATM   26  H   UNL     1       2.862  29.574  55.928  1.00  0.00     0.219 HD
ENDBRANCH  10  25
TORSDOF 5
ENDMDL
MODEL 6
REMARK VINA RESULT:      -6.9      2.091      2.491
REMARK  5 active torsions:
REMARK  status: ('A' for Active; 'I' for Inactive)
REMARK    1  A    between atoms: C_2  and  O_3 
REMARK    2  A    between atoms: C_4  and  C_5 
REMARK    3  A    between atoms: C_5  and  O_6 
REMARK    4  A    between atoms: C_9  and  C_10 
REMARK    5  A    between atoms: C_22  and  O_23 
ROOT
HETATM    1  C   UNL     1       4.926  29.534  56.783  1.00  0.00     0.047 C 
HETATM    2  C   UNL     1       5.090  29.226  55.287  1.00  0.00     0.073 C 
HETATM    3  C   UNL     1       6.284  28.256  54.975  1.00  0.00     0.133 C 
HETATM    4  C   UNL     1       6.370  27.727  53.501  1.00  0.00     0.074 C 
HETATM    5  C   UNL     1       5.117  27.962  52.723  1.00  0.00     0.030 A 
HETATM    6  C   UNL     1       3.935  28.396  53.279  1.00  0.00     0.042 A 
HETATM    7  N   UNL     1       3.032  28.518  52.262  1.00  0.00    -0.279 N 
HETATM    8  H   UNL     1       2.061  28.811  52.303  1.00  0.00     0.189 HD
HETATM    9  N   UNL     1       3.575  28.250  51.054  1.00  0.00    -0.149 NA
HETATM   10  C   UNL     1       4.824  27.921  51.359  1.00  0.00     0.190 A 
HETATM   11  C   UNL     1       3.728  28.746  54.705  1.00  0.00     0.097 C 
ENDROOT
BRANCH   4  12
HETATM   12  C   UNL     1       6.684  26.244  53.318  1.00  0.00    -0.048 A 
HETATM   13  C   UNL     1       5.718  25.236  53.522  1.00  0.00     0.009 A 
HETATM   14  C   UNL     1       6.041  23.886  53.372  1.00  0.00     0.024 A 
HETATM   15  C   UNL     1       7.335  23.523  53.015  1.00  0.00     0.034 A 
HETATM   16 CL   UNL     1       7.735  21.860  52.834  1.00  0.00    -0.084 Cl
HETATM   17  C   UNL     1       8.308  24.497  52.810  1.00  0.00     0.024 A 
HETATM   18  C   UNL     1       7.985  25.850  52.962  1.00  0.00     0.009 A 
ENDBRANCH   4  12
BRANCH   3  19
HETATM   19  C   UNL     1       6.373  27.136  55.993  1.00  0.00     0.266 C 
HETATM   20  O   UNL     1       5.427  26.474  56.395  1.00  0.00    -0.265 OA
BRANCH  19  21
HETATM   21  O   UNL     1       7.669  26.974  56.387  1.00  0.00    -0.326 OA
HETATM   22  C   UNL     1       7.974  25.679  56.905  1.00  0.00     0.213 C 
ENDBRANCH  19  21
ENDBRANCH   3  19
BRANCH   2  23
HETATM   23  O   UNL     1       5.413  30.514  54.705  1.00  0.00    -0.389 OA
HETATM   24  H   UNL     1       4.956  31.208  55.213  1.00  0.00     0.210 HD
ENDBRANCH   2  23
BRANCH  10  25
HETATM   25  O   UNL     1       5.612  27.643  50.326  1.00  0.00    -0.343 OA
HETATM   26  H   UNL     1       5.358  26.743  50.060  1.00  0.00     0.219 HD
ENDBRANCH  10  25
TORSDOF 5
ENDMDL
MODEL 7
REMARK VINA RESULT:      -6.8      3.687      6.119
REMARK  5 active torsions:
REMARK  status: ('A' for Active; 'I' for Inactive)
REMARK    1  A    between atoms: C_2  and  O_3 
REMARK    2  A    between atoms: C_4  and  C_5 
REMARK    3  A    between atoms: C_5  and  O_6 
REMARK    4  A    between atoms: C_9  and  C_10 
REMARK    5  A    between atoms: C_22  and  O_23 
ROOT
HETATM    1  C   UNL     1       6.808  23.931  55.463  1.00  0.00     0.047 C 
HETATM    2  C   UNL     1       6.688  25.459  55.555  1.00  0.00     0.073 C 
HETATM    3  C   UNL     1       6.644  26.169  54.155  1.00  0.00     0.133 C 
HETATM    4  C   UNL     1       6.301  27.699  54.174  1.00  0.00     0.074 C 
HETATM    5  C   UNL     1       5.744  28.156  55.482  1.00  0.00     0.030 A 
HETATM    6  C   UNL     1       5.365  27.307  56.497  1.00  0.00     0.042 A 
HETATM    7  N   UNL     1       4.933  28.085  57.532  1.00  0.00    -0.279 N 
HETATM    8  H   UNL     1       4.578  27.799  58.440  1.00  0.00     0.189 HD
HETATM    9  N   UNL     1       5.069  29.405  57.280  1.00  0.00    -0.149 NA
HETATM   10  C   UNL     1       5.558  29.419  56.046  1.00  0.00     0.190 A 
HETATM   11  C   UNL     1       5.493  25.830  56.481  1.00  0.00     0.097 C 
ENDROOT
BRANCH   4  12
HETATM   12  C   UNL     1       5.313  28.196  53.121  1.00  0.00    -0.048 A 
HETATM   13  C   UNL     1       5.728  28.692  51.868  1.00  0.00     0.009 A 
HETATM   14  C   UNL     1       4.803  29.163  50.935  1.00  0.00     0.024 A 
HETATM   15  C   UNL     1       3.446  29.146  51.241  1.00  0.00     0.034 A 
HETATM   16 CL   UNL     1       2.305  29.730  50.095  1.00  0.00    -0.084 Cl
HETATM   17  C   UNL     1       3.009  28.663  52.472  1.00  0.00     0.024 A 
HETATM   18  C   UNL     1       3.937  28.193  53.407  1.00  0.00     0.009 A 
ENDBRANCH   4  12
BRANCH   3  19
HETATM   19  C   UNL     1       5.789  25.401  53.168  1.00  0.00     0.266 C 
HETATM   20  O   UNL     1       4.657  24.992  53.387  1.00  0.00    -0.265 OA
BRANCH  19  21
HETATM   21  O   UNL     1       6.469  25.241  51.996  1.00  0.00    -0.326 OA
HETATM   22  C   UNL     1       7.879  25.078  52.146  1.00  0.00     0.213 C 
ENDBRANCH  19  21
ENDBRANCH   3  19
BRANCH   2  23
HETATM   23  O   UNL     1       7.919  25.862  56.207  1.00  0.00    -0.389 OA
HETATM   24  H   UNL     1       8.541  26.180  55.527  1.00  0.00     0.210 HD
ENDBRANCH   2  23
BRANCH  10  25
HETATM   25  O   UNL     1       5.831  30.622  55.552  1.00  0.00    -0.343 OA
HETATM   26  H   UNL     1       6.797  30.706  55.632  1.00  0.00     0.219 HD
ENDBRANCH  10  25
TORSDOF 5
ENDMDL
MODEL 8
REMARK VINA RESULT:      -6.6      3.411      5.627
REMARK  5 active torsions:
REMARK  status: ('A' for Active; 'I' for Inactive)
REMARK    1  A    between atoms: C_2  and  O_3 
REMARK    2  A    between atoms: C_4  and  C_5 
REMARK    3  A    between atoms: C_5  and  O_6 
REMARK    4  A    between atoms: C_9  and  C_10 
REMARK    5  A    between atoms: C_22  and  O_23 
ROOT
HETATM    1  C   UNL     1       3.384  30.266  49.725  1.00  0.00     0.047 C 
HETATM    2  C   UNL     1       3.396  29.794  51.186  1.00  0.00     0.073 C 
HETATM    3  C   UNL     1       3.653  28.253  51.343  1.00  0.00     0.133 C 
HETATM    4  C   UNL     1       3.897  27.745  52.807  1.00  0.00     0.074 C 
HETATM    5  C   UNL     1       4.178  28.852  53.769  1.00  0.00     0.030 A 
HETATM    6  C   UNL     1       4.415  30.156  53.396  1.00  0.00     0.042 A 
HETATM    7  N   UNL     1       4.604  30.874  54.541  1.00  0.00    -0.279 N 
HETATM    8  H   UNL     1       4.804  31.864  54.648  1.00  0.00     0.189 HD
HETATM    9  N   UNL     1       4.439  30.127  55.654  1.00  0.00    -0.149 NA
HETATM   10  C   UNL     1       4.184  28.920  55.163  1.00  0.00     0.190 A 
HETATM   11  C   UNL     1       4.378  30.678  52.008  1.00  0.00     0.097 C 
ENDROOT
BRANCH   4  12
HETATM   12  C   UNL     1       5.030  26.741  53.008  1.00  0.00    -0.048 A 
HETATM   13  C   UNL     1       6.360  27.141  53.254  1.00  0.00     0.009 A 
HETATM   14  C   UNL     1       7.379  26.199  53.408  1.00  0.00     0.024 A 
HETATM   15  C   UNL     1       7.085  24.843  53.320  1.00  0.00     0.034 A 
HETATM   16 CL   UNL     1       8.340  23.683  53.506  1.00  0.00    -0.084 Cl
HETATM   17  C   UNL     1       5.780  24.422  53.077  1.00  0.00     0.024 A 
HETATM   18  C   UNL     1       4.758  25.365  52.920  1.00  0.00     0.009 A 
ENDBRANCH   4  12
BRANCH   3  19
HETATM   19  C   UNL     1       4.718  27.765  50.381  1.00  0.00     0.266 C 
HETATM   20  O   UNL     1       5.827  28.263  50.248  1.00  0.00    -0.265 OA
BRANCH  19  21
HETATM   21  O   UNL     1       4.255  26.682  49.692  1.00  0.00    -0.326 OA
HETATM   22  C   UNL     1       4.570  26.685  48.300  1.00  0.00     0.213 C 
ENDBRANCH  19  21
ENDBRANCH   3  19
BRANCH   2  23
HETATM   23  O   UNL     1       2.045  30.057  51.643  1.00  0.00    -0.389 OA
HETATM   24  H   UNL     1       1.985  29.822  52.587  1.00  0.00     0.210 HD
ENDBRANCH   2  23
BRANCH  10  25
HETATM   25  O   UNL     1       3.935  27.976  56.063  1.00  0.00    -0.343 OA
HETATM   26  H   UNL     1       2.965  27.909  56.086  1.00  0.00     0.219 HD
ENDBRANCH  10  25
TORSDOF 5
ENDMDL
MODEL 9
REMARK VINA RESULT:      -6.6      3.239      5.581
REMARK  5 active torsions:
REMARK  status: ('A' for Active; 'I' for Inactive)
REMARK    1  A    between atoms: C_2  and  O_3 
REMARK    2  A    between atoms: C_4  and  C_5 
REMARK    3  A    between atoms: C_5  and  O_6 
REMARK    4  A    between atoms: C_9  and  C_10 
REMARK    5  A    between atoms: C_22  and  O_23 
ROOT
HETATM    1  C   UNL     1       6.128  25.528  51.299  1.00  0.00     0.047 C 
HETATM    2  C   UNL     1       6.806  25.581  52.676  1.00  0.00     0.073 C 
HETATM    3  C   UNL     1       6.863  27.025  53.290  1.00  0.00     0.133 C 
HETATM    4  C   UNL     1       7.340  27.116  54.781  1.00  0.00     0.074 C 
HETATM    5  C   UNL     1       7.340  25.793  55.476  1.00  0.00     0.030 A 
HETATM    6  C   UNL     1       6.784  24.648  54.953  1.00  0.00     0.042 A 
HETATM    7  N   UNL     1       7.000  23.647  55.855  1.00  0.00    -0.279 N 
HETATM    8  H   UNL     1       6.725  22.671  55.802  1.00  0.00     0.189 HD
HETATM    9  N   UNL     1       7.727  24.056  56.917  1.00  0.00    -0.149 NA
HETATM   10  C   UNL     1       7.918  25.345  56.664  1.00  0.00     0.190 A 
HETATM   11  C   UNL     1       6.152  24.527  53.616  1.00  0.00     0.097 C 
ENDROOT
BRANCH   4  12
HETATM   12  C   UNL     1       6.556  28.051  55.699  1.00  0.00    -0.048 A 
HETATM   13  C   UNL     1       5.384  27.645  56.370  1.00  0.00     0.009 A 
HETATM   14  C   UNL     1       4.674  28.531  57.182  1.00  0.00     0.024 A 
HETATM   15  C   UNL     1       5.126  29.836  57.339  1.00  0.00     0.034 A 
HETATM   16 CL   UNL     1       4.251  30.929  58.337  1.00  0.00    -0.084 Cl
HETATM   17  C   UNL     1       6.281  30.263  56.688  1.00  0.00     0.024 A 
HETATM   18  C   UNL     1       6.991  29.376  55.871  1.00  0.00     0.009 A 
ENDBRANCH   4  12
BRANCH   3  19
HETATM   19  C   UNL     1       5.572  27.782  53.053  1.00  0.00     0.266 C 
HETATM   20  O   UNL     1       4.453  27.368  53.324  1.00  0.00    -0.265 OA
BRANCH  19  21
HETATM   21  O   UNL     1       5.847  28.998  52.499  1.00  0.00    -0.326 OA
HETATM   22  C   UNL     1       5.340  29.176  51.176  1.00  0.00     0.213 C 
ENDBRANCH  19  21
ENDBRANCH   3  19
BRANCH   2  23
HETATM   23  O   UNL     1       8.171  25.172  52.402  1.00  0.00    -0.389 OA
HETATM   24  H   UNL     1       8.150  24.397  51.811  1.00  0.00     0.210 HD
ENDBRANCH   2  23
BRANCH  10  25
HETATM   25  O   UNL     1       8.658  25.999  57.552  1.00  0.00    -0.343 OA
HETATM   26  H   UNL     1       8.423  26.935  57.425  1.00  0.00     0.219 HD
ENDBRANCH  10  25
TORSDOF 5
ENDMDL
MODEL 10
REMARK VINA RESULT:      -6.5      2.604      4.516
REMARK  5 active torsions:
REMARK  status: ('A' for Active; 'I' for Inactive)
REMARK    1  A    between atoms: C_2  and  O_3 
REMARK    2  A    between atoms: C_4  and  C_5 
REMARK    3  A    between atoms: C_5  and  O_6 
REMARK    4  A    between atoms: C_9  and  C_10 
REMARK    5  A    between atoms: C_22  and  O_23 
ROOT
HETATM    1  C   UNL     1       5.354  27.353  50.216  1.00  0.00     0.047 C 
HETATM    2  C   UNL     1       4.869  27.650  51.643  1.00  0.00     0.073 C 
HETATM    3  C   UNL     1       5.114  26.467  52.646  1.00  0.00     0.133 C 
HETATM    4  C   UNL     1       4.847  26.785  54.158  1.00  0.00     0.074 C 
HETATM    5  C   UNL     1       4.729  28.248  54.435  1.00  0.00     0.030 A 
HETATM    6  C   UNL     1       5.031  29.232  53.520  1.00  0.00     0.042 A 
HETATM    7  N   UNL     1       4.778  30.431  54.121  1.00  0.00    -0.279 N 
HETATM    8  H   UNL     1       4.888  31.368  53.746  1.00  0.00     0.189 HD
HETATM    9  N   UNL     1       4.261  30.289  55.361  1.00  0.00    -0.149 NA
HETATM   10  C   UNL     1       4.242  28.972  55.523  1.00  0.00     0.190 A 
HETATM   11  C   UNL     1       5.465  29.007  52.120  1.00  0.00     0.097 C 
ENDROOT
BRANCH   4  12
HETATM   12  C   UNL     1       5.875  26.268  55.162  1.00  0.00    -0.048 A 
HETATM   13  C   UNL     1       6.989  27.033  55.565  1.00  0.00     0.009 A 
HETATM   14  C   UNL     1       7.926  26.524  56.466  1.00  0.00     0.024 A 
HETATM   15  C   UNL     1       7.763  25.242  56.979  1.00  0.00     0.034 A 
HETATM   16 CL   UNL     1       8.919  24.612  58.086  1.00  0.00    -0.084 Cl
HETATM   17  C   UNL     1       6.673  24.465  56.597  1.00  0.00     0.024 A 
HETATM   18  C   UNL     1       5.735  24.974  55.692  1.00  0.00     0.009 A 
ENDBRANCH   4  12
BRANCH   3  19
HETATM   19  C   UNL     1       6.467  25.821  52.425  1.00  0.00     0.266 C 
HETATM   20  O   UNL     1       7.535  26.416  52.393  1.00  0.00    -0.265 OA
BRANCH  19  21
HETATM   21  O   UNL     1       6.315  24.473  52.275  1.00  0.00    -0.326 OA
HETATM   22  C   UNL     1       7.440  23.699  52.690  1.00  0.00     0.213 C 
ENDBRANCH  19  21
ENDBRANCH   3  19
BRANCH   2  23
HETATM   23  O   UNL     1       3.435  27.802  51.493  1.00  0.00    -0.389 OA
HETATM   24  H   UNL     1       3.234  27.941  50.550  1.00  0.00     0.210 HD
ENDBRANCH   2  23
BRANCH  10  25
HETATM   25  O   UNL     1       3.729  28.544  56.671  1.00  0.00    -0.343 OA
HETATM   26  H   UNL     1       4.274  27.775  56.911  1.00  0.00     0.219 HD
ENDBRANCH  10  25
TORSDOF 5
ENDMDL
