MODEL 1
REMARK VINA RESULT:      -8.1      0.000      0.000
REMARK  4 active torsions:
REMARK  status: ('A' for Active; 'I' for Inactive)
REMARK    1  A    between atoms: C_5  and  N_6 
REMARK    2  A    between atoms: N_10  and  C_11 
REMARK    3  A    between atoms: C_11  and  C_12 
REMARK    4  A    between atoms: C_13  and  O_14 
ROOT
HETATM    1  N   UNL     1       4.858  26.879  50.815  1.00  0.00    -0.312 N 
HETATM    2  C   UNL     1       5.610  27.849  51.500  1.00  0.00     0.253 C 
HETATM    3  O   UNL     1       5.972  28.926  51.017  1.00  0.00    -0.271 OA
HETATM    4  C   UNL     1       5.873  27.600  52.991  1.00  0.00     0.375 C 
HETATM    5  N   UNL     1       6.059  26.186  53.377  1.00  0.00     0.103 N 
HETATM    6  C   UNL     1       4.908  25.426  52.885  1.00  0.00     0.293 C 
HETATM    7  C   UNL     1       4.709  25.529  51.372  1.00  0.00     0.162 C 
ENDROOT
BRANCH   5   8
HETATM    8  C   UNL     1       7.343  25.639  52.904  1.00  0.00     0.314 C 
BRANCH   8   9
HETATM    9  C   UNL     1       7.722  24.354  53.610  1.00  0.00     0.006 A 
HETATM   10  C   UNL     1       7.930  24.304  54.994  1.00  0.00     0.095 A 
HETATM   11  C   UNL     1       8.250  23.096  55.627  1.00  0.00     0.069 A 
HETATM   12 CL   UNL     1       8.493  23.046  57.334  1.00  0.00    -0.081 Cl
HETATM   13  C   UNL     1       8.373  21.922  54.888  1.00  0.00     0.050 A 
HETATM   14  C   UNL     1       8.176  21.964  53.511  1.00  0.00     0.036 A 
HETATM   15 CL   UNL     1       8.320  20.519  52.587  1.00  0.00    -0.084 Cl
HETATM   16  C   UNL     1       7.856  23.163  52.873  1.00  0.00     0.035 A 
BRANCH  10  17
HETATM   17  O   UNL     1       7.803  25.461  55.716  1.00  0.00    -0.358 OA
HETATM   18  H   UNL     1       7.562  25.216  56.630  1.00  0.00     0.218 HD
ENDBRANCH  10  17
ENDBRANCH   8   9
ENDBRANCH   5   8
BRANCH   1  19
HETATM   19  C   UNL     1       4.397  27.152  49.509  1.00  0.00     0.073 A 
HETATM   20  C   UNL     1       4.829  26.661  48.248  1.00  0.00     0.169 A 
HETATM   21  N   UNL     1       4.151  27.187  47.221  1.00  0.00    -0.183 NA
HETATM   22  N   UNL     1       3.282  28.017  47.815  1.00  0.00    -0.283 N 
HETATM   23  C   UNL     1       2.374  28.802  47.016  1.00  0.00     0.179 C 
HETATM   24  C   UNL     1       3.380  28.024  49.177  1.00  0.00     0.143 A 
ENDBRANCH   1  19
TORSDOF 4
ENDMDL
MODEL 2
REMARK VINA RESULT:      -8.1      4.441      6.878
REMARK  4 active torsions:
REMARK  status: ('A' for Active; 'I' for Inactive)
REMARK    1  A    between atoms: C_5  and  N_6 
REMARK    2  A    between atoms: N_10  and  C_11 
REMARK    3  A    between atoms: C_11  and  C_12 
REMARK    4  A    between atoms: C_13  and  O_14 
ROOT
HETATM    1  N   UNL     1       7.178  27.860  56.672  1.00  0.00    -0.312 N 
HETATM    2  C   UNL     1       7.182  26.617  57.327  1.00  0.00     0.253 C 
HETATM    3  O   UNL     1       7.735  26.396  58.409  1.00  0.00    -0.271 OA
HETATM    4  C   UNL     1       6.322  25.504  56.714  1.00  0.00     0.375 C 
HETATM    5  N   UNL     1       6.239  25.503  55.239  1.00  0.00     0.103 N 
HETATM    6  C   UNL     1       5.808  26.835  54.808  1.00  0.00     0.293 C 
HETATM    7  C   UNL     1       6.736  27.959  55.275  1.00  0.00     0.162 C 
ENDROOT
BRANCH   5   8
HETATM    8  C   UNL     1       7.502  25.084  54.605  1.00  0.00     0.314 C 
BRANCH   8   9
HETATM    9  C   UNL     1       7.780  23.607  54.787  1.00  0.00     0.006 A 
HETATM   10  C   UNL     1       7.904  22.737  53.697  1.00  0.00     0.095 A 
HETATM   11  C   UNL     1       8.191  21.380  53.892  1.00  0.00     0.069 A 
HETATM   12 CL   UNL     1       8.352  20.322  52.539  1.00  0.00    -0.081 Cl
HETATM   13  C   UNL     1       8.352  20.870  55.177  1.00  0.00     0.050 A 
HETATM   14  C   UNL     1       8.222  21.725  56.267  1.00  0.00     0.036 A 
HETATM   15 CL   UNL     1       8.424  21.108  57.861  1.00  0.00    -0.084 Cl
HETATM   16  C   UNL     1       7.937  23.078  56.082  1.00  0.00     0.035 A 
BRANCH  10  17
HETATM   17  O   UNL     1       7.749  23.246  52.434  1.00  0.00    -0.358 OA
HETATM   18  H   UNL     1       8.632  23.286  52.020  1.00  0.00     0.218 HD
ENDBRANCH  10  17
ENDBRANCH   8   9
ENDBRANCH   5   8
BRANCH   1  19
HETATM   19  C   UNL     1       7.767  28.979  57.299  1.00  0.00     0.073 A 
HETATM   20  C   UNL     1       7.210  29.974  58.144  1.00  0.00     0.169 A 
HETATM   21  N   UNL     1       8.098  30.901  58.519  1.00  0.00    -0.183 NA
HETATM   22  N   UNL     1       9.230  30.508  57.918  1.00  0.00    -0.283 N 
HETATM   23  C   UNL     1      10.433  31.288  58.068  1.00  0.00     0.179 C 
HETATM   24  C   UNL     1       9.089  29.363  57.188  1.00  0.00     0.143 A 
ENDBRANCH   1  19
TORSDOF 4
ENDMDL
MODEL 3
REMARK VINA RESULT:      -8.0      3.874      5.738
REMARK  4 active torsions:
REMARK  status: ('A' for Active; 'I' for Inactive)
REMARK    1  A    between atoms: C_5  and  N_6 
REMARK    2  A    between atoms: N_10  and  C_11 
REMARK    3  A    between atoms: C_11  and  C_12 
REMARK    4  A    between atoms: C_13  and  O_14 
ROOT
HETATM    1  N   UNL     1       5.954  27.805  55.576  1.00  0.00    -0.312 N 
HETATM    2  C   UNL     1       5.519  26.523  55.954  1.00  0.00     0.253 C 
HETATM    3  O   UNL     1       5.014  26.247  57.045  1.00  0.00    -0.271 OA
HETATM    4  C   UNL     1       5.555  25.431  54.876  1.00  0.00     0.375 C 
HETATM    5  N   UNL     1       6.671  25.523  53.913  1.00  0.00     0.103 N 
HETATM    6  C   UNL     1       6.663  26.869  53.335  1.00  0.00     0.293 C 
HETATM    7  C   UNL     1       6.783  27.982  54.378  1.00  0.00     0.162 C 
ENDROOT
BRANCH   5   8
HETATM    8  C   UNL     1       7.968  25.176  54.521  1.00  0.00     0.314 C 
BRANCH   8   9
HETATM    9  C   UNL     1       8.104  23.692  54.791  1.00  0.00     0.006 A 
HETATM   10  C   UNL     1       8.156  23.178  56.092  1.00  0.00     0.095 A 
HETATM   11  C   UNL     1       8.253  21.798  56.313  1.00  0.00     0.069 A 
HETATM   12 CL   UNL     1       8.306  21.177  57.922  1.00  0.00    -0.081 Cl
HETATM   13  C   UNL     1       8.304  20.912  55.240  1.00  0.00     0.050 A 
HETATM   14  C   UNL     1       8.260  21.415  53.943  1.00  0.00     0.036 A 
HETATM   15 CL   UNL     1       8.317  20.330  52.608  1.00  0.00    -0.084 Cl
HETATM   16  C   UNL     1       8.164  22.788  53.714  1.00  0.00     0.035 A 
BRANCH  10  17
HETATM   17  O   UNL     1       8.101  24.054  57.143  1.00  0.00    -0.358 OA
HETATM   18  H   UNL     1       7.775  24.908  56.801  1.00  0.00     0.218 HD
ENDBRANCH  10  17
ENDBRANCH   8   9
ENDBRANCH   5   8
BRANCH   1  19
HETATM   19  C   UNL     1       5.743  28.895  56.447  1.00  0.00     0.073 A 
HETATM   20  C   UNL     1       4.564  29.624  56.759  1.00  0.00     0.169 A 
HETATM   21  N   UNL     1       4.779  30.622  57.623  1.00  0.00    -0.183 NA
HETATM   22  N   UNL     1       6.093  30.542  57.870  1.00  0.00    -0.283 N 
HETATM   23  C   UNL     1       6.719  31.492  58.757  1.00  0.00     0.179 C 
HETATM   24  C   UNL     1       6.712  29.525  57.203  1.00  0.00     0.143 A 
ENDBRANCH   1  19
TORSDOF 4
ENDMDL
MODEL 4
REMARK VINA RESULT:      -7.9      5.499      7.559
REMARK  4 active torsions:
REMARK  status: ('A' for Active; 'I' for Inactive)
REMARK    1  A    between atoms: C_5  and  N_6 
REMARK    2  A    between atoms: N_10  and  C_11 
REMARK    3  A    between atoms: C_11  and  C_12 
REMARK    4  A    between atoms: C_13  and  O_14 
ROOT
HETATM    1  N   UNL     1       7.056  24.850  55.593  1.00  0.00    -0.312 N 
HETATM    2  C   UNL     1       5.801  25.444  55.371  1.00  0.00     0.253 C 
HETATM    3  O   UNL     1       5.056  25.177  54.423  1.00  0.00    -0.271 OA
HETATM    4  C   UNL     1       5.275  26.387  56.462  1.00  0.00     0.375 C 
HETATM    5  N   UNL     1       6.301  27.186  57.162  1.00  0.00     0.103 N 
HETATM    6  C   UNL     1       7.323  26.269  57.670  1.00  0.00     0.293 C 
HETATM    7  C   UNL     1       7.980  25.420  56.579  1.00  0.00     0.162 C 
ENDROOT
BRANCH   5   8
HETATM    8  C   UNL     1       6.866  28.246  56.307  1.00  0.00     0.314 C 
BRANCH   8   9
HETATM    9  C   UNL     1       7.768  29.190  57.075  1.00  0.00     0.006 A 
HETATM   10  C   UNL     1       7.260  30.110  57.999  1.00  0.00     0.095 A 
HETATM   11  C   UNL     1       8.120  30.952  58.717  1.00  0.00     0.069 A 
HETATM   12 CL   UNL     1       7.482  32.074  59.862  1.00  0.00    -0.081 Cl
HETATM   13  C   UNL     1       9.497  30.892  58.520  1.00  0.00     0.050 A 
HETATM   14  C   UNL     1      10.009  29.985  57.596  1.00  0.00     0.036 A 
HETATM   15 CL   UNL     1      11.710  29.897  57.345  1.00  0.00    -0.084 Cl
HETATM   16  C   UNL     1       9.161  29.143  56.877  1.00  0.00     0.035 A 
BRANCH  10  17
HETATM   17  O   UNL     1       5.905  30.162  58.194  1.00  0.00    -0.358 OA
HETATM   18  H   UNL     1       5.483  29.655  57.475  1.00  0.00     0.218 HD
ENDBRANCH  10  17
ENDBRANCH   8   9
ENDBRANCH   5   8
BRANCH   1  19
HETATM   19  C   UNL     1       7.494  23.814  54.741  1.00  0.00     0.073 A 
HETATM   20  C   UNL     1       7.927  23.840  53.388  1.00  0.00     0.169 A 
HETATM   21  N   UNL     1       8.239  22.629  52.914  1.00  0.00    -0.183 NA
HETATM   22  N   UNL     1       8.009  21.819  53.956  1.00  0.00    -0.283 N 
HETATM   23  C   UNL     1       8.211  20.397  53.823  1.00  0.00     0.179 C 
HETATM   24  C   UNL     1       7.574  22.476  55.071  1.00  0.00     0.143 A 
ENDBRANCH   1  19
TORSDOF 4
ENDMDL
MODEL 5
REMARK VINA RESULT:      -7.9      5.605      8.169
REMARK  4 active torsions:
REMARK  status: ('A' for Active; 'I' for Inactive)
REMARK    1  A    between atoms: C_5  and  N_6 
REMARK    2  A    between atoms: N_10  and  C_11 
REMARK    3  A    between atoms: C_11  and  C_12 
REMARK    4  A    between atoms: C_13  and  O_14 
ROOT
HETATM    1  N   UNL     1       8.150  30.206  57.800  1.00  0.00    -0.312 N 
HETATM    2  C   UNL     1       6.796  30.229  57.423  1.00  0.00     0.253 C 
HETATM    3  O   UNL     1       5.901  30.792  58.059  1.00  0.00    -0.271 OA
HETATM    4  C   UNL     1       6.444  29.628  56.056  1.00  0.00     0.375 C 
HETATM    5  N   UNL     1       7.253  28.461  55.646  1.00  0.00     0.103 N 
HETATM    6  C   UNL     1       8.666  28.833  55.739  1.00  0.00     0.293 C 
HETATM    7  C   UNL     1       9.087  29.292  57.137  1.00  0.00     0.162 C 
ENDROOT
BRANCH   5   8
HETATM    8  C   UNL     1       6.932  27.253  56.429  1.00  0.00     0.314 C 
BRANCH   8   9
HETATM    9  C   UNL     1       7.332  25.978  55.717  1.00  0.00     0.006 A 
HETATM   10  C   UNL     1       7.643  24.806  56.417  1.00  0.00     0.095 A 
HETATM   11  C   UNL     1       7.981  23.632  55.733  1.00  0.00     0.069 A 
HETATM   12 CL   UNL     1       8.351  22.191  56.607  1.00  0.00    -0.081 Cl
HETATM   13  C   UNL     1       8.021  23.611  54.341  1.00  0.00     0.050 A 
HETATM   14  C   UNL     1       7.721  24.774  53.637  1.00  0.00     0.036 A 
HETATM   15 CL   UNL     1       7.762  24.761  51.916  1.00  0.00    -0.084 Cl
HETATM   16  C   UNL     1       7.383  25.948  54.311  1.00  0.00     0.035 A 
BRANCH  10  17
HETATM   17  O   UNL     1       7.597  24.831  57.786  1.00  0.00    -0.358 OA
HETATM   18  H   UNL     1       7.479  23.914  58.095  1.00  0.00     0.218 HD
ENDBRANCH  10  17
ENDBRANCH   8   9
ENDBRANCH   5   8
BRANCH   1  19
HETATM   19  C   UNL     1       8.568  30.932  58.936  1.00  0.00     0.073 A 
HETATM   20  C   UNL     1       9.608  31.885  59.102  1.00  0.00     0.169 A 
HETATM   21  N   UNL     1       9.710  32.336  60.357  1.00  0.00    -0.183 NA
HETATM   22  N   UNL     1       8.740  31.676  61.004  1.00  0.00    -0.283 N 
HETATM   23  C   UNL     1       8.548  31.881  62.419  1.00  0.00     0.179 C 
HETATM   24  C   UNL     1       8.024  30.836  60.201  1.00  0.00     0.143 A 
ENDBRANCH   1  19
TORSDOF 4
ENDMDL
MODEL 6
REMARK VINA RESULT:      -7.6      1.951      2.299
REMARK  4 active torsions:
REMARK  status: ('A' for Active; 'I' for Inactive)
REMARK    1  A    between atoms: C_5  and  N_6 
REMARK    2  A    between atoms: N_10  and  C_11 
REMARK    3  A    between atoms: C_11  and  C_12 
REMARK    4  A    between atoms: C_13  and  O_14 
ROOT
HETATM    1  N   UNL     1       4.844  28.044  51.085  1.00  0.00    -0.312 N 
HETATM    2  C   UNL     1       4.911  27.981  52.487  1.00  0.00     0.253 C 
HETATM    3  O   UNL     1       4.947  28.965  53.232  1.00  0.00    -0.271 OA
HETATM    4  C   UNL     1       4.793  26.592  53.128  1.00  0.00     0.375 C 
HETATM    5  N   UNL     1       5.395  25.483  52.360  1.00  0.00     0.103 N 
HETATM    6  C   UNL     1       4.841  25.516  51.005  1.00  0.00     0.293 C 
HETATM    7  C   UNL     1       5.079  26.840  50.278  1.00  0.00     0.162 C 
ENDROOT
BRANCH   5   8
HETATM    8  C   UNL     1       6.868  25.528  52.370  1.00  0.00     0.314 C 
BRANCH   8   9
HETATM    9  C   UNL     1       7.476  24.444  53.236  1.00  0.00     0.006 A 
HETATM   10  C   UNL     1       7.834  24.676  54.569  1.00  0.00     0.095 A 
HETATM   11  C   UNL     1       8.367  23.648  55.357  1.00  0.00     0.069 A 
HETATM   12 CL   UNL     1       8.794  23.944  57.002  1.00  0.00    -0.081 Cl
HETATM   13  C   UNL     1       8.555  22.375  54.825  1.00  0.00     0.050 A 
HETATM   14  C   UNL     1       8.209  22.137  53.498  1.00  0.00     0.036 A 
HETATM   15 CL   UNL     1       8.433  20.568  52.828  1.00  0.00    -0.084 Cl
HETATM   16  C   UNL     1       7.678  23.156  52.706  1.00  0.00     0.035 A 
BRANCH  10  17
HETATM   17  O   UNL     1       7.641  25.929  55.089  1.00  0.00    -0.358 OA
HETATM   18  H   UNL     1       8.520  26.321  55.250  1.00  0.00     0.218 HD
ENDBRANCH  10  17
ENDBRANCH   8   9
ENDBRANCH   5   8
BRANCH   1  19
HETATM   19  C   UNL     1       4.727  29.299  50.450  1.00  0.00     0.073 A 
HETATM   20  C   UNL     1       3.582  30.043  50.061  1.00  0.00     0.169 A 
HETATM   21  N   UNL     1       3.887  31.193  49.450  1.00  0.00    -0.183 NA
HETATM   22  N   UNL     1       5.227  31.195  49.443  1.00  0.00    -0.283 N 
HETATM   23  C   UNL     1       5.943  32.288  48.831  1.00  0.00     0.179 C 
HETATM   24  C   UNL     1       5.776  30.095  50.035  1.00  0.00     0.143 A 
ENDBRANCH   1  19
TORSDOF 4
ENDMDL
MODEL 7
REMARK VINA RESULT:      -7.6      3.887      7.536
REMARK  4 active torsions:
REMARK  status: ('A' for Active; 'I' for Inactive)
REMARK    1  A    between atoms: C_5  and  N_6 
REMARK    2  A    between atoms: N_10  and  C_11 
REMARK    3  A    between atoms: C_11  and  C_12 
REMARK    4  A    between atoms: C_13  and  O_14 
ROOT
HETATM    1  N   UNL     1       7.375  25.119  54.365  1.00  0.00    -0.312 N 
HETATM    2  C   UNL     1       6.375  25.486  55.282  1.00  0.00     0.253 C 
HETATM    3  O   UNL     1       5.877  24.727  56.118  1.00  0.00    -0.271 OA
HETATM    4  C   UNL     1       5.983  26.969  55.328  1.00  0.00     0.375 C 
HETATM    5  N   UNL     1       6.022  27.678  54.033  1.00  0.00     0.103 N 
HETATM    6  C   UNL     1       7.347  27.475  53.444  1.00  0.00     0.293 C 
HETATM    7  C   UNL     1       7.707  26.002  53.240  1.00  0.00     0.162 C 
ENDROOT
BRANCH   5   8
HETATM    8  C   UNL     1       4.932  27.263  53.131  1.00  0.00     0.314 C 
BRANCH   8   9
HETATM    9  C   UNL     1       5.080  27.838  51.739  1.00  0.00     0.006 A 
HETATM   10  C   UNL     1       4.921  27.051  50.592  1.00  0.00     0.095 A 
HETATM   11  C   UNL     1       5.034  27.615  49.315  1.00  0.00     0.069 A 
HETATM   12 CL   UNL     1       4.826  26.635  47.910  1.00  0.00    -0.081 Cl
HETATM   13  C   UNL     1       5.313  28.970  49.163  1.00  0.00     0.050 A 
HETATM   14  C   UNL     1       5.480  29.759  50.297  1.00  0.00     0.036 A 
HETATM   15 CL   UNL     1       5.820  31.437  50.124  1.00  0.00    -0.084 Cl
HETATM   16  C   UNL     1       5.369  29.205  51.573  1.00  0.00     0.035 A 
BRANCH  10  17
HETATM   17  O   UNL     1       4.643  25.719  50.748  1.00  0.00    -0.358 OA
HETATM   18  H   UNL     1       3.805  25.647  51.243  1.00  0.00     0.218 HD
ENDBRANCH  10  17
ENDBRANCH   8   9
ENDBRANCH   5   8
BRANCH   1  19
HETATM   19  C   UNL     1       7.931  23.824  54.425  1.00  0.00     0.073 A 
HETATM   20  C   UNL     1       8.884  23.259  55.315  1.00  0.00     0.169 A 
HETATM   21  N   UNL     1       9.183  21.988  55.024  1.00  0.00    -0.183 NA
HETATM   22  N   UNL     1       8.427  21.729  53.948  1.00  0.00    -0.283 N 
HETATM   23  C   UNL     1       8.495  20.435  53.314  1.00  0.00     0.179 C 
HETATM   24  C   UNL     1       7.656  22.785  53.558  1.00  0.00     0.143 A 
ENDBRANCH   1  19
TORSDOF 4
ENDMDL
MODEL 8
REMARK VINA RESULT:      -7.3      6.314      8.839
REMARK  4 active torsions:
REMARK  status: ('A' for Active; 'I' for Inactive)
REMARK    1  A    between atoms: C_5  and  N_6 
REMARK    2  A    between atoms: N_10  and  C_11 
REMARK    3  A    between atoms: C_11  and  C_12 
REMARK    4  A    between atoms: C_13  and  O_14 
ROOT
HETATM    1  N   UNL     1       7.287  30.727  58.756  1.00  0.00    -0.312 N 
HETATM    2  C   UNL     1       6.198  30.706  57.868  1.00  0.00     0.253 C 
HETATM    3  O   UNL     1       5.118  31.268  58.069  1.00  0.00    -0.271 OA
HETATM    4  C   UNL     1       6.429  30.050  56.499  1.00  0.00     0.375 C 
HETATM    5  N   UNL     1       7.343  28.889  56.495  1.00  0.00     0.103 N 
HETATM    6  C   UNL     1       8.597  29.297  57.131  1.00  0.00     0.293 C 
HETATM    7  C   UNL     1       8.419  29.813  58.560  1.00  0.00     0.162 C 
ENDROOT
BRANCH   5   8
HETATM    8  C   UNL     1       6.745  27.702  57.132  1.00  0.00     0.314 C 
BRANCH   8   9
HETATM    9  C   UNL     1       6.757  26.489  56.225  1.00  0.00     0.006 A 
HETATM   10  C   UNL     1       5.769  26.281  55.256  1.00  0.00     0.095 A 
HETATM   11  C   UNL     1       5.820  25.165  54.409  1.00  0.00     0.069 A 
HETATM   12 CL   UNL     1       4.601  24.926  53.212  1.00  0.00    -0.081 Cl
HETATM   13  C   UNL     1       6.854  24.240  54.521  1.00  0.00     0.050 A 
HETATM   14  C   UNL     1       7.837  24.435  55.487  1.00  0.00     0.036 A 
HETATM   15 CL   UNL     1       9.123  23.302  55.633  1.00  0.00    -0.084 Cl
HETATM   16  C   UNL     1       7.794  25.544  56.334  1.00  0.00     0.035 A 
BRANCH  10  17
HETATM   17  O   UNL     1       4.756  27.197  55.147  1.00  0.00    -0.358 OA
HETATM   18  H   UNL     1       5.146  28.033  54.827  1.00  0.00     0.218 HD
ENDBRANCH  10  17
ENDBRANCH   8   9
ENDBRANCH   5   8
BRANCH   1  19
HETATM   19  C   UNL     1       7.209  31.501  59.933  1.00  0.00     0.073 A 
HETATM   20  C   UNL     1       6.485  32.688  60.222  1.00  0.00     0.169 A 
HETATM   21  N   UNL     1       6.696  33.142  61.462  1.00  0.00    -0.183 NA
HETATM   22  N   UNL     1       7.556  32.253  61.976  1.00  0.00    -0.283 N 
HETATM   23  C   UNL     1       8.050  32.422  63.321  1.00  0.00     0.179 C 
HETATM   24  C   UNL     1       7.885  31.250  61.111  1.00  0.00     0.143 A 
ENDBRANCH   1  19
TORSDOF 4
ENDMDL
MODEL 9
REMARK VINA RESULT:      -7.3      3.757      7.576
REMARK  4 active torsions:
REMARK  status: ('A' for Active; 'I' for Inactive)
REMARK    1  A    between atoms: C_5  and  N_6 
REMARK    2  A    between atoms: N_10  and  C_11 
REMARK    3  A    between atoms: C_11  and  C_12 
REMARK    4  A    between atoms: C_13  and  O_14 
ROOT
HETATM    1  N   UNL     1       6.306  25.877  54.028  1.00  0.00    -0.312 N 
HETATM    2  C   UNL     1       5.026  25.860  53.447  1.00  0.00     0.253 C 
HETATM    3  O   UNL     1       4.422  24.838  53.110  1.00  0.00    -0.271 OA
HETATM    4  C   UNL     1       4.285  27.202  53.359  1.00  0.00     0.375 C 
HETATM    5  N   UNL     1       5.136  28.384  53.116  1.00  0.00     0.103 N 
HETATM    6  C   UNL     1       6.190  28.402  54.132  1.00  0.00     0.293 C 
HETATM    7  C   UNL     1       7.051  27.137  54.142  1.00  0.00     0.162 C 
ENDROOT
BRANCH   5   8
HETATM    8  C   UNL     1       5.671  28.418  51.743  1.00  0.00     0.314 C 
BRANCH   8   9
HETATM    9  C   UNL     1       4.592  28.248  50.695  1.00  0.00     0.006 A 
HETATM   10  C   UNL     1       4.594  27.172  49.799  1.00  0.00     0.095 A 
HETATM   11  C   UNL     1       3.567  27.022  48.858  1.00  0.00     0.069 A 
HETATM   12 CL   UNL     1       3.575  25.686  47.767  1.00  0.00    -0.081 Cl
HETATM   13  C   UNL     1       2.527  27.946  48.793  1.00  0.00     0.050 A 
HETATM   14  C   UNL     1       2.522  29.023  49.675  1.00  0.00     0.036 A 
HETATM   15 CL   UNL     1       1.240  30.170  49.608  1.00  0.00    -0.084 Cl
HETATM   16  C   UNL     1       3.541  29.180  50.615  1.00  0.00     0.035 A 
BRANCH  10  17
HETATM   17  O   UNL     1       5.617  26.264  49.871  1.00  0.00    -0.358 OA
HETATM   18  H   UNL     1       6.077  26.402  50.720  1.00  0.00     0.218 HD
ENDBRANCH  10  17
ENDBRANCH   8   9
ENDBRANCH   5   8
BRANCH   1  19
HETATM   19  C   UNL     1       6.945  24.657  54.336  1.00  0.00     0.073 A 
HETATM   20  C   UNL     1       6.949  23.882  55.526  1.00  0.00     0.169 A 
HETATM   21  N   UNL     1       7.710  22.786  55.435  1.00  0.00    -0.183 NA
HETATM   22  N   UNL     1       8.199  22.849  54.189  1.00  0.00    -0.283 N 
HETATM   23  C   UNL     1       9.104  21.831  53.717  1.00  0.00     0.179 C 
HETATM   24  C   UNL     1       7.766  23.939  53.489  1.00  0.00     0.143 A 
ENDBRANCH   1  19
TORSDOF 4
ENDMDL
MODEL 10
REMARK VINA RESULT:      -7.3      1.953      2.713
REMARK  4 active torsions:
REMARK  status: ('A' for Active; 'I' for Inactive)
REMARK    1  A    between atoms: C_5  and  N_6 
REMARK    2  A    between atoms: N_10  and  C_11 
REMARK    3  A    between atoms: C_11  and  C_12 
REMARK    4  A    between atoms: C_13  and  O_14 
ROOT
HETATM    1  N   UNL     1       3.540  28.328  49.894  1.00  0.00    -0.312 N 
HETATM    2  C   UNL     1       4.724  27.580  49.779  1.00  0.00     0.253 C 
HETATM    3  O   UNL     1       5.072  26.970  48.764  1.00  0.00    -0.271 OA
HETATM    4  C   UNL     1       5.709  27.649  50.954  1.00  0.00     0.375 C 
HETATM    5  N   UNL     1       5.094  27.763  52.293  1.00  0.00     0.103 N 
HETATM    6  C   UNL     1       4.174  28.901  52.275  1.00  0.00     0.293 C 
HETATM    7  C   UNL     1       3.081  28.788  51.211  1.00  0.00     0.162 C 
ENDROOT
BRANCH   5   8
HETATM    8  C   UNL     1       4.440  26.512  52.718  1.00  0.00     0.314 C 
BRANCH   8   9
HETATM    9  C   UNL     1       5.352  25.633  53.548  1.00  0.00     0.006 A 
HETATM   10  C   UNL     1       5.504  25.818  54.927  1.00  0.00     0.095 A 
HETATM   11  C   UNL     1       6.332  24.972  55.676  1.00  0.00     0.069 A 
HETATM   12 CL   UNL     1       6.502  25.204  57.377  1.00  0.00    -0.081 Cl
HETATM   13  C   UNL     1       7.024  23.933  55.059  1.00  0.00     0.050 A 
HETATM   14  C   UNL     1       6.885  23.746  53.687  1.00  0.00     0.036 A 
HETATM   15 CL   UNL     1       7.731  22.463  52.913  1.00  0.00    -0.084 Cl
HETATM   16  C   UNL     1       6.062  24.585  52.934  1.00  0.00     0.035 A 
BRANCH  10  17
HETATM   17  O   UNL     1       4.817  26.839  55.529  1.00  0.00    -0.358 OA
HETATM   18  H   UNL     1       4.452  27.407  54.825  1.00  0.00     0.218 HD
ENDBRANCH  10  17
ENDBRANCH   8   9
ENDBRANCH   5   8
BRANCH   1  19
HETATM   19  C   UNL     1       2.702  28.482  48.769  1.00  0.00     0.073 A 
HETATM   20  C   UNL     1       2.704  29.452  47.732  1.00  0.00     0.169 A 
HETATM   21  N   UNL     1       1.717  29.274  46.847  1.00  0.00    -0.183 NA
HETATM   22  N   UNL     1       1.076  28.192  47.309  1.00  0.00    -0.283 N 
HETATM   23  C   UNL     1      -0.089  27.694  46.619  1.00  0.00     0.179 C 
HETATM   24  C   UNL     1       1.630  27.676  48.445  1.00  0.00     0.143 A 
ENDBRANCH   1  19
TORSDOF 4
ENDMDL
