MODEL 1
REMARK VINA RESULT:      -9.0      0.000      0.000
REMARK  2 active torsions:
REMARK  status: ('A' for Active; 'I' for Inactive)
REMARK       I    between atoms: C_2  and  N_3 
REMARK    1  A    between atoms: N_3  and  C_4 
REMARK    2  A    between atoms: C_11  and  N_12 
REMARK       I    between atoms: N_12  and  C_13 
ROOT
HETATM    1  C   UNL     1       9.175  31.431  59.335  1.00  0.00     0.035 A 
HETATM    2  C   UNL     1       7.798  31.632  59.444  1.00  0.00     0.038 A 
HETATM    3  C   UNL     1       7.284  32.051  60.664  1.00  0.00    -0.041 A 
HETATM    4  C   UNL     1       8.111  32.276  61.782  1.00  0.00    -0.019 A 
HETATM    5  C   UNL     1       7.287  32.700  62.893  1.00  0.00    -0.019 A 
HETATM    6  C   UNL     1       5.943  32.738  62.473  1.00  0.00    -0.041 A 
HETATM    7  C   UNL     1       4.913  33.111  63.331  1.00  0.00     0.038 A 
HETATM    8  C   UNL     1       5.230  33.453  64.646  1.00  0.00     0.035 A 
HETATM    9  C   UNL     1       6.585  33.423  65.055  1.00  0.00     0.030 A 
HETATM   10  C   UNL     1       7.617  33.044  64.187  1.00  0.00     0.015 A 
HETATM   11  C   UNL     1       5.837  32.331  61.015  1.00  0.00     0.079 A 
HETATM   12  C   UNL     1       9.476  32.081  61.686  1.00  0.00     0.015 A 
HETATM   13  C   UNL     1      10.002  31.658  60.458  1.00  0.00     0.030 A 
ENDROOT
BRANCH   1  14
HETATM   14  N   UNL     1       9.813  31.003  58.151  1.00  0.00    -0.328 N 
HETATM   15  C   UNL     1       9.692  29.775  57.527  1.00  0.00     0.218 C 
HETATM   16  C   UNL     1      10.533  29.676  56.276  1.00  0.00     0.117 C 
HETATM   17  O   UNL     1       8.983  28.837  57.873  1.00  0.00    -0.274 OA
HETATM   18  H   UNL     1      10.423  31.680  57.711  1.00  0.00     0.169 HD
ENDBRANCH   1  14
BRANCH   8  19
HETATM   19  N   UNL     1       4.307  33.853  65.630  1.00  0.00    -0.328 N 
HETATM   20  C   UNL     1       3.822  35.051  66.055  1.00  0.00     0.218 C 
HETATM   21  C   UNL     1       4.194  36.342  65.389  1.00  0.00     0.117 C 
HETATM   22  O   UNL     1       3.039  35.051  67.010  1.00  0.00    -0.274 OA
HETATM   23  H   UNL     1       3.884  33.104  66.168  1.00  0.00     0.169 HD
ENDBRANCH   8  19
TORSDOF 2
ENDMDL
MODEL 2
REMARK VINA RESULT:      -8.8      0.938      8.126
REMARK  2 active torsions:
REMARK  status: ('A' for Active; 'I' for Inactive)
REMARK       I    between atoms: C_2  and  N_3 
REMARK    1  A    between atoms: N_3  and  C_4 
REMARK    2  A    between atoms: C_11  and  N_12 
REMARK       I    between atoms: N_12  and  C_13 
ROOT
HETATM    1  C   UNL     1       5.467  33.507  64.466  1.00  0.00     0.035 A 
HETATM    2  C   UNL     1       5.145  33.230  63.136  1.00  0.00     0.038 A 
HETATM    3  C   UNL     1       6.162  32.838  62.275  1.00  0.00    -0.041 A 
HETATM    4  C   UNL     1       7.496  32.714  62.709  1.00  0.00    -0.019 A 
HETATM    5  C   UNL     1       8.312  32.295  61.591  1.00  0.00    -0.019 A 
HETATM    6  C   UNL     1       7.491  32.158  60.454  1.00  0.00    -0.041 A 
HETATM    7  C   UNL     1       7.998  31.766  59.221  1.00  0.00     0.038 A 
HETATM    8  C   UNL     1       9.364  31.504  59.112  1.00  0.00     0.035 A 
HETATM    9  C   UNL     1      10.180  31.632  60.262  1.00  0.00     0.030 A 
HETATM   10  C   UNL     1       9.663  32.030  61.502  1.00  0.00     0.015 A 
HETATM   11  C   UNL     1       6.052  32.491  60.805  1.00  0.00     0.079 A 
HETATM   12  C   UNL     1       7.827  32.985  64.024  1.00  0.00     0.015 A 
HETATM   13  C   UNL     1       6.806  33.381  64.898  1.00  0.00     0.030 A 
ENDROOT
BRANCH   1  14
HETATM   14  N   UNL     1       4.523  33.916  65.432  1.00  0.00    -0.328 N 
HETATM   15  C   UNL     1       4.079  35.202  65.682  1.00  0.00     0.218 C 
HETATM   16  C   UNL     1       3.064  35.257  66.799  1.00  0.00     0.117 C 
HETATM   17  O   UNL     1       4.404  36.224  65.089  1.00  0.00    -0.274 OA
HETATM   18  H   UNL     1       4.125  33.178  65.998  1.00  0.00     0.169 HD
ENDBRANCH   1  14
BRANCH   8  19
HETATM   19  N   UNL     1      10.027  31.096  57.940  1.00  0.00    -0.328 N 
HETATM   20  C   UNL     1       9.987  29.983  57.158  1.00  0.00     0.218 C 
HETATM   21  C   UNL     1       9.025  28.863  57.414  1.00  0.00     0.117 C 
HETATM   22  O   UNL     1      10.766  29.923  56.201  1.00  0.00    -0.274 OA
HETATM   23  H   UNL     1      10.696  31.757  57.560  1.00  0.00     0.169 HD
ENDBRANCH   8  19
TORSDOF 2
ENDMDL
MODEL 3
REMARK VINA RESULT:      -8.8      5.961     11.778
REMARK  2 active torsions:
REMARK  status: ('A' for Active; 'I' for Inactive)
REMARK       I    between atoms: C_2  and  N_3 
REMARK    1  A    between atoms: N_3  and  C_4 
REMARK    2  A    between atoms: C_11  and  N_12 
REMARK       I    between atoms: N_12  and  C_13 
ROOT
HETATM    1  C   UNL     1       7.224  29.036  57.527  1.00  0.00     0.035 A 
HETATM    2  C   UNL     1       7.471  27.709  57.883  1.00  0.00     0.038 A 
HETATM    3  C   UNL     1       7.574  26.760  56.875  1.00  0.00    -0.041 A 
HETATM    4  C   UNL     1       7.437  27.103  55.515  1.00  0.00    -0.019 A 
HETATM    5  C   UNL     1       7.592  25.907  54.716  1.00  0.00    -0.019 A 
HETATM    6  C   UNL     1       7.824  24.813  55.574  1.00  0.00    -0.041 A 
HETATM    7  C   UNL     1       8.012  23.523  55.090  1.00  0.00     0.038 A 
HETATM    8  C   UNL     1       7.965  23.313  53.712  1.00  0.00     0.035 A 
HETATM    9  C   UNL     1       7.743  24.419  52.856  1.00  0.00     0.030 A 
HETATM   10  C   UNL     1       7.553  25.716  53.350  1.00  0.00     0.015 A 
HETATM   11  C   UNL     1       7.835  25.275  57.020  1.00  0.00     0.079 A 
HETATM   12  C   UNL     1       7.193  28.413  55.150  1.00  0.00     0.015 A 
HETATM   13  C   UNL     1       7.087  29.376  56.162  1.00  0.00     0.030 A 
ENDROOT
BRANCH   1  14
HETATM   14  N   UNL     1       7.096  30.087  58.460  1.00  0.00    -0.328 N 
HETATM   15  C   UNL     1       8.101  30.684  59.200  1.00  0.00     0.218 C 
HETATM   16  C   UNL     1       7.584  31.778  60.103  1.00  0.00     0.117 C 
HETATM   17  O   UNL     1       9.299  30.427  59.159  1.00  0.00    -0.274 OA
HETATM   18  H   UNL     1       6.159  30.444  58.594  1.00  0.00     0.169 HD
ENDBRANCH   1  14
BRANCH   8  19
HETATM   19  N   UNL     1       8.138  22.073  53.068  1.00  0.00    -0.328 N 
HETATM   20  C   UNL     1       8.183  20.779  53.485  1.00  0.00     0.218 C 
HETATM   21  C   UNL     1       7.944  20.392  54.913  1.00  0.00     0.117 C 
HETATM   22  O   UNL     1       8.413  19.908  52.639  1.00  0.00    -0.274 OA
HETATM   23  H   UNL     1       8.260  22.113  52.062  1.00  0.00     0.169 HD
ENDBRANCH   8  19
TORSDOF 2
ENDMDL
MODEL 4
REMARK VINA RESULT:      -8.6      1.511      8.199
REMARK  2 active torsions:
REMARK  status: ('A' for Active; 'I' for Inactive)
REMARK       I    between atoms: C_2  and  N_3 
REMARK    1  A    between atoms: N_3  and  C_4 
REMARK    2  A    between atoms: C_11  and  N_12 
REMARK       I    between atoms: N_12  and  C_13 
ROOT
HETATM    1  C   UNL     1       6.681  33.991  64.790  1.00  0.00     0.035 A 
HETATM    2  C   UNL     1       7.611  32.998  64.474  1.00  0.00     0.038 A 
HETATM    3  C   UNL     1       7.631  32.497  63.180  1.00  0.00    -0.041 A 
HETATM    4  C   UNL     1       6.745  32.963  62.188  1.00  0.00    -0.019 A 
HETATM    5  C   UNL     1       7.010  32.252  60.956  1.00  0.00    -0.019 A 
HETATM    6  C   UNL     1       8.060  31.338  61.175  1.00  0.00    -0.041 A 
HETATM    7  C   UNL     1       8.537  30.508  60.167  1.00  0.00     0.038 A 
HETATM    8  C   UNL     1       7.951  30.586  58.903  1.00  0.00     0.035 A 
HETATM    9  C   UNL     1       6.904  31.515  58.689  1.00  0.00     0.030 A 
HETATM   10  C   UNL     1       6.427  32.347  59.710  1.00  0.00     0.015 A 
HETATM   11  C   UNL     1       8.542  31.427  62.612  1.00  0.00     0.079 A 
HETATM   12  C   UNL     1       5.821  33.945  62.489  1.00  0.00     0.015 A 
HETATM   13  C   UNL     1       5.794  34.456  63.793  1.00  0.00     0.030 A 
ENDROOT
BRANCH   1  14
HETATM   14  N   UNL     1       6.562  34.574  66.070  1.00  0.00    -0.328 N 
HETATM   15  C   UNL     1       5.497  34.470  66.946  1.00  0.00     0.218 C 
HETATM   16  C   UNL     1       5.725  35.236  68.227  1.00  0.00     0.117 C 
HETATM   17  O   UNL     1       4.468  33.825  66.783  1.00  0.00    -0.274 OA
HETATM   18  H   UNL     1       7.353  35.125  66.377  1.00  0.00     0.169 HD
ENDBRANCH   1  14
BRANCH   8  19
HETATM   19  N   UNL     1       8.321  29.820  57.782  1.00  0.00    -0.328 N 
HETATM   20  C   UNL     1       9.455  29.697  57.041  1.00  0.00     0.218 C 
HETATM   21  C   UNL     1      10.721  30.416  57.397  1.00  0.00     0.117 C 
HETATM   22  O   UNL     1       9.423  28.951  56.057  1.00  0.00    -0.274 OA
HETATM   23  H   UNL     1       7.603  29.205  57.413  1.00  0.00     0.169 HD
ENDBRANCH   8  19
TORSDOF 2
ENDMDL
MODEL 5
REMARK VINA RESULT:      -8.3      5.613      8.949
REMARK  2 active torsions:
REMARK  status: ('A' for Active; 'I' for Inactive)
REMARK       I    between atoms: C_2  and  N_3 
REMARK    1  A    between atoms: N_3  and  C_4 
REMARK    2  A    between atoms: C_11  and  N_12 
REMARK       I    between atoms: N_12  and  C_13 
ROOT
HETATM    1  C   UNL     1       7.499  23.813  54.068  1.00  0.00     0.035 A 
HETATM    2  C   UNL     1       7.777  24.064  55.413  1.00  0.00     0.038 A 
HETATM    3  C   UNL     1       7.614  25.357  55.893  1.00  0.00    -0.041 A 
HETATM    4  C   UNL     1       7.178  26.409  55.063  1.00  0.00    -0.019 A 
HETATM    5  C   UNL     1       7.110  27.622  55.848  1.00  0.00    -0.019 A 
HETATM    6  C   UNL     1       7.505  27.333  57.168  1.00  0.00    -0.041 A 
HETATM    7  C   UNL     1       7.541  28.310  58.158  1.00  0.00     0.038 A 
HETATM    8  C   UNL     1       7.176  29.614  57.823  1.00  0.00     0.035 A 
HETATM    9  C   UNL     1       6.770  29.894  56.496  1.00  0.00     0.030 A 
HETATM   10  C   UNL     1       6.737  28.905  55.503  1.00  0.00     0.015 A 
HETATM   11  C   UNL     1       7.853  25.862  57.301  1.00  0.00     0.079 A 
HETATM   12  C   UNL     1       6.899  26.172  53.730  1.00  0.00     0.015 A 
HETATM   13  C   UNL     1       7.062  24.870  53.238  1.00  0.00     0.030 A 
ENDROOT
BRANCH   1  14
HETATM   14  N   UNL     1       7.630  22.544  53.465  1.00  0.00    -0.328 N 
HETATM   15  C   UNL     1       8.617  21.602  53.693  1.00  0.00     0.218 C 
HETATM   16  C   UNL     1       8.433  20.357  52.858  1.00  0.00     0.117 C 
HETATM   17  O   UNL     1       9.548  21.685  54.485  1.00  0.00    -0.274 OA
HETATM   18  H   UNL     1       6.913  22.299  52.795  1.00  0.00     0.169 HD
ENDBRANCH   1  14
BRANCH   8  19
HETATM   19  N   UNL     1       7.157  30.709  58.707  1.00  0.00    -0.328 N 
HETATM   20  C   UNL     1       8.103  31.551  59.206  1.00  0.00     0.218 C 
HETATM   21  C   UNL     1       9.535  31.488  58.771  1.00  0.00     0.117 C 
HETATM   22  O   UNL     1       7.743  32.398  60.031  1.00  0.00    -0.274 OA
HETATM   23  H   UNL     1       6.247  30.959  59.079  1.00  0.00     0.169 HD
ENDBRANCH   8  19
TORSDOF 2
ENDMDL
MODEL 6
REMARK VINA RESULT:      -8.1      1.448      8.024
REMARK  2 active torsions:
REMARK  status: ('A' for Active; 'I' for Inactive)
REMARK       I    between atoms: C_2  and  N_3 
REMARK    1  A    between atoms: N_3  and  C_4 
REMARK    2  A    between atoms: C_11  and  N_12 
REMARK       I    between atoms: N_12  and  C_13 
ROOT
HETATM    1  C   UNL     1       6.331  34.055  64.161  1.00  0.00     0.035 A 
HETATM    2  C   UNL     1       5.749  33.926  62.898  1.00  0.00     0.038 A 
HETATM    3  C   UNL     1       6.400  33.154  61.945  1.00  0.00    -0.041 A 
HETATM    4  C   UNL     1       7.620  32.504  62.219  1.00  0.00    -0.019 A 
HETATM    5  C   UNL     1       8.042  31.787  61.036  1.00  0.00    -0.019 A 
HETATM    6  C   UNL     1       7.089  31.989  60.018  1.00  0.00    -0.041 A 
HETATM    7  C   UNL     1       7.226  31.419  58.757  1.00  0.00     0.038 A 
HETATM    8  C   UNL     1       8.346  30.629  58.498  1.00  0.00     0.035 A 
HETATM    9  C   UNL     1       9.293  30.423  59.530  1.00  0.00     0.030 A 
HETATM   10  C   UNL     1       9.150  31.001  60.799  1.00  0.00     0.015 A 
HETATM   11  C   UNL     1       5.963  32.874  60.521  1.00  0.00     0.079 A 
HETATM   12  C   UNL     1       8.205  32.625  63.466  1.00  0.00     0.015 A 
HETATM   13  C   UNL     1       7.555  33.402  64.433  1.00  0.00     0.030 A 
ENDROOT
BRANCH   1  14
HETATM   14  N   UNL     1       5.768  34.814  65.209  1.00  0.00    -0.328 N 
HETATM   15  C   UNL     1       4.450  34.825  65.626  1.00  0.00     0.218 C 
HETATM   16  C   UNL     1       4.215  35.770  66.781  1.00  0.00     0.117 C 
HETATM   17  O   UNL     1       3.528  34.153  65.177  1.00  0.00    -0.274 OA
HETATM   18  H   UNL     1       6.411  35.412  65.713  1.00  0.00     0.169 HD
ENDBRANCH   1  14
BRANCH   8  19
HETATM   19  N   UNL     1       8.627  29.984  57.280  1.00  0.00    -0.328 N 
HETATM   20  C   UNL     1       8.186  28.846  56.677  1.00  0.00     0.218 C 
HETATM   21  C   UNL     1       7.103  27.998  57.272  1.00  0.00     0.117 C 
HETATM   22  O   UNL     1       8.697  28.530  55.597  1.00  0.00    -0.274 OA
HETATM   23  H   UNL     1       9.311  30.442  56.686  1.00  0.00     0.169 HD
ENDBRANCH   8  19
TORSDOF 2
ENDMDL
MODEL 7
REMARK VINA RESULT:      -8.0      6.327     11.643
REMARK  2 active torsions:
REMARK  status: ('A' for Active; 'I' for Inactive)
REMARK       I    between atoms: C_2  and  N_3 
REMARK    1  A    between atoms: N_3  and  C_4 
REMARK    2  A    between atoms: C_11  and  N_12 
REMARK       I    between atoms: N_12  and  C_13 
ROOT
HETATM    1  C   UNL     1       5.916  28.905  57.418  1.00  0.00     0.035 A 
HETATM    2  C   UNL     1       5.353  28.065  56.456  1.00  0.00     0.038 A 
HETATM    3  C   UNL     1       6.039  26.912  56.100  1.00  0.00    -0.041 A 
HETATM    4  C   UNL     1       7.278  26.574  56.681  1.00  0.00    -0.019 A 
HETATM    5  C   UNL     1       7.737  25.328  56.107  1.00  0.00    -0.019 A 
HETATM    6  C   UNL     1       6.789  24.885  55.164  1.00  0.00    -0.041 A 
HETATM    7  C   UNL     1       6.959  23.707  54.444  1.00  0.00     0.038 A 
HETATM    8  C   UNL     1       8.109  22.949  54.667  1.00  0.00     0.035 A 
HETATM    9  C   UNL     1       9.051  23.395  55.624  1.00  0.00     0.030 A 
HETATM   10  C   UNL     1       8.874  24.584  56.345  1.00  0.00     0.015 A 
HETATM   11  C   UNL     1       5.628  25.861  55.089  1.00  0.00     0.079 A 
HETATM   12  C   UNL     1       7.845  27.398  57.634  1.00  0.00     0.015 A 
HETATM   13  C   UNL     1       7.158  28.564  57.999  1.00  0.00     0.030 A 
ENDROOT
BRANCH   1  14
HETATM   14  N   UNL     1       5.316  30.105  57.858  1.00  0.00    -0.328 N 
HETATM   15  C   UNL     1       5.078  31.248  57.117  1.00  0.00     0.218 C 
HETATM   16  C   UNL     1       4.419  32.337  57.929  1.00  0.00     0.117 C 
HETATM   17  O   UNL     1       5.319  31.421  55.928  1.00  0.00    -0.274 OA
HETATM   18  H   UNL     1       5.023  30.120  58.827  1.00  0.00     0.169 HD
ENDBRANCH   1  14
BRANCH   8  19
HETATM   19  N   UNL     1       8.425  21.737  54.024  1.00  0.00    -0.328 N 
HETATM   20  C   UNL     1       8.592  20.452  54.438  1.00  0.00     0.218 C 
HETATM   21  C   UNL     1       8.356  20.035  55.858  1.00  0.00     0.117 C 
HETATM   22  O   UNL     1       8.932  19.614  53.595  1.00  0.00    -0.274 OA
HETATM   23  H   UNL     1       8.568  21.795  53.021  1.00  0.00     0.169 HD
ENDBRANCH   8  19
TORSDOF 2
ENDMDL
MODEL 8
REMARK VINA RESULT:      -7.8     11.414     12.843
REMARK  2 active torsions:
REMARK  status: ('A' for Active; 'I' for Inactive)
REMARK       I    between atoms: C_2  and  N_3 
REMARK    1  A    between atoms: N_3  and  C_4 
REMARK    2  A    between atoms: C_11  and  N_12 
REMARK       I    between atoms: N_12  and  C_13 
ROOT
HETATM    1  C   UNL     1       7.688  23.431  54.888  1.00  0.00     0.035 A 
HETATM    2  C   UNL     1       7.797  23.766  53.537  1.00  0.00     0.038 A 
HETATM    3  C   UNL     1       6.979  24.770  53.035  1.00  0.00    -0.041 A 
HETATM    4  C   UNL     1       6.054  25.453  53.850  1.00  0.00    -0.019 A 
HETATM    5  C   UNL     1       5.357  26.431  53.043  1.00  0.00    -0.019 A 
HETATM    6  C   UNL     1       5.843  26.361  51.723  1.00  0.00    -0.041 A 
HETATM    7  C   UNL     1       5.358  27.187  50.714  1.00  0.00     0.038 A 
HETATM    8  C   UNL     1       4.357  28.107  51.027  1.00  0.00     0.035 A 
HETATM    9  C   UNL     1       3.883  28.178  52.359  1.00  0.00     0.030 A 
HETATM   10  C   UNL     1       4.374  27.342  53.370  1.00  0.00     0.015 A 
HETATM   11  C   UNL     1       6.921  25.298  51.616  1.00  0.00     0.079 A 
HETATM   12  C   UNL     1       5.937  25.130  55.189  1.00  0.00     0.015 A 
HETATM   13  C   UNL     1       6.758  24.117  55.702  1.00  0.00     0.030 A 
ENDROOT
BRANCH   1  14
HETATM   14  N   UNL     1       8.460  22.427  55.511  1.00  0.00    -0.328 N 
HETATM   15  C   UNL     1       8.399  21.063  55.294  1.00  0.00     0.218 C 
HETATM   16  C   UNL     1       9.379  20.296  56.149  1.00  0.00     0.117 C 
HETATM   17  O   UNL     1       7.680  20.474  54.495  1.00  0.00    -0.274 OA
HETATM   18  H   UNL     1       9.137  22.751  56.189  1.00  0.00     0.169 HD
ENDBRANCH   1  14
BRANCH   8  19
HETATM   19  N   UNL     1       3.767  29.010  50.124  1.00  0.00    -0.328 N 
HETATM   20  C   UNL     1       2.940  28.885  49.051  1.00  0.00     0.218 C 
HETATM   21  C   UNL     1       2.371  27.563  48.633  1.00  0.00     0.117 C 
HETATM   22  O   UNL     1       2.647  29.910  48.425  1.00  0.00    -0.274 OA
HETATM   23  H   UNL     1       3.984  29.990  50.275  1.00  0.00     0.169 HD
ENDBRANCH   8  19
TORSDOF 2
ENDMDL
MODEL 9
REMARK VINA RESULT:      -7.8      5.447     10.519
REMARK  2 active torsions:
REMARK  status: ('A' for Active; 'I' for Inactive)
REMARK       I    between atoms: C_2  and  N_3 
REMARK    1  A    between atoms: N_3  and  C_4 
REMARK    2  A    between atoms: C_11  and  N_12 
REMARK       I    between atoms: N_12  and  C_13 
ROOT
HETATM    1  C   UNL     1       6.032  30.542  57.781  1.00  0.00     0.035 A 
HETATM    2  C   UNL     1       5.279  29.595  57.084  1.00  0.00     0.038 A 
HETATM    3  C   UNL     1       5.814  28.328  56.899  1.00  0.00    -0.041 A 
HETATM    4  C   UNL     1       7.086  27.978  57.396  1.00  0.00    -0.019 A 
HETATM    5  C   UNL     1       7.360  26.602  57.044  1.00  0.00    -0.019 A 
HETATM    6  C   UNL     1       6.263  26.089  56.325  1.00  0.00    -0.041 A 
HETATM    7  C   UNL     1       6.238  24.782  55.851  1.00  0.00     0.038 A 
HETATM    8  C   UNL     1       7.340  23.961  56.095  1.00  0.00     0.035 A 
HETATM    9  C   UNL     1       8.434  24.482  56.828  1.00  0.00     0.030 A 
HETATM   10  C   UNL     1       8.453  25.801  57.302  1.00  0.00     0.015 A 
HETATM   11  C   UNL     1       5.187  27.150  56.181  1.00  0.00     0.079 A 
HETATM   12  C   UNL     1       7.840  28.907  58.088  1.00  0.00     0.015 A 
HETATM   13  C   UNL     1       7.307  30.188  58.278  1.00  0.00     0.030 A 
ENDROOT
BRANCH   1  14
HETATM   14  N   UNL     1       5.597  31.862  58.028  1.00  0.00    -0.328 N 
HETATM   15  C   UNL     1       4.504  32.262  58.776  1.00  0.00     0.218 C 
HETATM   16  C   UNL     1       4.347  33.763  58.815  1.00  0.00     0.117 C 
HETATM   17  O   UNL     1       3.724  31.540  59.388  1.00  0.00    -0.274 OA
HETATM   18  H   UNL     1       6.158  32.594  57.613  1.00  0.00     0.169 HD
ENDBRANCH   1  14
BRANCH   8  19
HETATM   19  N   UNL     1       7.467  22.621  55.686  1.00  0.00    -0.328 N 
HETATM   20  C   UNL     1       7.745  22.004  54.505  1.00  0.00     0.218 C 
HETATM   21  C   UNL     1       8.089  22.774  53.266  1.00  0.00     0.117 C 
HETATM   22  O   UNL     1       7.724  20.769  54.481  1.00  0.00    -0.274 OA
HETATM   23  H   UNL     1       7.326  21.924  56.410  1.00  0.00     0.169 HD
ENDBRANCH   8  19
TORSDOF 2
ENDMDL
MODEL 10
REMARK VINA RESULT:      -7.8      5.608      8.301
REMARK  2 active torsions:
REMARK  status: ('A' for Active; 'I' for Inactive)
REMARK       I    between atoms: C_2  and  N_3 
REMARK    1  A    between atoms: N_3  and  C_4 
REMARK    2  A    between atoms: C_11  and  N_12 
REMARK       I    between atoms: N_12  and  C_13 
ROOT
HETATM    1  C   UNL     1       7.469  23.761  55.513  1.00  0.00     0.035 A 
HETATM    2  C   UNL     1       6.597  24.749  55.051  1.00  0.00     0.038 A 
HETATM    3  C   UNL     1       6.641  26.003  55.645  1.00  0.00    -0.041 A 
HETATM    4  C   UNL     1       7.536  26.298  56.693  1.00  0.00    -0.019 A 
HETATM    5  C   UNL     1       7.340  27.673  57.098  1.00  0.00    -0.019 A 
HETATM    6  C   UNL     1       6.321  28.240  56.307  1.00  0.00    -0.041 A 
HETATM    7  C   UNL     1       5.909  29.558  56.469  1.00  0.00     0.038 A 
HETATM    8  C   UNL     1       6.527  30.336  57.448  1.00  0.00     0.035 A 
HETATM    9  C   UNL     1       7.558  29.762  58.231  1.00  0.00     0.030 A 
HETATM   10  C   UNL     1       7.967  28.432  58.064  1.00  0.00     0.015 A 
HETATM   11  C   UNL     1       5.798  27.217  55.314  1.00  0.00     0.079 A 
HETATM   12  C   UNL     1       8.404  25.329  57.158  1.00  0.00     0.015 A 
HETATM   13  C   UNL     1       8.366  24.061  56.563  1.00  0.00     0.030 A 
ENDROOT
BRANCH   1  14
HETATM   14  N   UNL     1       7.516  22.451  54.991  1.00  0.00    -0.328 N 
HETATM   15  C   UNL     1       7.862  22.067  53.708  1.00  0.00     0.218 C 
HETATM   16  C   UNL     1       7.794  20.572  53.513  1.00  0.00     0.117 C 
HETATM   17  O   UNL     1       8.221  22.797  52.791  1.00  0.00    -0.274 OA
HETATM   18  H   UNL     1       7.274  21.711  55.638  1.00  0.00     0.169 HD
ENDBRANCH   1  14
BRANCH   8  19
HETATM   19  N   UNL     1       6.228  31.682  57.732  1.00  0.00    -0.328 N 
HETATM   20  C   UNL     1       5.154  32.331  58.257  1.00  0.00     0.218 C 
HETATM   21  C   UNL     1       3.951  31.598  58.770  1.00  0.00     0.117 C 
HETATM   22  O   UNL     1       5.199  33.564  58.320  1.00  0.00    -0.274 OA
HETATM   23  H   UNL     1       6.956  32.351  57.508  1.00  0.00     0.169 HD
ENDBRANCH   8  19
TORSDOF 2
ENDMDL
