MODEL 1
REMARK VINA RESULT:     -11.4      0.000      0.000
REMARK  6 active torsions:
REMARK  status: ('A' for Active; 'I' for Inactive)
REMARK    1  A    between atoms: C_5  and  C_6 
REMARK    2  A    between atoms: C_6  and  N_7 
REMARK       I    between atoms: N_7  and  C_8 
REMARK    3  A    between atoms: C_8  and  C_9 
REMARK    4  A    between atoms: C_10  and  N_11 
REMARK    5  A    between atoms: N_12  and  C_13 
REMARK    6  A    between atoms: C_16  and  N_17 
REMARK       I    between atoms: N_17  and  C_18 
ROOT
HETATM    1  C   UNL     1       5.840  25.680  53.349  1.00  0.00     0.103 C 
HETATM    2  C   UNL     1       5.360  26.335  54.481  1.00  0.00     0.105 C 
HETATM    3  N   UNL     1       6.262  26.013  55.501  1.00  0.00    -0.284 N 
HETATM    4  C   UNL     1       6.645  24.702  55.238  1.00  0.00     0.166 A 
HETATM    5  C   UNL     1       6.500  24.531  53.859  1.00  0.00     0.123 A 
HETATM    6  N   UNL     1       6.974  23.421  53.239  1.00  0.00    -0.242 NA
HETATM    7  C   UNL     1       7.488  22.491  54.058  1.00  0.00     0.086 A 
HETATM    8  C   UNL     1       7.577  22.669  55.464  1.00  0.00     0.088 A 
HETATM    9  N   UNL     1       7.185  23.794  56.082  1.00  0.00    -0.226 NA
HETATM   10  C   UNL     1       7.944  21.303  53.503  1.00  0.00     0.034 A 
HETATM   11  C   UNL     1       8.467  20.278  54.293  1.00  0.00     0.002 A 
HETATM   12  C   UNL     1       8.537  20.445  55.669  1.00  0.00     0.002 A 
HETATM   13  C   UNL     1       8.097  21.639  56.239  1.00  0.00     0.034 A 
ENDROOT
BRANCH   1  14
HETATM   14  C   UNL     1       5.688  26.123  51.969  1.00  0.00     0.257 C 
HETATM   15  N   UNL     1       4.664  27.038  51.816  1.00  0.00    -0.352 N 
HETATM   16  H   UNL     1       4.164  27.276  52.663  1.00  0.00     0.163 HD
HETATM   17  O   UNL     1       6.460  25.833  51.063  1.00  0.00    -0.267 OA
BRANCH  15  18
HETATM   18  C   UNL     1       4.708  28.058  50.797  1.00  0.00     0.161 C 
BRANCH  18  19
HETATM   19  C   UNL     1       3.650  27.805  49.746  1.00  0.00    -0.041 A 
HETATM   20  C   UNL     1       3.798  26.771  48.806  1.00  0.00     0.009 A 
HETATM   21  C   UNL     1       2.848  26.575  47.800  1.00  0.00     0.007 A 
HETATM   22  C   UNL     1       1.719  27.396  47.727  1.00  0.00    -0.062 A 
HETATM   23  C   UNL     1       0.697  27.176  46.650  1.00  0.00     0.048 C 
HETATM   24  C   UNL     1       1.538  28.389  48.695  1.00  0.00     0.007 A 
HETATM   25  C   UNL     1       2.497  28.597  49.691  1.00  0.00     0.009 A 
ENDBRANCH  18  19
ENDBRANCH  15  18
ENDBRANCH   1  14
BRANCH   2  26
HETATM   26  N   UNL     1       4.348  27.240  54.616  1.00  0.00    -0.287 NA
HETATM   27  H   UNL     1       3.747  27.159  55.441  1.00  0.00     0.125 HD
HETATM   28  H   UNL     1       4.568  28.226  54.457  1.00  0.00     0.125 HD
ENDBRANCH   2  26
BRANCH   3  29
HETATM   29  C   UNL     1       6.879  26.938  56.412  1.00  0.00     0.042 A 
HETATM   30  C   UNL     1       6.099  27.896  57.078  1.00  0.00     0.032 A 
HETATM   31  C   UNL     1       6.686  28.986  57.730  1.00  0.00     0.032 A 
HETATM   32  C   UNL     1       8.065  29.157  57.719  1.00  0.00     0.034 A 
HETATM   33  C   UNL     1       8.855  28.160  57.135  1.00  0.00     0.032 A 
HETATM   34  C   UNL     1       8.271  27.060  56.488  1.00  0.00     0.032 A 
BRANCH  32  35
HETATM   35  N   UNL     1       8.708  30.321  58.186  1.00  0.00    -0.328 N 
HETATM   36  C   UNL     1       8.909  30.688  59.506  1.00  0.00     0.218 C 
HETATM   37  C   UNL     1       9.386  32.111  59.636  1.00  0.00     0.117 C 
HETATM   38  O   UNL     1       8.741  29.992  60.503  1.00  0.00    -0.274 OA
HETATM   39  H   UNL     1       8.967  30.998  57.480  1.00  0.00     0.169 HD
ENDBRANCH  32  35
ENDBRANCH   3  29
TORSDOF 6
ENDMDL
MODEL 2
REMARK VINA RESULT:     -11.2      1.954      8.499
REMARK  6 active torsions:
REMARK  status: ('A' for Active; 'I' for Inactive)
REMARK    1  A    between atoms: C_5  and  C_6 
REMARK    2  A    between atoms: C_6  and  N_7 
REMARK       I    between atoms: N_7  and  C_8 
REMARK    3  A    between atoms: C_8  and  C_9 
REMARK    4  A    between atoms: C_10  and  N_11 
REMARK    5  A    between atoms: N_12  and  C_13 
REMARK    6  A    between atoms: C_16  and  N_17 
REMARK       I    between atoms: N_17  and  C_18 
ROOT
HETATM    1  C   UNL     1       6.810  26.661  55.064  1.00  0.00     0.103 C 
HETATM    2  C   UNL     1       7.107  27.328  53.878  1.00  0.00     0.105 C 
HETATM    3  N   UNL     1       6.815  26.413  52.860  1.00  0.00    -0.284 N 
HETATM    4  C   UNL     1       7.169  25.174  53.382  1.00  0.00     0.166 A 
HETATM    5  C   UNL     1       7.043  25.292  54.768  1.00  0.00     0.123 A 
HETATM    6  N   UNL     1       7.127  24.202  55.572  1.00  0.00    -0.242 NA
HETATM    7  C   UNL     1       7.430  23.057  54.944  1.00  0.00     0.086 A 
HETATM    8  C   UNL     1       7.605  22.973  53.538  1.00  0.00     0.088 A 
HETATM    9  N   UNL     1       7.447  24.027  52.720  1.00  0.00    -0.226 NA
HETATM   10  C   UNL     1       7.589  21.908  55.708  1.00  0.00     0.034 A 
HETATM   11  C   UNL     1       7.931  20.684  55.129  1.00  0.00     0.002 A 
HETATM   12  C   UNL     1       8.118  20.607  53.756  1.00  0.00     0.002 A 
HETATM   13  C   UNL     1       7.949  21.751  52.975  1.00  0.00     0.034 A 
ENDROOT
BRANCH   1  14
HETATM   14  C   UNL     1       6.349  27.273  56.304  1.00  0.00     0.257 C 
HETATM   15  N   UNL     1       6.890  28.529  56.508  1.00  0.00    -0.352 N 
HETATM   16  H   UNL     1       7.521  28.852  55.785  1.00  0.00     0.163 HD
HETATM   17  O   UNL     1       5.478  26.801  57.024  1.00  0.00    -0.267 OA
BRANCH  15  18
HETATM   18  C   UNL     1       6.174  29.552  57.230  1.00  0.00     0.161 C 
BRANCH  18  19
HETATM   19  C   UNL     1       7.088  30.245  58.215  1.00  0.00    -0.041 A 
HETATM   20  C   UNL     1       8.386  29.766  58.459  1.00  0.00     0.009 A 
HETATM   21  C   UNL     1       9.208  30.373  59.411  1.00  0.00     0.007 A 
HETATM   22  C   UNL     1       8.757  31.488  60.124  1.00  0.00    -0.062 A 
HETATM   23  C   UNL     1       9.648  32.141  61.140  1.00  0.00     0.048 C 
HETATM   24  C   UNL     1       7.488  32.004  59.844  1.00  0.00     0.007 A 
HETATM   25  C   UNL     1       6.658  31.386  58.903  1.00  0.00     0.009 A 
ENDBRANCH  18  19
ENDBRANCH  15  18
ENDBRANCH   1  14
BRANCH   2  26
HETATM   26  N   UNL     1       7.447  28.631  53.658  1.00  0.00    -0.287 NA
HETATM   27  H   UNL     1       8.392  28.822  53.313  1.00  0.00     0.125 HD
HETATM   28  H   UNL     1       6.780  29.217  53.150  1.00  0.00     0.125 HD
ENDBRANCH   2  26
BRANCH   3  29
HETATM   29  C   UNL     1       6.034  26.675  51.681  1.00  0.00     0.042 A 
HETATM   30  C   UNL     1       5.693  27.994  51.342  1.00  0.00     0.032 A 
HETATM   31  C   UNL     1       4.705  28.267  50.391  1.00  0.00     0.032 A 
HETATM   32  C   UNL     1       4.019  27.232  49.768  1.00  0.00     0.034 A 
HETATM   33  C   UNL     1       4.414  25.916  50.034  1.00  0.00     0.032 A 
HETATM   34  C   UNL     1       5.412  25.637  50.979  1.00  0.00     0.032 A 
BRANCH  32  35
HETATM   35  N   UNL     1       2.890  27.429  48.947  1.00  0.00    -0.328 N 
HETATM   36  C   UNL     1       2.792  27.177  47.590  1.00  0.00     0.218 C 
HETATM   37  C   UNL     1       1.536  27.754  46.991  1.00  0.00     0.117 C 
HETATM   38  O   UNL     1       3.593  26.563  46.890  1.00  0.00    -0.274 OA
HETATM   39  H   UNL     1       2.100  27.889  49.384  1.00  0.00     0.169 HD
ENDBRANCH  32  35
ENDBRANCH   3  29
TORSDOF 6
ENDMDL
MODEL 3
REMARK VINA RESULT:     -11.0      2.231      8.841
REMARK  6 active torsions:
REMARK  status: ('A' for Active; 'I' for Inactive)
REMARK    1  A    between atoms: C_5  and  C_6 
REMARK    2  A    between atoms: C_6  and  N_7 
REMARK       I    between atoms: N_7  and  C_8 
REMARK    3  A    between atoms: C_8  and  C_9 
REMARK    4  A    between atoms: C_10  and  N_11 
REMARK    5  A    between atoms: N_12  and  C_13 
REMARK    6  A    between atoms: C_16  and  N_17 
REMARK       I    between atoms: N_17  and  C_18 
ROOT
HETATM    1  C   UNL     1       6.448  27.140  56.884  1.00  0.00     0.103 C 
HETATM    2  C   UNL     1       5.472  26.519  56.107  1.00  0.00     0.105 C 
HETATM    3  N   UNL     1       4.958  27.530  55.289  1.00  0.00    -0.284 N 
HETATM    4  C   UNL     1       4.973  28.673  56.080  1.00  0.00     0.166 A 
HETATM    5  C   UNL     1       6.000  28.481  57.009  1.00  0.00     0.123 A 
HETATM    6  N   UNL     1       6.414  29.494  57.812  1.00  0.00    -0.242 NA
HETATM    7  C   UNL     1       5.705  30.627  57.705  1.00  0.00     0.086 A 
HETATM    8  C   UNL     1       4.631  30.779  56.789  1.00  0.00     0.088 A 
HETATM    9  N   UNL     1       4.261  29.813  55.932  1.00  0.00    -0.226 NA
HETATM   10  C   UNL     1       6.033  31.691  58.535  1.00  0.00     0.034 A 
HETATM   11  C   UNL     1       5.323  32.893  58.501  1.00  0.00     0.002 A 
HETATM   12  C   UNL     1       4.263  33.035  57.617  1.00  0.00     0.002 A 
HETATM   13  C   UNL     1       3.931  31.979  56.768  1.00  0.00     0.034 A 
ENDROOT
BRANCH   1  14
HETATM   14  C   UNL     1       7.653  26.515  57.415  1.00  0.00     0.257 C 
HETATM   15  N   UNL     1       7.503  25.154  57.606  1.00  0.00    -0.352 N 
HETATM   16  H   UNL     1       6.596  24.777  57.357  1.00  0.00     0.163 HD
HETATM   17  O   UNL     1       8.725  27.090  57.552  1.00  0.00    -0.267 OA
BRANCH  15  18
HETATM   18  C   UNL     1       8.620  24.247  57.492  1.00  0.00     0.161 C 
BRANCH  18  19
HETATM   19  C   UNL     1       8.417  23.296  56.334  1.00  0.00    -0.041 A 
HETATM   20  C   UNL     1       8.333  21.909  56.544  1.00  0.00     0.009 A 
HETATM   21  C   UNL     1       8.203  21.028  55.468  1.00  0.00     0.007 A 
HETATM   22  C   UNL     1       8.131  21.516  54.160  1.00  0.00    -0.062 A 
HETATM   23  C   UNL     1       7.982  20.566  53.009  1.00  0.00     0.048 C 
HETATM   24  C   UNL     1       8.154  22.899  53.951  1.00  0.00     0.007 A 
HETATM   25  C   UNL     1       8.302  23.781  55.026  1.00  0.00     0.009 A 
ENDBRANCH  18  19
ENDBRANCH  15  18
ENDBRANCH   1  14
BRANCH   2  26
HETATM   26  N   UNL     1       5.147  25.199  55.986  1.00  0.00    -0.287 NA
HETATM   27  H   UNL     1       5.915  24.529  55.892  1.00  0.00     0.125 HD
HETATM   28  H   UNL     1       4.448  24.821  56.630  1.00  0.00     0.125 HD
ENDBRANCH   2  26
BRANCH   3  29
HETATM   29  C   UNL     1       4.764  27.455  53.866  1.00  0.00     0.042 A 
HETATM   30  C   UNL     1       5.623  26.671  53.079  1.00  0.00     0.032 A 
HETATM   31  C   UNL     1       5.656  26.803  51.687  1.00  0.00     0.032 A 
HETATM   32  C   UNL     1       4.846  27.732  51.046  1.00  0.00     0.034 A 
HETATM   33  C   UNL     1       3.924  28.453  51.813  1.00  0.00     0.032 A 
HETATM   34  C   UNL     1       3.880  28.317  53.208  1.00  0.00     0.032 A 
BRANCH  32  35
HETATM   35  N   UNL     1       4.961  28.051  49.678  1.00  0.00    -0.328 N 
HETATM   36  C   UNL     1       4.659  27.232  48.603  1.00  0.00     0.218 C 
HETATM   37  C   UNL     1       5.154  27.798  47.297  1.00  0.00     0.117 C 
HETATM   38  O   UNL     1       4.063  26.160  48.633  1.00  0.00    -0.274 OA
HETATM   39  H   UNL     1       5.396  28.941  49.466  1.00  0.00     0.169 HD
ENDBRANCH  32  35
ENDBRANCH   3  29
TORSDOF 6
ENDMDL
MODEL 4
REMARK VINA RESULT:     -10.8      2.972      7.029
REMARK  6 active torsions:
REMARK  status: ('A' for Active; 'I' for Inactive)
REMARK    1  A    between atoms: C_5  and  C_6 
REMARK    2  A    between atoms: C_6  and  N_7 
REMARK       I    between atoms: N_7  and  C_8 
REMARK    3  A    between atoms: C_8  and  C_9 
REMARK    4  A    between atoms: C_10  and  N_11 
REMARK    5  A    between atoms: N_12  and  C_13 
REMARK    6  A    between atoms: C_16  and  N_17 
REMARK       I    between atoms: N_17  and  C_18 
ROOT
HETATM    1  C   UNL     1       7.292  26.964  56.824  1.00  0.00     0.103 C 
HETATM    2  C   UNL     1       7.550  28.292  57.161  1.00  0.00     0.105 C 
HETATM    3  N   UNL     1       6.565  29.035  56.502  1.00  0.00    -0.284 N 
HETATM    4  C   UNL     1       6.362  28.370  55.298  1.00  0.00     0.166 A 
HETATM    5  C   UNL     1       6.701  27.036  55.536  1.00  0.00     0.123 A 
HETATM    6  N   UNL     1       6.432  26.073  54.618  1.00  0.00    -0.242 NA
HETATM    7  C   UNL     1       5.920  26.519  53.461  1.00  0.00     0.086 A 
HETATM    8  C   UNL     1       5.633  27.890  53.226  1.00  0.00     0.088 A 
HETATM    9  N   UNL     1       5.819  28.843  54.153  1.00  0.00    -0.226 NA
HETATM   10  C   UNL     1       5.670  25.600  52.452  1.00  0.00     0.034 A 
HETATM   11  C   UNL     1       5.164  25.992  51.211  1.00  0.00     0.002 A 
HETATM   12  C   UNL     1       4.900  27.334  50.975  1.00  0.00     0.002 A 
HETATM   13  C   UNL     1       5.133  28.267  51.985  1.00  0.00     0.034 A 
ENDROOT
BRANCH   1  14
HETATM   14  C   UNL     1       7.571  25.796  57.650  1.00  0.00     0.257 C 
HETATM   15  N   UNL     1       7.329  24.608  56.986  1.00  0.00    -0.352 N 
HETATM   16  H   UNL     1       6.996  24.703  56.034  1.00  0.00     0.163 HD
HETATM   17  O   UNL     1       8.092  25.843  58.757  1.00  0.00    -0.267 OA
BRANCH  15  18
HETATM   18  C   UNL     1       8.078  23.411  57.281  1.00  0.00     0.161 C 
BRANCH  18  19
HETATM   19  C   UNL     1       8.221  22.555  56.042  1.00  0.00    -0.041 A 
HETATM   20  C   UNL     1       8.441  23.137  54.782  1.00  0.00     0.009 A 
HETATM   21  C   UNL     1       8.516  22.348  53.632  1.00  0.00     0.007 A 
HETATM   22  C   UNL     1       8.394  20.958  53.719  1.00  0.00    -0.062 A 
HETATM   23  C   UNL     1       8.483  20.115  52.481  1.00  0.00     0.048 C 
HETATM   24  C   UNL     1       8.234  20.370  54.978  1.00  0.00     0.007 A 
HETATM   25  C   UNL     1       8.142  21.160  56.129  1.00  0.00     0.009 A 
ENDBRANCH  18  19
ENDBRANCH  15  18
ENDBRANCH   1  14
BRANCH   2  26
HETATM   26  N   UNL     1       8.433  28.821  58.057  1.00  0.00    -0.287 NA
HETATM   27  H   UNL     1       8.059  29.444  58.778  1.00  0.00     0.125 HD
HETATM   28  H   UNL     1       9.116  28.188  58.481  1.00  0.00     0.125 HD
ENDBRANCH   2  26
BRANCH   3  29
HETATM   29  C   UNL     1       5.740  30.057  57.086  1.00  0.00     0.042 A 
HETATM   30  C   UNL     1       6.327  31.211  57.628  1.00  0.00     0.032 A 
HETATM   31  C   UNL     1       5.603  32.075  58.457  1.00  0.00     0.032 A 
HETATM   32  C   UNL     1       4.280  31.800  58.780  1.00  0.00     0.034 A 
HETATM   33  C   UNL     1       3.661  30.701  58.173  1.00  0.00     0.032 A 
HETATM   34  C   UNL     1       4.380  29.838  57.333  1.00  0.00     0.032 A 
BRANCH  32  35
HETATM   35  N   UNL     1       3.552  32.515  59.752  1.00  0.00    -0.328 N 
HETATM   36  C   UNL     1       2.873  33.708  59.573  1.00  0.00     0.218 C 
HETATM   37  C   UNL     1       2.438  34.319  60.880  1.00  0.00     0.117 C 
HETATM   38  O   UNL     1       2.616  34.262  58.508  1.00  0.00    -0.274 OA
HETATM   39  H   UNL     1       3.612  32.162  60.699  1.00  0.00     0.169 HD
ENDBRANCH  32  35
ENDBRANCH   3  29
TORSDOF 6
ENDMDL
MODEL 5
REMARK VINA RESULT:     -10.8      3.597      9.577
REMARK  6 active torsions:
REMARK  status: ('A' for Active; 'I' for Inactive)
REMARK    1  A    between atoms: C_5  and  C_6 
REMARK    2  A    between atoms: C_6  and  N_7 
REMARK       I    between atoms: N_7  and  C_8 
REMARK    3  A    between atoms: C_8  and  C_9 
REMARK    4  A    between atoms: C_10  and  N_11 
REMARK    5  A    between atoms: N_12  and  C_13 
REMARK    6  A    between atoms: C_16  and  N_17 
REMARK       I    between atoms: N_17  and  C_18 
ROOT
HETATM    1  C   UNL     1       5.008  29.944  56.650  1.00  0.00     0.103 C 
HETATM    2  C   UNL     1       4.850  29.332  55.408  1.00  0.00     0.105 C 
HETATM    3  N   UNL     1       5.935  28.458  55.289  1.00  0.00    -0.284 N 
HETATM    4  C   UNL     1       6.992  29.114  55.910  1.00  0.00     0.166 A 
HETATM    5  C   UNL     1       6.412  29.961  56.858  1.00  0.00     0.123 A 
HETATM    6  N   UNL     1       7.175  30.606  57.776  1.00  0.00    -0.242 NA
HETATM    7  C   UNL     1       8.498  30.441  57.631  1.00  0.00     0.086 A 
HETATM    8  C   UNL     1       9.064  29.614  56.625  1.00  0.00     0.088 A 
HETATM    9  N   UNL     1       8.320  28.907  55.759  1.00  0.00    -0.226 NA
HETATM   10  C   UNL     1       9.346  31.115  58.500  1.00  0.00     0.034 A 
HETATM   11  C   UNL     1      10.735  31.014  58.394  1.00  0.00     0.002 A 
HETATM   12  C   UNL     1      11.288  30.220  57.399  1.00  0.00     0.002 A 
HETATM   13  C   UNL     1      10.448  29.526  56.528  1.00  0.00     0.034 A 
ENDROOT
BRANCH   1  14
HETATM   14  C   UNL     1       3.940  30.429  57.514  1.00  0.00     0.257 C 
HETATM   15  N   UNL     1       4.385  30.733  58.787  1.00  0.00    -0.352 N 
HETATM   16  H   UNL     1       5.373  30.581  58.949  1.00  0.00     0.163 HD
HETATM   17  O   UNL     1       2.803  30.677  57.132  1.00  0.00    -0.267 OA
BRANCH  15  18
HETATM   18  C   UNL     1       3.762  31.766  59.579  1.00  0.00     0.161 C 
BRANCH  18  19
HETATM   19  C   UNL     1       4.676  32.195  60.705  1.00  0.00    -0.041 A 
HETATM   20  C   UNL     1       6.041  32.437  60.477  1.00  0.00     0.009 A 
HETATM   21  C   UNL     1       6.895  32.778  61.529  1.00  0.00     0.007 A 
HETATM   22  C   UNL     1       6.397  32.905  62.829  1.00  0.00    -0.062 A 
HETATM   23  C   UNL     1       7.317  33.280  63.954  1.00  0.00     0.048 C 
HETATM   24  C   UNL     1       5.028  32.722  63.052  1.00  0.00     0.007 A 
HETATM   25  C   UNL     1       4.176  32.364  62.002  1.00  0.00     0.009 A 
ENDBRANCH  18  19
ENDBRANCH  15  18
ENDBRANCH   1  14
BRANCH   2  26
HETATM   26  N   UNL     1       3.813  29.387  54.522  1.00  0.00    -0.287 NA
HETATM   27  H   UNL     1       3.920  29.996  53.706  1.00  0.00     0.125 HD
HETATM   28  H   UNL     1       3.393  28.502  54.228  1.00  0.00     0.125 HD
ENDBRANCH   2  26
BRANCH   3  29
HETATM   29  C   UNL     1       5.873  27.075  54.898  1.00  0.00     0.042 A 
HETATM   30  C   UNL     1       6.042  26.065  55.857  1.00  0.00     0.032 A 
HETATM   31  C   UNL     1       6.282  24.739  55.482  1.00  0.00     0.032 A 
HETATM   32  C   UNL     1       6.378  24.391  54.140  1.00  0.00     0.034 A 
HETATM   33  C   UNL     1       6.123  25.374  53.177  1.00  0.00     0.032 A 
HETATM   34  C   UNL     1       5.871  26.703  53.549  1.00  0.00     0.032 A 
BRANCH  32  35
HETATM   35  N   UNL     1       6.804  23.124  53.693  1.00  0.00    -0.328 N 
HETATM   36  C   UNL     1       8.024  22.520  53.943  1.00  0.00     0.218 C 
HETATM   37  C   UNL     1       8.239  21.294  53.093  1.00  0.00     0.117 C 
HETATM   38  O   UNL     1       8.880  22.880  54.745  1.00  0.00    -0.274 OA
HETATM   39  H   UNL     1       6.183  22.650  53.048  1.00  0.00     0.169 HD
ENDBRANCH  32  35
ENDBRANCH   3  29
TORSDOF 6
ENDMDL
MODEL 6
REMARK VINA RESULT:     -10.7      1.842      2.337
REMARK  6 active torsions:
REMARK  status: ('A' for Active; 'I' for Inactive)
REMARK    1  A    between atoms: C_5  and  C_6 
REMARK    2  A    between atoms: C_6  and  N_7 
REMARK       I    between atoms: N_7  and  C_8 
REMARK    3  A    between atoms: C_8  and  C_9 
REMARK    4  A    between atoms: C_10  and  N_11 
REMARK    5  A    between atoms: N_12  and  C_13 
REMARK    6  A    between atoms: C_16  and  N_17 
REMARK       I    between atoms: N_17  and  C_18 
ROOT
HETATM    1  C   UNL     1       5.299  26.943  53.624  1.00  0.00     0.103 C 
HETATM    2  C   UNL     1       5.017  27.507  54.867  1.00  0.00     0.105 C 
HETATM    3  N   UNL     1       6.184  27.338  55.619  1.00  0.00    -0.284 N 
HETATM    4  C   UNL     1       6.695  26.110  55.214  1.00  0.00     0.166 A 
HETATM    5  C   UNL     1       6.240  25.919  53.907  1.00  0.00     0.123 A 
HETATM    6  N   UNL     1       6.718  24.903  53.144  1.00  0.00    -0.242 NA
HETATM    7  C   UNL     1       7.562  24.071  53.770  1.00  0.00     0.086 A 
HETATM    8  C   UNL     1       7.968  24.259  55.118  1.00  0.00     0.088 A 
HETATM    9  N   UNL     1       7.567  25.303  55.861  1.00  0.00    -0.226 NA
HETATM   10  C   UNL     1       8.050  22.976  53.070  1.00  0.00     0.034 A 
HETATM   11  C   UNL     1       8.910  22.050  53.664  1.00  0.00     0.002 A 
HETATM   12  C   UNL     1       9.293  22.225  54.987  1.00  0.00     0.002 A 
HETATM   13  C   UNL     1       8.822  23.329  55.698  1.00  0.00     0.034 A 
ENDROOT
BRANCH   1  14
HETATM   14  C   UNL     1       4.740  27.356  52.343  1.00  0.00     0.257 C 
HETATM   15  N   UNL     1       5.454  26.860  51.269  1.00  0.00    -0.352 N 
HETATM   16  H   UNL     1       6.256  26.289  51.507  1.00  0.00     0.163 HD
HETATM   17  O   UNL     1       3.680  27.957  52.215  1.00  0.00    -0.267 OA
BRANCH  15  18
HETATM   18  C   UNL     1       4.817  26.568  50.008  1.00  0.00     0.161 C 
BRANCH  18  19
HETATM   19  C   UNL     1       4.732  27.815  49.155  1.00  0.00    -0.041 A 
HETATM   20  C   UNL     1       5.576  28.912  49.391  1.00  0.00     0.009 A 
HETATM   21  C   UNL     1       5.457  30.084  48.640  1.00  0.00     0.007 A 
HETATM   22  C   UNL     1       4.504  30.175  47.621  1.00  0.00    -0.062 A 
HETATM   23  C   UNL     1       4.386  31.433  46.811  1.00  0.00     0.048 C 
HETATM   24  C   UNL     1       3.700  29.064  47.343  1.00  0.00     0.007 A 
HETATM   25  C   UNL     1       3.808  27.897  48.107  1.00  0.00     0.009 A 
ENDBRANCH  18  19
ENDBRANCH  15  18
ENDBRANCH   1  14
BRANCH   2  26
HETATM   26  N   UNL     1       3.938  28.232  55.284  1.00  0.00    -0.287 NA
HETATM   27  H   UNL     1       3.938  29.236  55.086  1.00  0.00     0.125 HD
HETATM   28  H   UNL     1       3.009  27.851  55.093  1.00  0.00     0.125 HD
ENDBRANCH   2  26
BRANCH   3  29
HETATM   29  C   UNL     1       6.852  28.352  56.390  1.00  0.00     0.042 A 
HETATM   30  C   UNL     1       8.183  28.165  56.796  1.00  0.00     0.032 A 
HETATM   31  C   UNL     1       8.763  28.972  57.779  1.00  0.00     0.032 A 
HETATM   32  C   UNL     1       8.025  29.976  58.395  1.00  0.00     0.034 A 
HETATM   33  C   UNL     1       6.728  30.227  57.935  1.00  0.00     0.032 A 
HETATM   34  C   UNL     1       6.145  29.426  56.942  1.00  0.00     0.032 A 
BRANCH  32  35
HETATM   35  N   UNL     1       8.480  30.698  59.518  1.00  0.00    -0.328 N 
HETATM   36  C   UNL     1       9.469  31.666  59.540  1.00  0.00     0.218 C 
HETATM   37  C   UNL     1       9.879  32.030  60.944  1.00  0.00     0.117 C 
HETATM   38  O   UNL     1       9.997  32.209  58.574  1.00  0.00    -0.274 OA
HETATM   39  H   UNL     1       8.103  30.409  60.412  1.00  0.00     0.169 HD
ENDBRANCH  32  35
ENDBRANCH   3  29
TORSDOF 6
ENDMDL
MODEL 7
REMARK VINA RESULT:     -10.6      3.780      7.529
REMARK  6 active torsions:
REMARK  status: ('A' for Active; 'I' for Inactive)
REMARK    1  A    between atoms: C_5  and  C_6 
REMARK    2  A    between atoms: C_6  and  N_7 
REMARK       I    between atoms: N_7  and  C_8 
REMARK    3  A    between atoms: C_8  and  C_9 
REMARK    4  A    between atoms: C_10  and  N_11 
REMARK    5  A    between atoms: N_12  and  C_13 
REMARK    6  A    between atoms: C_16  and  N_17 
REMARK       I    between atoms: N_17  and  C_18 
ROOT
HETATM    1  C   UNL     1       5.860  27.629  53.558  1.00  0.00     0.103 C 
HETATM    2  C   UNL     1       4.506  27.880  53.769  1.00  0.00     0.105 C 
HETATM    3  N   UNL     1       4.459  29.125  54.404  1.00  0.00    -0.284 N 
HETATM    4  C   UNL     1       5.581  29.151  55.224  1.00  0.00     0.166 A 
HETATM    5  C   UNL     1       6.514  28.304  54.621  1.00  0.00     0.123 A 
HETATM    6  N   UNL     1       7.797  28.252  55.063  1.00  0.00    -0.242 NA
HETATM    7  C   UNL     1       8.051  28.988  56.154  1.00  0.00     0.086 A 
HETATM    8  C   UNL     1       7.069  29.801  56.779  1.00  0.00     0.088 A 
HETATM    9  N   UNL     1       5.818  29.925  56.308  1.00  0.00    -0.226 NA
HETATM   10  C   UNL     1       9.328  28.942  56.698  1.00  0.00     0.034 A 
HETATM   11  C   UNL     1       9.660  29.659  57.849  1.00  0.00     0.002 A 
HETATM   12  C   UNL     1       8.696  30.441  58.469  1.00  0.00     0.002 A 
HETATM   13  C   UNL     1       7.413  30.507  57.926  1.00  0.00     0.034 A 
ENDROOT
BRANCH   1  14
HETATM   14  C   UNL     1       6.433  26.854  52.464  1.00  0.00     0.257 C 
HETATM   15  N   UNL     1       7.535  26.118  52.857  1.00  0.00    -0.352 N 
HETATM   16  H   UNL     1       7.796  26.213  53.831  1.00  0.00     0.163 HD
HETATM   17  O   UNL     1       5.925  26.748  51.355  1.00  0.00    -0.267 OA
BRANCH  15  18
HETATM   18  C   UNL     1       7.869  24.864  52.229  1.00  0.00     0.161 C 
BRANCH  18  19
HETATM   19  C   UNL     1       7.893  23.748  53.249  1.00  0.00    -0.041 A 
HETATM   20  C   UNL     1       7.922  22.401  52.849  1.00  0.00     0.009 A 
HETATM   21  C   UNL     1       7.886  21.371  53.792  1.00  0.00     0.007 A 
HETATM   22  C   UNL     1       7.843  21.666  55.157  1.00  0.00    -0.062 A 
HETATM   23  C   UNL     1       7.813  20.556  56.167  1.00  0.00     0.048 C 
HETATM   24  C   UNL     1       7.873  23.005  55.563  1.00  0.00     0.007 A 
HETATM   25  C   UNL     1       7.892  24.036  54.619  1.00  0.00     0.009 A 
ENDBRANCH  18  19
ENDBRANCH  15  18
ENDBRANCH   1  14
BRANCH   2  26
HETATM   26  N   UNL     1       3.404  27.201  53.337  1.00  0.00    -0.287 NA
HETATM   27  H   UNL     1       3.176  27.255  52.340  1.00  0.00     0.125 HD
HETATM   28  H   UNL     1       3.283  26.238  53.657  1.00  0.00     0.125 HD
ENDBRANCH   2  26
BRANCH   3  29
HETATM   29  C   UNL     1       3.616  30.232  54.040  1.00  0.00     0.042 A 
HETATM   30  C   UNL     1       3.592  30.692  52.714  1.00  0.00     0.032 A 
HETATM   31  C   UNL     1       3.027  31.928  52.383  1.00  0.00     0.032 A 
HETATM   32  C   UNL     1       2.489  32.745  53.370  1.00  0.00     0.034 A 
HETATM   33  C   UNL     1       2.429  32.257  54.680  1.00  0.00     0.032 A 
HETATM   34  C   UNL     1       2.984  31.013  55.015  1.00  0.00     0.032 A 
BRANCH  32  35
HETATM   35  N   UNL     1       2.078  34.074  53.140  1.00  0.00    -0.328 N 
HETATM   36  C   UNL     1       2.753  35.228  53.501  1.00  0.00     0.218 C 
HETATM   37  C   UNL     1       1.901  36.461  53.342  1.00  0.00     0.117 C 
HETATM   38  O   UNL     1       3.907  35.315  53.909  1.00  0.00    -0.274 OA
HETATM   39  H   UNL     1       1.150  34.190  52.753  1.00  0.00     0.169 HD
ENDBRANCH  32  35
ENDBRANCH   3  29
TORSDOF 6
ENDMDL
MODEL 8
REMARK VINA RESULT:     -10.6      2.335      3.351
REMARK  6 active torsions:
REMARK  status: ('A' for Active; 'I' for Inactive)
REMARK    1  A    between atoms: C_5  and  C_6 
REMARK    2  A    between atoms: C_6  and  N_7 
REMARK       I    between atoms: N_7  and  C_8 
REMARK    3  A    between atoms: C_8  and  C_9 
REMARK    4  A    between atoms: C_10  and  N_11 
REMARK    5  A    between atoms: N_12  and  C_13 
REMARK    6  A    between atoms: C_16  and  N_17 
REMARK       I    between atoms: N_17  and  C_18 
ROOT
HETATM    1  C   UNL     1       4.809  29.366  53.128  1.00  0.00     0.103 C 
HETATM    2  C   UNL     1       4.450  29.651  54.444  1.00  0.00     0.105 C 
HETATM    3  N   UNL     1       5.481  29.122  55.227  1.00  0.00    -0.284 N 
HETATM    4  C   UNL     1       5.872  27.962  54.567  1.00  0.00     0.166 A 
HETATM    5  C   UNL     1       5.563  28.167  53.220  1.00  0.00     0.123 A 
HETATM    6  N   UNL     1       5.994  27.303  52.266  1.00  0.00    -0.242 NA
HETATM    7  C   UNL     1       6.635  26.221  52.729  1.00  0.00     0.086 A 
HETATM    8  C   UNL     1       6.891  26.011  54.110  1.00  0.00     0.088 A 
HETATM    9  N   UNL     1       6.541  26.895  55.059  1.00  0.00    -0.226 NA
HETATM   10  C   UNL     1       7.058  25.263  51.817  1.00  0.00     0.034 A 
HETATM   11  C   UNL     1       7.707  24.097  52.226  1.00  0.00     0.002 A 
HETATM   12  C   UNL     1       7.942  23.884  53.577  1.00  0.00     0.002 A 
HETATM   13  C   UNL     1       7.535  24.844  54.504  1.00  0.00     0.034 A 
ENDROOT
BRANCH   1  14
HETATM   14  C   UNL     1       4.473  30.159  51.952  1.00  0.00     0.257 C 
HETATM   15  N   UNL     1       5.375  29.982  50.919  1.00  0.00    -0.352 N 
HETATM   16  H   UNL     1       6.133  29.339  51.110  1.00  0.00     0.163 HD
HETATM   17  O   UNL     1       3.441  30.806  51.828  1.00  0.00    -0.267 OA
BRANCH  15  18
HETATM   18  C   UNL     1       4.974  30.099  49.538  1.00  0.00     0.161 C 
BRANCH  18  19
HETATM   19  C   UNL     1       4.434  28.782  49.027  1.00  0.00    -0.041 A 
HETATM   20  C   UNL     1       3.051  28.563  48.911  1.00  0.00     0.009 A 
HETATM   21  C   UNL     1       2.553  27.326  48.494  1.00  0.00     0.007 A 
HETATM   22  C   UNL     1       3.429  26.289  48.162  1.00  0.00    -0.062 A 
HETATM   23  C   UNL     1       2.890  24.965  47.706  1.00  0.00     0.048 C 
HETATM   24  C   UNL     1       4.808  26.520  48.220  1.00  0.00     0.007 A 
HETATM   25  C   UNL     1       5.306  27.753  48.654  1.00  0.00     0.009 A 
ENDBRANCH  18  19
ENDBRANCH  15  18
ENDBRANCH   1  14
BRANCH   2  26
HETATM   26  N   UNL     1       3.433  30.416  54.937  1.00  0.00    -0.287 NA
HETATM   27  H   UNL     1       3.510  30.738  55.906  1.00  0.00     0.125 HD
HETATM   28  H   UNL     1       3.091  31.183  54.354  1.00  0.00     0.125 HD
ENDBRANCH   2  26
BRANCH   3  29
HETATM   29  C   UNL     1       6.175  29.800  56.288  1.00  0.00     0.042 A 
HETATM   30  C   UNL     1       7.503  29.459  56.591  1.00  0.00     0.032 A 
HETATM   31  C   UNL     1       8.106  29.873  57.783  1.00  0.00     0.032 A 
HETATM   32  C   UNL     1       7.394  30.623  58.712  1.00  0.00     0.034 A 
HETATM   33  C   UNL     1       6.101  31.042  58.379  1.00  0.00     0.032 A 
HETATM   34  C   UNL     1       5.496  30.637  57.180  1.00  0.00     0.032 A 
BRANCH  32  35
HETATM   35  N   UNL     1       7.869  30.912  60.007  1.00  0.00    -0.328 N 
HETATM   36  C   UNL     1       8.827  31.850  60.352  1.00  0.00     0.218 C 
HETATM   37  C   UNL     1       9.281  31.703  61.782  1.00  0.00     0.117 C 
HETATM   38  O   UNL     1       9.297  32.728  59.635  1.00  0.00    -0.274 OA
HETATM   39  H   UNL     1       7.538  30.304  60.746  1.00  0.00     0.169 HD
ENDBRANCH  32  35
ENDBRANCH   3  29
TORSDOF 6
ENDMDL
MODEL 9
REMARK VINA RESULT:     -10.5      1.875      2.706
REMARK  6 active torsions:
REMARK  status: ('A' for Active; 'I' for Inactive)
REMARK    1  A    between atoms: C_5  and  C_6 
REMARK    2  A    between atoms: C_6  and  N_7 
REMARK       I    between atoms: N_7  and  C_8 
REMARK    3  A    between atoms: C_8  and  C_9 
REMARK    4  A    between atoms: C_10  and  N_11 
REMARK    5  A    between atoms: N_12  and  C_13 
REMARK    6  A    between atoms: C_16  and  N_17 
REMARK       I    between atoms: N_17  and  C_18 
ROOT
HETATM    1  C   UNL     1       5.077  26.631  52.100  1.00  0.00     0.103 C 
HETATM    2  C   UNL     1       4.320  27.251  53.092  1.00  0.00     0.105 C 
HETATM    3  N   UNL     1       5.070  27.112  54.265  1.00  0.00    -0.284 N 
HETATM    4  C   UNL     1       5.676  25.866  54.156  1.00  0.00     0.166 A 
HETATM    5  C   UNL     1       5.796  25.617  52.786  1.00  0.00     0.123 A 
HETATM    6  N   UNL     1       6.524  24.567  52.329  1.00  0.00    -0.242 NA
HETATM    7  C   UNL     1       7.017  23.762  53.280  1.00  0.00     0.086 A 
HETATM    8  C   UNL     1       6.836  24.009  54.667  1.00  0.00     0.088 A 
HETATM    9  N   UNL     1       6.187  25.086  55.136  1.00  0.00    -0.226 NA
HETATM   10  C   UNL     1       7.726  22.634  52.888  1.00  0.00     0.034 A 
HETATM   11  C   UNL     1       8.246  21.734  53.820  1.00  0.00     0.002 A 
HETATM   12  C   UNL     1       8.054  21.967  55.175  1.00  0.00     0.002 A 
HETATM   13  C   UNL     1       7.356  23.103  55.584  1.00  0.00     0.034 A 
ENDROOT
BRANCH   1  14
HETATM   14  C   UNL     1       5.104  26.987  50.687  1.00  0.00     0.257 C 
HETATM   15  N   UNL     1       3.920  26.681  50.041  1.00  0.00    -0.352 N 
HETATM   16  H   UNL     1       3.206  26.258  50.621  1.00  0.00     0.163 HD
HETATM   17  O   UNL     1       6.010  27.613  50.151  1.00  0.00    -0.267 OA
BRANCH  15  18
HETATM   18  C   UNL     1       3.451  27.454  48.917  1.00  0.00     0.161 C 
BRANCH  18  19
HETATM   19  C   UNL     1       2.885  28.778  49.382  1.00  0.00    -0.041 A 
HETATM   20  C   UNL     1       1.591  28.861  49.924  1.00  0.00     0.009 A 
HETATM   21  C   UNL     1       1.049  30.092  50.299  1.00  0.00     0.007 A 
HETATM   22  C   UNL     1       1.798  31.265  50.161  1.00  0.00    -0.062 A 
HETATM   23  C   UNL     1       1.213  32.584  50.574  1.00  0.00     0.048 C 
HETATM   24  C   UNL     1       3.107  31.180  49.677  1.00  0.00     0.007 A 
HETATM   25  C   UNL     1       3.645  29.949  49.285  1.00  0.00     0.009 A 
ENDBRANCH  18  19
ENDBRANCH  15  18
ENDBRANCH   1  14
BRANCH   2  26
HETATM   26  N   UNL     1       3.181  27.997  52.998  1.00  0.00    -0.287 NA
HETATM   27  H   UNL     1       2.790  28.374  53.866  1.00  0.00     0.125 HD
HETATM   28  H   UNL     1       3.143  28.715  52.272  1.00  0.00     0.125 HD
ENDBRANCH   2  26
BRANCH   3  29
HETATM   29  C   UNL     1       5.382  28.158  55.202  1.00  0.00     0.042 A 
HETATM   30  C   UNL     1       6.663  28.733  55.213  1.00  0.00     0.032 A 
HETATM   31  C   UNL     1       7.094  29.526  56.281  1.00  0.00     0.032 A 
HETATM   32  C   UNL     1       6.266  29.750  57.374  1.00  0.00     0.034 A 
HETATM   33  C   UNL     1       4.958  29.255  57.330  1.00  0.00     0.032 A 
HETATM   34  C   UNL     1       4.517  28.468  56.256  1.00  0.00     0.032 A 
BRANCH  32  35
HETATM   35  N   UNL     1       6.697  30.375  58.562  1.00  0.00    -0.328 N 
HETATM   36  C   UNL     1       6.699  31.732  58.835  1.00  0.00     0.218 C 
HETATM   37  C   UNL     1       7.473  32.061  60.086  1.00  0.00     0.117 C 
HETATM   38  O   UNL     1       6.157  32.621  58.184  1.00  0.00    -0.274 OA
HETATM   39  H   UNL     1       7.134  29.771  59.247  1.00  0.00     0.169 HD
ENDBRANCH  32  35
ENDBRANCH   3  29
TORSDOF 6
ENDMDL
MODEL 10
REMARK VINA RESULT:     -10.5      2.640      7.226
REMARK  6 active torsions:
REMARK  status: ('A' for Active; 'I' for Inactive)
REMARK    1  A    between atoms: C_5  and  C_6 
REMARK    2  A    between atoms: C_6  and  N_7 
REMARK       I    between atoms: N_7  and  C_8 
REMARK    3  A    between atoms: C_8  and  C_9 
REMARK    4  A    between atoms: C_10  and  N_11 
REMARK    5  A    between atoms: N_12  and  C_13 
REMARK    6  A    between atoms: C_16  and  N_17 
REMARK       I    between atoms: N_17  and  C_18 
ROOT
HETATM    1  C   UNL     1       5.899  30.103  56.351  1.00  0.00     0.103 C 
HETATM    2  C   UNL     1       6.712  29.127  55.777  1.00  0.00     0.105 C 
HETATM    3  N   UNL     1       7.293  28.454  56.856  1.00  0.00    -0.284 N 
HETATM    4  C   UNL     1       7.502  29.435  57.819  1.00  0.00     0.166 A 
HETATM    5  C   UNL     1       6.539  30.418  57.578  1.00  0.00     0.123 A 
HETATM    6  N   UNL     1       6.339  31.430  58.460  1.00  0.00    -0.242 NA
HETATM    7  C   UNL     1       7.188  31.454  59.498  1.00  0.00     0.086 A 
HETATM    8  C   UNL     1       8.193  30.469  59.692  1.00  0.00     0.088 A 
HETATM    9  N   UNL     1       8.352  29.419  58.871  1.00  0.00    -0.226 NA
HETATM   10  C   UNL     1       7.081  32.491  60.414  1.00  0.00     0.034 A 
HETATM   11  C   UNL     1       7.946  32.598  61.505  1.00  0.00     0.002 A 
HETATM   12  C   UNL     1       8.939  31.646  61.684  1.00  0.00     0.002 A 
HETATM   13  C   UNL     1       9.049  30.590  60.779  1.00  0.00     0.034 A 
ENDROOT
BRANCH   1  14
HETATM   14  C   UNL     1       4.667  30.640  55.786  1.00  0.00     0.257 C 
HETATM   15  N   UNL     1       4.836  31.108  54.496  1.00  0.00    -0.352 N 
HETATM   16  H   UNL     1       5.772  31.019  54.121  1.00  0.00     0.163 HD
HETATM   17  O   UNL     1       3.571  30.566  56.327  1.00  0.00    -0.267 OA
BRANCH  15  18
HETATM   18  C   UNL     1       3.760  31.078  53.535  1.00  0.00     0.161 C 
BRANCH  18  19
HETATM   19  C   UNL     1       4.180  30.327  52.291  1.00  0.00    -0.041 A 
HETATM   20  C   UNL     1       4.804  30.990  51.221  1.00  0.00     0.009 A 
HETATM   21  C   UNL     1       5.140  30.306  50.050  1.00  0.00     0.007 A 
HETATM   22  C   UNL     1       4.877  28.938  49.933  1.00  0.00    -0.062 A 
HETATM   23  C   UNL     1       5.247  28.206  48.676  1.00  0.00     0.048 C 
HETATM   24  C   UNL     1       4.309  28.261  51.017  1.00  0.00     0.007 A 
HETATM   25  C   UNL     1       3.958  28.949  52.183  1.00  0.00     0.009 A 
ENDBRANCH  18  19
ENDBRANCH  15  18
ENDBRANCH   1  14
BRANCH   2  26
HETATM   26  N   UNL     1       6.839  28.736  54.476  1.00  0.00    -0.287 NA
HETATM   27  H   UNL     1       7.185  29.429  53.805  1.00  0.00     0.125 HD
HETATM   28  H   UNL     1       7.289  27.837  54.292  1.00  0.00     0.125 HD
ENDBRANCH   2  26
BRANCH   3  29
HETATM   29  C   UNL     1       7.356  27.028  57.033  1.00  0.00     0.042 A 
HETATM   30  C   UNL     1       8.595  26.397  57.225  1.00  0.00     0.032 A 
HETATM   31  C   UNL     1       8.730  25.010  57.105  1.00  0.00     0.032 A 
HETATM   32  C   UNL     1       7.637  24.220  56.771  1.00  0.00     0.034 A 
HETATM   33  C   UNL     1       6.382  24.829  56.666  1.00  0.00     0.032 A 
HETATM   34  C   UNL     1       6.239  26.219  56.797  1.00  0.00     0.032 A 
BRANCH  32  35
HETATM   35  N   UNL     1       7.735  22.851  56.448  1.00  0.00    -0.328 N 
HETATM   36  C   UNL     1       7.996  22.307  55.202  1.00  0.00     0.218 C 
HETATM   37  C   UNL     1       7.763  20.818  55.171  1.00  0.00     0.117 C 
HETATM   38  O   UNL     1       8.375  22.901  54.198  1.00  0.00    -0.274 OA
HETATM   39  H   UNL     1       7.501  22.203  57.190  1.00  0.00     0.169 HD
ENDBRANCH  32  35
ENDBRANCH   3  29
TORSDOF 6
ENDMDL
