MODEL 1
REMARK VINA RESULT:      -8.8      0.000      0.000
REMARK  8 active torsions:
REMARK  status: ('A' for Active; 'I' for Inactive)
REMARK       I    between atoms: C_2  and  N_3 
REMARK    1  A    between atoms: N_3  and  C_4 
REMARK    2  A    between atoms: C_6  and  C_7 
REMARK    3  A    between atoms: C_7  and  N_8 
REMARK    4  A    between atoms: C_11  and  C_12 
REMARK    5  A    between atoms: C_14  and  S_15 
REMARK    6  A    between atoms: S_15  and  C_16 
REMARK    7  A    between atoms: C_16  and  C_17 
REMARK    8  A    between atoms: C_17  and  N_18 
ROOT
HETATM    1  N   UNL     1       7.024  31.731  61.051  1.00  0.00    -0.066 N 
HETATM    2  H   UNL     1       6.923  30.892  60.463  1.00  0.00     0.280 HD
HETATM    3  C   UNL     1       7.945  32.665  60.293  1.00  0.00     0.246 C 
HETATM    4  C   UNL     1       9.321  32.042  60.039  1.00  0.00     0.064 C 
HETATM    5  C   UNL     1       9.924  31.435  61.313  1.00  0.00     0.014 C 
HETATM    6  C   UNL     1       8.946  30.563  62.092  1.00  0.00     0.028 C 
HETATM    7  C   UNL     1       7.633  31.281  62.359  1.00  0.00     0.235 C 
ENDROOT
BRANCH   4   8
HETATM    8  C   UNL     1       9.309  31.059  58.874  1.00  0.00     0.044 A 
HETATM    9  N   UNL     1       8.226  30.252  58.698  1.00  0.00    -0.227 NA
HETATM   10  C   UNL     1       8.353  29.311  57.729  1.00  0.00     0.188 A 
HETATM   11  N   UNL     1       9.375  29.215  56.872  1.00  0.00    -0.235 NA
HETATM   12  C   UNL     1      10.408  30.047  57.062  1.00  0.00     0.121 A 
HETATM   13  C   UNL     1      10.433  30.984  58.064  1.00  0.00     0.047 A 
BRANCH  10  14
HETATM   14  S   UNL     1       7.162  28.000  57.587  1.00  0.00    -0.088 SA
BRANCH  14  15
HETATM   15  C   UNL     1       8.134  26.684  56.817  1.00  0.00     0.110 C 
BRANCH  15  16
HETATM   16  C   UNL     1       8.196  25.419  57.674  1.00  0.00     0.245 C 
BRANCH  16  17
HETATM   17  N   UNL     1       7.432  24.256  57.090  1.00  0.00    -0.070 N 
HETATM   18  H   UNL     1       6.758  23.927  57.799  1.00  0.00     0.279 HD
HETATM   19  C   UNL     1       8.348  23.084  56.748  1.00  0.00     0.235 C 
HETATM   20  C   UNL     1       8.526  23.197  55.251  1.00  0.00     0.029 C 
HETATM   21  C   UNL     1       7.129  23.560  54.791  1.00  0.00     0.029 C 
HETATM   22  C   UNL     1       6.659  24.579  55.814  1.00  0.00     0.235 C 
ENDBRANCH  16  17
ENDBRANCH  15  16
ENDBRANCH  14  15
ENDBRANCH  10  14
ENDBRANCH   4   8
BRANCH   1  23
HETATM   23  C   UNL     1       5.642  32.335  61.266  1.00  0.00     0.280 C 
BRANCH  23  24
HETATM   24  C   UNL     1       5.605  33.325  62.388  1.00  0.00     0.010 A 
HETATM   25  S   UNL     1       4.882  32.921  63.894  1.00  0.00    -0.075 SA
HETATM   26  C   UNL     1       5.292  34.423  64.566  1.00  0.00     0.076 A 
HETATM   27  C   UNL     1       5.867  35.269  63.652  1.00  0.00     0.038 A 
HETATM   28  C   UNL     1       6.036  34.637  62.381  1.00  0.00     0.019 A 
BRANCH  26  29
HETATM   29  N   UNL     1       4.971  34.567  65.894  1.00  0.00    -0.322 N 
HETATM   30  C   UNL     1       5.900  34.401  66.905  1.00  0.00     0.218 C 
HETATM   31  C   UNL     1       5.339  34.706  68.269  1.00  0.00     0.117 C 
HETATM   32  O   UNL     1       7.042  33.973  66.751  1.00  0.00    -0.274 OA
HETATM   33  H   UNL     1       3.999  34.730  66.132  1.00  0.00     0.169 HD
ENDBRANCH  26  29
ENDBRANCH  23  24
ENDBRANCH   1  23
TORSDOF 8
ENDMDL
MODEL 2
REMARK VINA RESULT:      -8.6      4.035      7.618
REMARK  8 active torsions:
REMARK  status: ('A' for Active; 'I' for Inactive)
REMARK       I    between atoms: C_2  and  N_3 
REMARK    1  A    between atoms: N_3  and  C_4 
REMARK    2  A    between atoms: C_6  and  C_7 
REMARK    3  A    between atoms: C_7  and  N_8 
REMARK    4  A    between atoms: C_11  and  C_12 
REMARK    5  A    between atoms: C_14  and  S_15 
REMARK    6  A    between atoms: S_15  and  C_16 
REMARK    7  A    between atoms: C_16  and  C_17 
REMARK    8  A    between atoms: C_17  and  N_18 
ROOT
HETATM    1  N   UNL     1       6.980  27.540  55.870  1.00  0.00    -0.066 N 
HETATM    2  H   UNL     1       6.962  27.038  54.972  1.00  0.00     0.280 HD
HETATM    3  C   UNL     1       7.884  26.736  56.782  1.00  0.00     0.246 C 
HETATM    4  C   UNL     1       7.370  25.308  56.994  1.00  0.00     0.064 C 
HETATM    5  C   UNL     1       5.884  25.281  57.374  1.00  0.00     0.014 C 
HETATM    6  C   UNL     1       5.013  26.161  56.485  1.00  0.00     0.028 C 
HETATM    7  C   UNL     1       5.558  27.578  56.382  1.00  0.00     0.235 C 
ENDROOT
BRANCH   4   8
HETATM    8  C   UNL     1       7.689  24.393  55.818  1.00  0.00     0.044 A 
HETATM    9  N   UNL     1       7.748  24.920  54.564  1.00  0.00    -0.227 NA
HETATM   10  C   UNL     1       7.895  24.019  53.561  1.00  0.00     0.188 A 
HETATM   11  N   UNL     1       8.119  22.711  53.722  1.00  0.00    -0.235 NA
HETATM   12  C   UNL     1       8.082  22.237  54.974  1.00  0.00     0.121 A 
HETATM   13  C   UNL     1       7.853  23.037  56.065  1.00  0.00     0.047 A 
BRANCH  10  14
HETATM   14  S   UNL     1       7.682  24.516  51.868  1.00  0.00    -0.088 SA
BRANCH  14  15
HETATM   15  C   UNL     1       6.624  25.974  52.029  1.00  0.00     0.110 C 
BRANCH  15  16
HETATM   16  C   UNL     1       5.353  25.875  51.185  1.00  0.00     0.245 C 
BRANCH  16  17
HETATM   17  N   UNL     1       5.376  26.747  49.953  1.00  0.00    -0.070 N 
HETATM   18  H   UNL     1       6.295  26.630  49.496  1.00  0.00     0.279 HD
HETATM   19  C   UNL     1       5.219  28.225  50.297  1.00  0.00     0.235 C 
HETATM   20  C   UNL     1       3.769  28.511  49.978  1.00  0.00     0.029 C 
HETATM   21  C   UNL     1       3.569  27.743  48.688  1.00  0.00     0.029 C 
HETATM   22  C   UNL     1       4.292  26.429  48.927  1.00  0.00     0.235 C 
ENDBRANCH  16  17
ENDBRANCH  15  16
ENDBRANCH  14  15
ENDBRANCH  10  14
ENDBRANCH   4   8
BRANCH   1  23
HETATM   23  C   UNL     1       7.513  28.945  55.624  1.00  0.00     0.280 C 
BRANCH  23  24
HETATM   24  C   UNL     1       8.372  29.449  56.743  1.00  0.00     0.010 A 
HETATM   25  S   UNL     1       7.676  29.932  58.238  1.00  0.00    -0.075 SA
HETATM   26  C   UNL     1       9.197  30.263  58.912  1.00  0.00     0.076 A 
HETATM   27  C   UNL     1      10.216  30.122  58.003  1.00  0.00     0.038 A 
HETATM   28  C   UNL     1       9.737  29.663  56.738  1.00  0.00     0.019 A 
BRANCH  26  29
HETATM   29  N   UNL     1       9.173  30.635  60.233  1.00  0.00    -0.322 N 
HETATM   30  C   UNL     1       9.010  31.949  60.632  1.00  0.00     0.218 C 
HETATM   31  C   UNL     1       8.919  32.099  62.128  1.00  0.00     0.117 C 
HETATM   32  O   UNL     1       9.019  32.921  59.880  1.00  0.00    -0.274 OA
HETATM   33  H   UNL     1       9.355  29.922  60.931  1.00  0.00     0.169 HD
ENDBRANCH  26  29
ENDBRANCH  23  24
ENDBRANCH   1  23
TORSDOF 8
ENDMDL
MODEL 3
REMARK VINA RESULT:      -8.3      4.537      9.766
REMARK  8 active torsions:
REMARK  status: ('A' for Active; 'I' for Inactive)
REMARK       I    between atoms: C_2  and  N_3 
REMARK    1  A    between atoms: N_3  and  C_4 
REMARK    2  A    between atoms: C_6  and  C_7 
REMARK    3  A    between atoms: C_7  and  N_8 
REMARK    4  A    between atoms: C_11  and  C_12 
REMARK    5  A    between atoms: C_14  and  S_15 
REMARK    6  A    between atoms: S_15  and  C_16 
REMARK    7  A    between atoms: C_16  and  C_17 
REMARK    8  A    between atoms: C_17  and  N_18 
ROOT
HETATM    1  N   UNL     1       5.763  26.059  52.968  1.00  0.00    -0.066 N 
HETATM    2  H   UNL     1       6.232  26.708  53.615  1.00  0.00     0.280 HD
HETATM    3  C   UNL     1       5.400  24.839  53.788  1.00  0.00     0.246 C 
HETATM    4  C   UNL     1       6.632  24.163  54.398  1.00  0.00     0.064 C 
HETATM    5  C   UNL     1       7.738  23.935  53.359  1.00  0.00     0.014 C 
HETATM    6  C   UNL     1       8.025  25.161  52.499  1.00  0.00     0.028 C 
HETATM    7  C   UNL     1       6.758  25.728  51.879  1.00  0.00     0.235 C 
ENDROOT
BRANCH   4   8
HETATM    8  C   UNL     1       7.138  24.886  55.641  1.00  0.00     0.044 A 
HETATM    9  N   UNL     1       6.573  26.074  55.994  1.00  0.00    -0.227 NA
HETATM   10  C   UNL     1       7.173  26.720  57.024  1.00  0.00     0.188 A 
HETATM   11  N   UNL     1       8.157  26.224  57.781  1.00  0.00    -0.235 NA
HETATM   12  C   UNL     1       8.666  25.039  57.418  1.00  0.00     0.121 A 
HETATM   13  C   UNL     1       8.201  24.330  56.339  1.00  0.00     0.047 A 
BRANCH  10  14
HETATM   14  S   UNL     1       6.748  28.404  57.398  1.00  0.00    -0.088 SA
BRANCH  14  15
HETATM   15  C   UNL     1       8.306  29.054  58.048  1.00  0.00     0.110 C 
BRANCH  15  16
HETATM   16  C   UNL     1       8.168  30.476  58.595  1.00  0.00     0.245 C 
BRANCH  16  17
HETATM   17  N   UNL     1       7.891  30.527  60.078  1.00  0.00    -0.070 N 
HETATM   18  H   UNL     1       7.331  29.696  60.328  1.00  0.00     0.279 HD
HETATM   19  C   UNL     1       7.081  31.761  60.466  1.00  0.00     0.235 C 
HETATM   20  C   UNL     1       8.118  32.701  61.037  1.00  0.00     0.029 C 
HETATM   21  C   UNL     1       8.986  31.764  61.848  1.00  0.00     0.029 C 
HETATM   22  C   UNL     1       9.137  30.542  60.958  1.00  0.00     0.235 C 
ENDBRANCH  16  17
ENDBRANCH  15  16
ENDBRANCH  14  15
ENDBRANCH  10  14
ENDBRANCH   4   8
BRANCH   1  23
HETATM   23  C   UNL     1       4.535  26.756  52.398  1.00  0.00     0.280 C 
BRANCH  23  24
HETATM   24  C   UNL     1       4.201  28.030  53.110  1.00  0.00     0.010 A 
HETATM   25  S   UNL     1       3.465  29.338  52.273  1.00  0.00    -0.075 SA
HETATM   26  C   UNL     1       3.367  30.270  53.686  1.00  0.00     0.076 A 
HETATM   27  C   UNL     1       3.973  29.665  54.758  1.00  0.00     0.038 A 
HETATM   28  C   UNL     1       4.471  28.369  54.421  1.00  0.00     0.019 A 
BRANCH  26  29
HETATM   29  N   UNL     1       2.726  31.476  53.539  1.00  0.00    -0.322 N 
HETATM   30  C   UNL     1       3.399  32.683  53.565  1.00  0.00     0.218 C 
HETATM   31  C   UNL     1       2.501  33.860  53.285  1.00  0.00     0.117 C 
HETATM   32  O   UNL     1       4.583  32.825  53.864  1.00  0.00    -0.274 OA
HETATM   33  H   UNL     1       1.713  31.471  53.482  1.00  0.00     0.169 HD
ENDBRANCH  26  29
ENDBRANCH  23  24
ENDBRANCH   1  23
TORSDOF 8
ENDMDL
MODEL 4
REMARK VINA RESULT:      -8.2      3.579      5.236
REMARK  8 active torsions:
REMARK  status: ('A' for Active; 'I' for Inactive)
REMARK       I    between atoms: C_2  and  N_3 
REMARK    1  A    between atoms: N_3  and  C_4 
REMARK    2  A    between atoms: C_6  and  C_7 
REMARK    3  A    between atoms: C_7  and  N_8 
REMARK    4  A    between atoms: C_11  and  C_12 
REMARK    5  A    between atoms: C_14  and  S_15 
REMARK    6  A    between atoms: S_15  and  C_16 
REMARK    7  A    between atoms: C_16  and  C_17 
REMARK    8  A    between atoms: C_17  and  N_18 
ROOT
HETATM    1  N   UNL     1       6.926  31.693  60.811  1.00  0.00    -0.066 N 
HETATM    2  H   UNL     1       6.884  30.829  60.253  1.00  0.00     0.280 HD
HETATM    3  C   UNL     1       7.902  32.605  60.096  1.00  0.00     0.246 C 
HETATM    4  C   UNL     1       9.300  31.987  59.989  1.00  0.00     0.064 C 
HETATM    5  C   UNL     1       9.795  31.443  61.335  1.00  0.00     0.014 C 
HETATM    6  C   UNL     1       8.760  30.592  62.063  1.00  0.00     0.028 C 
HETATM    7  C   UNL     1       7.423  31.306  62.184  1.00  0.00     0.235 C 
ENDROOT
BRANCH   4   8
HETATM    8  C   UNL     1       9.397  30.956  58.870  1.00  0.00     0.044 A 
HETATM    9  N   UNL     1       8.392  30.051  58.713  1.00  0.00    -0.227 NA
HETATM   10  C   UNL     1       8.620  29.083  57.792  1.00  0.00     0.188 A 
HETATM   11  N   UNL     1       9.664  29.038  56.957  1.00  0.00    -0.235 NA
HETATM   12  C   UNL     1      10.617  29.965  57.126  1.00  0.00     0.121 A 
HETATM   13  C   UNL     1      10.540  30.944  58.084  1.00  0.00     0.047 A 
BRANCH  10  14
HETATM   14  S   UNL     1       7.550  27.668  57.690  1.00  0.00    -0.088 SA
BRANCH  14  15
HETATM   15  C   UNL     1       7.590  27.285  55.923  1.00  0.00     0.110 C 
BRANCH  15  16
HETATM   16  C   UNL     1       7.411  25.793  55.640  1.00  0.00     0.245 C 
BRANCH  16  17
HETATM   17  N   UNL     1       6.825  25.504  54.279  1.00  0.00    -0.070 N 
HETATM   18  H   UNL     1       5.868  25.892  54.254  1.00  0.00     0.279 HD
HETATM   19  C   UNL     1       6.720  24.005  54.010  1.00  0.00     0.235 C 
HETATM   20  C   UNL     1       7.904  23.723  53.113  1.00  0.00     0.029 C 
HETATM   21  C   UNL     1       7.897  24.922  52.188  1.00  0.00     0.029 C 
HETATM   22  C   UNL     1       7.608  26.094  53.110  1.00  0.00     0.235 C 
ENDBRANCH  16  17
ENDBRANCH  15  16
ENDBRANCH  14  15
ENDBRANCH  10  14
ENDBRANCH   4   8
BRANCH   1  23
HETATM   23  C   UNL     1       5.526  32.288  60.879  1.00  0.00     0.280 C 
BRANCH  23  24
HETATM   24  C   UNL     1       5.014  32.734  59.545  1.00  0.00     0.010 A 
HETATM   25  S   UNL     1       5.250  31.766  58.144  1.00  0.00    -0.075 SA
HETATM   26  C   UNL     1       4.384  32.851  57.170  1.00  0.00     0.076 A 
HETATM   27  C   UNL     1       4.010  33.983  57.850  1.00  0.00     0.038 A 
HETATM   28  C   UNL     1       4.388  33.923  59.226  1.00  0.00     0.019 A 
BRANCH  26  29
HETATM   29  N   UNL     1       4.212  32.447  55.869  1.00  0.00    -0.322 N 
HETATM   30  C   UNL     1       3.025  31.908  55.409  1.00  0.00     0.218 C 
HETATM   31  C   UNL     1       3.043  31.631  53.929  1.00  0.00     0.117 C 
HETATM   32  O   UNL     1       2.070  31.597  56.117  1.00  0.00    -0.274 OA
HETATM   33  H   UNL     1       5.015  32.484  55.251  1.00  0.00     0.169 HD
ENDBRANCH  26  29
ENDBRANCH  23  24
ENDBRANCH   1  23
TORSDOF 8
ENDMDL
MODEL 5
REMARK VINA RESULT:      -8.1      4.814      8.766
REMARK  8 active torsions:
REMARK  status: ('A' for Active; 'I' for Inactive)
REMARK       I    between atoms: C_2  and  N_3 
REMARK    1  A    between atoms: N_3  and  C_4 
REMARK    2  A    between atoms: C_6  and  C_7 
REMARK    3  A    between atoms: C_7  and  N_8 
REMARK    4  A    between atoms: C_11  and  C_12 
REMARK    5  A    between atoms: C_14  and  S_15 
REMARK    6  A    between atoms: S_15  and  C_16 
REMARK    7  A    between atoms: C_16  and  C_17 
REMARK    8  A    between atoms: C_17  and  N_18 
ROOT
HETATM    1  N   UNL     1       5.506  26.183  53.377  1.00  0.00    -0.066 N 
HETATM    2  H   UNL     1       5.928  26.207  54.315  1.00  0.00     0.280 HD
HETATM    3  C   UNL     1       5.350  24.718  53.024  1.00  0.00     0.246 C 
HETATM    4  C   UNL     1       6.692  23.980  53.009  1.00  0.00     0.064 C 
HETATM    5  C   UNL     1       7.753  24.730  52.192  1.00  0.00     0.014 C 
HETATM    6  C   UNL     1       7.830  26.217  52.516  1.00  0.00     0.028 C 
HETATM    7  C   UNL     1       6.466  26.886  52.445  1.00  0.00     0.235 C 
ENDROOT
BRANCH   4   8
HETATM    8  C   UNL     1       7.177  23.624  54.409  1.00  0.00     0.044 A 
HETATM    9  N   UNL     1       7.248  24.600  55.356  1.00  0.00    -0.227 NA
HETATM   10  C   UNL     1       7.822  24.234  56.528  1.00  0.00     0.188 A 
HETATM   11  N   UNL     1       8.182  22.989  56.858  1.00  0.00    -0.235 NA
HETATM   12  C   UNL     1       8.070  22.051  55.907  1.00  0.00     0.121 A 
HETATM   13  C   UNL     1       7.586  22.320  54.652  1.00  0.00     0.047 A 
BRANCH  10  14
HETATM   14  S   UNL     1       8.260  25.460  57.737  1.00  0.00    -0.088 SA
BRANCH  14  15
HETATM   15  C   UNL     1       7.998  27.002  56.829  1.00  0.00     0.110 C 
BRANCH  15  16
HETATM   16  C   UNL     1       7.825  28.208  57.753  1.00  0.00     0.245 C 
BRANCH  16  17
HETATM   17  N   UNL     1       8.354  29.496  57.170  1.00  0.00    -0.070 N 
HETATM   18  H   UNL     1       7.561  30.003  56.744  1.00  0.00     0.279 HD
HETATM   19  C   UNL     1       9.383  29.245  56.072  1.00  0.00     0.235 C 
HETATM   20  C   UNL     1      10.706  29.487  56.764  1.00  0.00     0.029 C 
HETATM   21  C   UNL     1      10.404  30.705  57.612  1.00  0.00     0.029 C 
HETATM   22  C   UNL     1       9.023  30.423  58.180  1.00  0.00     0.235 C 
ENDBRANCH  16  17
ENDBRANCH  15  16
ENDBRANCH  14  15
ENDBRANCH  10  14
ENDBRANCH   4   8
BRANCH   1  23
HETATM   23  C   UNL     1       4.167  26.907  53.434  1.00  0.00     0.280 C 
BRANCH  23  24
HETATM   24  C   UNL     1       4.268  28.279  54.027  1.00  0.00     0.010 A 
HETATM   25  S   UNL     1       4.816  28.501  55.641  1.00  0.00    -0.075 SA
HETATM   26  C   UNL     1       4.715  30.189  55.510  1.00  0.00     0.076 A 
HETATM   27  C   UNL     1       4.175  30.592  54.314  1.00  0.00     0.038 A 
HETATM   28  C   UNL     1       3.901  29.482  53.457  1.00  0.00     0.019 A 
BRANCH  26  29
HETATM   29  N   UNL     1       5.160  30.880  56.609  1.00  0.00    -0.322 N 
HETATM   30  C   UNL     1       4.321  31.253  57.644  1.00  0.00     0.218 C 
HETATM   31  C   UNL     1       5.053  31.914  58.782  1.00  0.00     0.117 C 
HETATM   32  O   UNL     1       3.097  31.147  57.632  1.00  0.00    -0.274 OA
HETATM   33  H   UNL     1       6.127  31.186  56.618  1.00  0.00     0.169 HD
ENDBRANCH  26  29
ENDBRANCH  23  24
ENDBRANCH   1  23
TORSDOF 8
ENDMDL
MODEL 6
REMARK VINA RESULT:      -8.1      2.203      3.571
REMARK  8 active torsions:
REMARK  status: ('A' for Active; 'I' for Inactive)
REMARK       I    between atoms: C_2  and  N_3 
REMARK    1  A    between atoms: N_3  and  C_4 
REMARK    2  A    between atoms: C_6  and  C_7 
REMARK    3  A    between atoms: C_7  and  N_8 
REMARK    4  A    between atoms: C_11  and  C_12 
REMARK    5  A    between atoms: C_14  and  S_15 
REMARK    6  A    between atoms: S_15  and  C_16 
REMARK    7  A    between atoms: C_16  and  C_17 
REMARK    8  A    between atoms: C_17  and  N_18 
ROOT
HETATM    1  N   UNL     1       7.129  31.655  60.888  1.00  0.00    -0.066 N 
HETATM    2  H   UNL     1       7.057  30.792  60.332  1.00  0.00     0.280 HD
HETATM    3  C   UNL     1       8.030  32.585  60.102  1.00  0.00     0.246 C 
HETATM    4  C   UNL     1       9.425  31.991  59.881  1.00  0.00     0.064 C 
HETATM    5  C   UNL     1      10.034  31.451  61.181  1.00  0.00     0.014 C 
HETATM    6  C   UNL     1       9.075  30.582  61.986  1.00  0.00     0.028 C 
HETATM    7  C   UNL     1       7.740  31.273  62.216  1.00  0.00     0.235 C 
ENDROOT
BRANCH   4   8
HETATM    8  C   UNL     1       9.449  30.964  58.754  1.00  0.00     0.044 A 
HETATM    9  N   UNL     1       8.385  30.130  58.593  1.00  0.00    -0.227 NA
HETATM   10  C   UNL     1       8.544  29.156  57.664  1.00  0.00     0.188 A 
HETATM   11  N   UNL     1       9.581  29.047  56.826  1.00  0.00    -0.235 NA
HETATM   12  C   UNL     1      10.595  29.906  56.998  1.00  0.00     0.121 A 
HETATM   13  C   UNL     1      10.587  30.880  57.964  1.00  0.00     0.047 A 
BRANCH  10  14
HETATM   14  S   UNL     1       7.381  27.817  57.555  1.00  0.00    -0.088 SA
BRANCH  14  15
HETATM   15  C   UNL     1       6.474  28.222  56.044  1.00  0.00     0.110 C 
BRANCH  15  16
HETATM   16  C   UNL     1       6.138  29.710  55.940  1.00  0.00     0.245 C 
BRANCH  16  17
HETATM   17  N   UNL     1       5.305  30.222  57.089  1.00  0.00    -0.070 N 
HETATM   18  H   UNL     1       5.579  29.702  57.939  1.00  0.00     0.279 HD
HETATM   19  C   UNL     1       3.815  29.983  56.865  1.00  0.00     0.235 C 
HETATM   20  C   UNL     1       3.302  31.335  56.421  1.00  0.00     0.029 C 
HETATM   21  C   UNL     1       4.051  32.277  57.339  1.00  0.00     0.029 C 
HETATM   22  C   UNL     1       5.460  31.713  57.374  1.00  0.00     0.235 C 
ENDBRANCH  16  17
ENDBRANCH  15  16
ENDBRANCH  14  15
ENDBRANCH  10  14
ENDBRANCH   4   8
BRANCH   1  23
HETATM   23  C   UNL     1       5.730  32.227  61.070  1.00  0.00     0.280 C 
BRANCH  23  24
HETATM   24  C   UNL     1       5.634  33.183  62.219  1.00  0.00     0.010 A 
HETATM   25  S   UNL     1       4.890  32.713  63.695  1.00  0.00    -0.075 SA
HETATM   26  C   UNL     1       5.235  34.207  64.419  1.00  0.00     0.076 A 
HETATM   27  C   UNL     1       5.803  35.097  63.542  1.00  0.00     0.038 A 
HETATM   28  C   UNL     1       6.022  34.508  62.259  1.00  0.00     0.019 A 
BRANCH  26  29
HETATM   29  N   UNL     1       4.879  34.303  65.742  1.00  0.00    -0.322 N 
HETATM   30  C   UNL     1       5.807  34.260  66.766  1.00  0.00     0.218 C 
HETATM   31  C   UNL     1       5.192  34.481  68.123  1.00  0.00     0.117 C 
HETATM   32  O   UNL     1       6.998  33.988  66.628  1.00  0.00    -0.274 OA
HETATM   33  H   UNL     1       3.891  34.333  65.966  1.00  0.00     0.169 HD
ENDBRANCH  26  29
ENDBRANCH  23  24
ENDBRANCH   1  23
TORSDOF 8
ENDMDL
MODEL 7
REMARK VINA RESULT:      -8.0      6.016     11.646
REMARK  8 active torsions:
REMARK  status: ('A' for Active; 'I' for Inactive)
REMARK       I    between atoms: C_2  and  N_3 
REMARK    1  A    between atoms: N_3  and  C_4 
REMARK    2  A    between atoms: C_6  and  C_7 
REMARK    3  A    between atoms: C_7  and  N_8 
REMARK    4  A    between atoms: C_11  and  C_12 
REMARK    5  A    between atoms: C_14  and  S_15 
REMARK    6  A    between atoms: S_15  and  C_16 
REMARK    7  A    between atoms: C_16  and  C_17 
REMARK    8  A    between atoms: C_17  and  N_18 
ROOT
HETATM    1  N   UNL     1       5.802  25.969  52.788  1.00  0.00    -0.066 N 
HETATM    2  H   UNL     1       6.297  26.679  53.343  1.00  0.00     0.280 HD
HETATM    3  C   UNL     1       5.446  24.856  53.751  1.00  0.00     0.246 C 
HETATM    4  C   UNL     1       6.687  24.234  54.402  1.00  0.00     0.064 C 
HETATM    5  C   UNL     1       7.760  23.872  53.367  1.00  0.00     0.014 C 
HETATM    6  C   UNL     1       8.038  24.986  52.364  1.00  0.00     0.028 C 
HETATM    7  C   UNL     1       6.761  25.500  51.718  1.00  0.00     0.235 C 
ENDROOT
BRANCH   4   8
HETATM    8  C   UNL     1       7.237  25.086  55.540  1.00  0.00     0.044 A 
HETATM    9  N   UNL     1       6.984  26.424  55.549  1.00  0.00    -0.227 NA
HETATM   10  C   UNL     1       7.625  27.131  56.513  1.00  0.00     0.188 A 
HETATM   11  N   UNL     1       8.351  26.605  57.505  1.00  0.00    -0.235 NA
HETATM   12  C   UNL     1       8.552  25.280  57.475  1.00  0.00     0.121 A 
HETATM   13  C   UNL     1       8.027  24.471  56.499  1.00  0.00     0.047 A 
BRANCH  10  14
HETATM   14  S   UNL     1       7.640  28.907  56.466  1.00  0.00    -0.088 SA
BRANCH  14  15
HETATM   15  C   UNL     1       7.828  29.333  58.213  1.00  0.00     0.110 C 
BRANCH  15  16
HETATM   16  C   UNL     1       7.260  30.713  58.547  1.00  0.00     0.245 C 
BRANCH  16  17
HETATM   17  N   UNL     1       8.248  31.620  59.240  1.00  0.00    -0.070 N 
HETATM   18  H   UNL     1       8.574  32.321  58.555  1.00  0.00     0.279 HD
HETATM   19  C   UNL     1       9.473  30.858  59.736  1.00  0.00     0.235 C 
HETATM   20  C   UNL     1       9.210  30.686  61.215  1.00  0.00     0.029 C 
HETATM   21  C   UNL     1       8.632  32.032  61.594  1.00  0.00     0.029 C 
HETATM   22  C   UNL     1       7.690  32.363  60.450  1.00  0.00     0.235 C 
ENDBRANCH  16  17
ENDBRANCH  15  16
ENDBRANCH  14  15
ENDBRANCH  10  14
ENDBRANCH   4   8
BRANCH   1  23
HETATM   23  C   UNL     1       4.567  26.615  52.174  1.00  0.00     0.280 C 
BRANCH  23  24
HETATM   24  C   UNL     1       4.896  27.760  51.266  1.00  0.00     0.010 A 
HETATM   25  S   UNL     1       4.577  27.665  49.580  1.00  0.00    -0.075 SA
HETATM   26  C   UNL     1       5.120  29.251  49.324  1.00  0.00     0.076 A 
HETATM   27  C   UNL     1       5.638  29.820  50.460  1.00  0.00     0.038 A 
HETATM   28  C   UNL     1       5.522  28.949  51.587  1.00  0.00     0.019 A 
BRANCH  26  29
HETATM   29  N   UNL     1       4.980  29.707  48.036  1.00  0.00    -0.322 N 
HETATM   30  C   UNL     1       3.894  30.460  47.628  1.00  0.00     0.218 C 
HETATM   31  C   UNL     1       4.009  30.926  46.201  1.00  0.00     0.117 C 
HETATM   32  O   UNL     1       2.889  30.673  48.304  1.00  0.00    -0.274 OA
HETATM   33  H   UNL     1       5.669  29.415  47.352  1.00  0.00     0.169 HD
ENDBRANCH  26  29
ENDBRANCH  23  24
ENDBRANCH   1  23
TORSDOF 8
ENDMDL
MODEL 8
REMARK VINA RESULT:      -8.0      2.105      2.682
REMARK  8 active torsions:
REMARK  status: ('A' for Active; 'I' for Inactive)
REMARK       I    between atoms: C_2  and  N_3 
REMARK    1  A    between atoms: N_3  and  C_4 
REMARK    2  A    between atoms: C_6  and  C_7 
REMARK    3  A    between atoms: C_7  and  N_8 
REMARK    4  A    between atoms: C_11  and  C_12 
REMARK    5  A    between atoms: C_14  and  S_15 
REMARK    6  A    between atoms: S_15  and  C_16 
REMARK    7  A    between atoms: C_16  and  C_17 
REMARK    8  A    between atoms: C_17  and  N_18 
ROOT
HETATM    1  N   UNL     1       6.968  31.614  61.253  1.00  0.00    -0.066 N 
HETATM    2  H   UNL     1       6.910  30.793  60.636  1.00  0.00     0.280 HD
HETATM    3  C   UNL     1       7.736  32.666  60.480  1.00  0.00     0.246 C 
HETATM    4  C   UNL     1       9.145  32.196  60.105  1.00  0.00     0.064 C 
HETATM    5  C   UNL     1       9.895  31.605  61.306  1.00  0.00     0.014 C 
HETATM    6  C   UNL     1       9.067  30.607  62.108  1.00  0.00     0.028 C 
HETATM    7  C   UNL     1       7.711  31.177  62.495  1.00  0.00     0.235 C 
ENDROOT
BRANCH   4   8
HETATM    8  C   UNL     1       9.147  31.263  58.899  1.00  0.00     0.044 A 
HETATM    9  N   UNL     1       8.031  30.534  58.623  1.00  0.00    -0.227 NA
HETATM   10  C   UNL     1       8.161  29.627  57.623  1.00  0.00     0.188 A 
HETATM   11  N   UNL     1       9.228  29.501  56.826  1.00  0.00    -0.235 NA
HETATM   12  C   UNL     1      10.295  30.258  57.114  1.00  0.00     0.121 A 
HETATM   13  C   UNL     1      10.314  31.150  58.157  1.00  0.00     0.047 A 
BRANCH  10  14
HETATM   14  S   UNL     1       6.904  28.400  57.352  1.00  0.00    -0.088 SA
BRANCH  14  15
HETATM   15  C   UNL     1       7.547  27.506  55.918  1.00  0.00     0.110 C 
BRANCH  15  16
HETATM   16  C   UNL     1       7.509  25.989  56.104  1.00  0.00     0.245 C 
BRANCH  16  17
HETATM   17  N   UNL     1       6.870  25.255  54.951  1.00  0.00    -0.070 N 
HETATM   18  H   UNL     1       5.851  25.422  54.991  1.00  0.00     0.279 HD
HETATM   19  C   UNL     1       7.092  23.748  55.039  1.00  0.00     0.235 C 
HETATM   20  C   UNL     1       8.209  23.496  54.052  1.00  0.00     0.029 C 
HETATM   21  C   UNL     1       7.826  24.398  52.899  1.00  0.00     0.029 C 
HETATM   22  C   UNL     1       7.367  25.680  53.572  1.00  0.00     0.235 C 
ENDBRANCH  16  17
ENDBRANCH  15  16
ENDBRANCH  14  15
ENDBRANCH  10  14
ENDBRANCH   4   8
BRANCH   1  23
HETATM   23  C   UNL     1       5.553  32.064  61.589  1.00  0.00     0.280 C 
BRANCH  23  24
HETATM   24  C   UNL     1       5.500  33.443  62.171  1.00  0.00     0.010 A 
HETATM   25  S   UNL     1       4.782  34.739  61.301  1.00  0.00    -0.075 SA
HETATM   26  C   UNL     1       5.045  35.825  62.576  1.00  0.00     0.076 A 
HETATM   27  C   UNL     1       5.760  35.265  63.604  1.00  0.00     0.038 A 
HETATM   28  C   UNL     1       6.038  33.885  63.364  1.00  0.00     0.019 A 
BRANCH  26  29
HETATM   29  N   UNL     1       4.530  37.083  62.377  1.00  0.00    -0.322 N 
HETATM   30  C   UNL     1       5.286  38.123  61.868  1.00  0.00     0.218 C 
HETATM   31  C   UNL     1       4.482  39.378  61.649  1.00  0.00     0.117 C 
HETATM   32  O   UNL     1       6.501  38.088  61.684  1.00  0.00    -0.274 OA
HETATM   33  H   UNL     1       3.581  37.261  62.686  1.00  0.00     0.169 HD
ENDBRANCH  26  29
ENDBRANCH  23  24
ENDBRANCH   1  23
TORSDOF 8
ENDMDL
MODEL 9
REMARK VINA RESULT:      -8.0      4.363     10.669
REMARK  8 active torsions:
REMARK  status: ('A' for Active; 'I' for Inactive)
REMARK       I    between atoms: C_2  and  N_3 
REMARK    1  A    between atoms: N_3  and  C_4 
REMARK    2  A    between atoms: C_6  and  C_7 
REMARK    3  A    between atoms: C_7  and  N_8 
REMARK    4  A    between atoms: C_11  and  C_12 
REMARK    5  A    between atoms: C_14  and  S_15 
REMARK    6  A    between atoms: S_15  and  C_16 
REMARK    7  A    between atoms: C_16  and  C_17 
REMARK    8  A    between atoms: C_17  and  N_18 
ROOT
HETATM    1  N   UNL     1       6.521  28.631  54.532  1.00  0.00    -0.066 N 
HETATM    2  H   UNL     1       6.212  29.612  54.544  1.00  0.00     0.280 HD
HETATM    3  C   UNL     1       5.531  27.870  55.390  1.00  0.00     0.246 C 
HETATM    4  C   UNL     1       5.498  28.386  56.832  1.00  0.00     0.064 C 
HETATM    5  C   UNL     1       6.904  28.515  57.431  1.00  0.00     0.014 C 
HETATM    6  C   UNL     1       7.895  29.217  56.510  1.00  0.00     0.028 C 
HETATM    7  C   UNL     1       7.913  28.601  55.119  1.00  0.00     0.235 C 
ENDROOT
BRANCH   4   8
HETATM    8  C   UNL     1       4.683  29.667  56.973  1.00  0.00     0.044 A 
HETATM    9  N   UNL     1       4.908  30.482  58.040  1.00  0.00    -0.227 NA
HETATM   10  C   UNL     1       4.048  31.522  58.169  1.00  0.00     0.188 A 
HETATM   11  N   UNL     1       3.115  31.871  57.277  1.00  0.00    -0.235 NA
HETATM   12  C   UNL     1       2.945  31.058  56.226  1.00  0.00     0.121 A 
HETATM   13  C   UNL     1       3.696  29.926  56.033  1.00  0.00     0.047 A 
BRANCH  10  14
HETATM   14  S   UNL     1       4.021  32.487  59.662  1.00  0.00    -0.088 SA
BRANCH  14  15
HETATM   15  C   UNL     1       5.780  32.784  59.956  1.00  0.00     0.110 C 
BRANCH  15  16
HETATM   16  C   UNL     1       6.231  32.327  61.344  1.00  0.00     0.245 C 
BRANCH  16  17
HETATM   17  N   UNL     1       7.729  32.325  61.522  1.00  0.00    -0.070 N 
HETATM   18  H   UNL     1       8.008  33.248  61.894  1.00  0.00     0.279 HD
HETATM   19  C   UNL     1       8.461  32.123  60.198  1.00  0.00     0.235 C 
HETATM   20  C   UNL     1       8.862  30.666  60.233  1.00  0.00     0.029 C 
HETATM   21  C   UNL     1       9.301  30.490  61.671  1.00  0.00     0.029 C 
HETATM   22  C   UNL     1       8.257  31.252  62.469  1.00  0.00     0.235 C 
ENDBRANCH  16  17
ENDBRANCH  15  16
ENDBRANCH  14  15
ENDBRANCH  10  14
ENDBRANCH   4   8
BRANCH   1  23
HETATM   23  C   UNL     1       6.522  28.146  53.088  1.00  0.00     0.280 C 
BRANCH  23  24
HETATM   24  C   UNL     1       6.358  26.662  52.969  1.00  0.00     0.010 A 
HETATM   25  S   UNL     1       7.727  25.624  52.960  1.00  0.00    -0.075 SA
HETATM   26  C   UNL     1       6.755  24.237  52.878  1.00  0.00     0.076 A 
HETATM   27  C   UNL     1       5.422  24.537  52.748  1.00  0.00     0.038 A 
HETATM   28  C   UNL     1       5.192  25.946  52.786  1.00  0.00     0.019 A 
BRANCH  26  29
HETATM   29  N   UNL     1       7.440  23.049  52.932  1.00  0.00    -0.322 N 
HETATM   30  C   UNL     1       7.603  22.336  54.106  1.00  0.00     0.218 C 
HETATM   31  C   UNL     1       8.303  21.019  53.899  1.00  0.00     0.117 C 
HETATM   32  O   UNL     1       7.297  22.742  55.225  1.00  0.00    -0.274 OA
HETATM   33  H   UNL     1       7.901  22.728  52.087  1.00  0.00     0.169 HD
ENDBRANCH  26  29
ENDBRANCH  23  24
ENDBRANCH   1  23
TORSDOF 8
ENDMDL
MODEL 10
REMARK VINA RESULT:      -7.9      6.731     10.735
REMARK  8 active torsions:
REMARK  status: ('A' for Active; 'I' for Inactive)
REMARK       I    between atoms: C_2  and  N_3 
REMARK    1  A    between atoms: N_3  and  C_4 
REMARK    2  A    between atoms: C_6  and  C_7 
REMARK    3  A    between atoms: C_7  and  N_8 
REMARK    4  A    between atoms: C_11  and  C_12 
REMARK    5  A    between atoms: C_14  and  S_15 
REMARK    6  A    between atoms: S_15  and  C_16 
REMARK    7  A    between atoms: C_16  and  C_17 
REMARK    8  A    between atoms: C_17  and  N_18 
ROOT
HETATM    1  N   UNL     1       6.826  27.368  56.778  1.00  0.00    -0.066 N 
HETATM    2  H   UNL     1       6.777  27.512  55.760  1.00  0.00     0.280 HD
HETATM    3  C   UNL     1       5.474  27.776  57.325  1.00  0.00     0.246 C 
HETATM    4  C   UNL     1       5.143  29.240  57.022  1.00  0.00     0.064 C 
HETATM    5  C   UNL     1       6.298  30.180  57.393  1.00  0.00     0.014 C 
HETATM    6  C   UNL     1       7.656  29.701  56.894  1.00  0.00     0.028 C 
HETATM    7  C   UNL     1       7.932  28.260  57.294  1.00  0.00     0.235 C 
ENDROOT
BRANCH   4   8
HETATM    8  C   UNL     1       4.661  29.445  55.590  1.00  0.00     0.044 A 
HETATM    9  N   UNL     1       4.795  28.430  54.693  1.00  0.00    -0.227 NA
HETATM   10  C   UNL     1       4.475  28.738  53.413  1.00  0.00     0.188 A 
HETATM   11  N   UNL     1       3.923  29.888  53.008  1.00  0.00    -0.235 NA
HETATM   12  C   UNL     1       3.782  30.851  53.928  1.00  0.00     0.121 A 
HETATM   13  C   UNL     1       4.152  30.687  55.239  1.00  0.00     0.047 A 
BRANCH  10  14
HETATM   14  S   UNL     1       4.885  27.625  52.089  1.00  0.00    -0.088 SA
BRANCH  14  15
HETATM   15  C   UNL     1       5.217  28.762  50.723  1.00  0.00     0.110 C 
BRANCH  15  16
HETATM   16  C   UNL     1       4.783  28.198  49.369  1.00  0.00     0.245 C 
BRANCH  16  17
HETATM   17  N   UNL     1       3.581  27.290  49.451  1.00  0.00    -0.070 N 
HETATM   18  H   UNL     1       3.364  27.136  50.449  1.00  0.00     0.279 HD
HETATM   19  C   UNL     1       3.852  25.926  48.824  1.00  0.00     0.235 C 
HETATM   20  C   UNL     1       3.184  26.018  47.470  1.00  0.00     0.029 C 
HETATM   21  C   UNL     1       1.897  26.745  47.799  1.00  0.00     0.029 C 
HETATM   22  C   UNL     1       2.327  27.831  48.770  1.00  0.00     0.235 C 
ENDBRANCH  16  17
ENDBRANCH  15  16
ENDBRANCH  14  15
ENDBRANCH  10  14
ENDBRANCH   4   8
BRANCH   1  23
HETATM   23  C   UNL     1       7.136  25.901  57.042  1.00  0.00     0.280 C 
BRANCH  23  24
HETATM   24  C   UNL     1       7.076  25.059  55.804  1.00  0.00     0.010 A 
HETATM   25  S   UNL     1       8.331  23.944  55.439  1.00  0.00    -0.075 SA
HETATM   26  C   UNL     1       7.529  23.399  54.048  1.00  0.00     0.076 A 
HETATM   27  C   UNL     1       6.385  24.111  53.788  1.00  0.00     0.038 A 
HETATM   28  C   UNL     1       6.129  25.086  54.800  1.00  0.00     0.019 A 
BRANCH  26  29
HETATM   29  N   UNL     1       8.147  22.361  53.395  1.00  0.00    -0.322 N 
HETATM   30  C   UNL     1       8.058  21.051  53.829  1.00  0.00     0.218 C 
HETATM   31  C   UNL     1       8.736  20.079  52.899  1.00  0.00     0.117 C 
HETATM   32  O   UNL     1       7.561  20.693  54.894  1.00  0.00    -0.274 OA
HETATM   33  H   UNL     1       8.747  22.585  52.608  1.00  0.00     0.169 HD
ENDBRANCH  26  29
ENDBRANCH  23  24
ENDBRANCH   1  23
TORSDOF 8
ENDMDL
