MODEL 1
REMARK VINA RESULT:     -10.3      0.000      0.000
REMARK  9 active torsions:
REMARK  status: ('A' for Active; 'I' for Inactive)
REMARK    1  A    between atoms: C_4  and  C_5 
REMARK    2  A    between atoms: C_7  and  O_8 
REMARK    3  A    between atoms: C_10  and  O_11 
REMARK    4  A    between atoms: C_16  and  C_17 
REMARK    5  A    between atoms: C_20  and  C_21 
REMARK    6  A    between atoms: C_21  and  N_22 
REMARK    7  A    between atoms: N_22  and  C_23 
REMARK    8  A    between atoms: C_23  and  N_24 
REMARK    9  A    between atoms: N_24  and  C_25 
ROOT
HETATM    1  C   UNL     1       4.924  29.450  55.363  1.00  0.00     0.067 C 
HETATM    2  C   UNL     1       5.288  30.948  55.463  1.00  0.00     0.001 C 
HETATM    3  C   UNL     1       5.247  31.475  56.917  1.00  0.00     0.040 C 
HETATM    4  C   UNL     1       3.845  31.315  57.534  1.00  0.00     0.206 C 
HETATM    5  N   UNL     1       3.015  30.506  56.547  1.00  0.00    -0.065 N 
HETATM    6  H   UNL     1       2.108  30.327  57.010  1.00  0.00     0.280 HD
HETATM    7  C   UNL     1       3.661  29.178  56.211  1.00  0.00     0.246 C 
HETATM    8  C   UNL     1       4.156  31.710  54.716  1.00  0.00     0.033 C 
HETATM    9  C   UNL     1       2.781  31.322  55.289  1.00  0.00     0.236 C 
ENDROOT
BRANCH   4  10
HETATM   10  C   UNL     1       3.871  30.686  58.949  1.00  0.00     0.155 C 
BRANCH  10  11
HETATM   11  N   UNL     1       3.139  31.393  60.002  1.00  0.00    -0.365 N 
HETATM   12  H   UNL     1       2.349  30.879  60.385  1.00  0.00     0.161 HD
BRANCH  11  13
HETATM   13  C   UNL     1       3.645  32.316  60.879  1.00  0.00     0.172 C 
HETATM   14  S   UNL     1       3.361  33.955  60.784  1.00  0.00    -0.041 SA
BRANCH  13  15
HETATM   15  N   UNL     1       4.285  31.807  61.974  1.00  0.00    -0.333 N 
HETATM   16  H   UNL     1       3.684  31.313  62.628  1.00  0.00     0.168 HD
BRANCH  15  17
HETATM   17  C   UNL     1       5.590  32.090  62.469  1.00  0.00     0.045 A 
HETATM   18  C   UNL     1       5.743  32.788  63.702  1.00  0.00     0.001 A 
HETATM   19  C   UNL     1       7.055  33.103  64.144  1.00  0.00    -0.024 A 
HETATM   20  C   UNL     1       4.667  33.170  64.542  1.00  0.00     0.014 A 
HETATM   21  C   UNL     1       7.250  33.782  65.357  1.00  0.00     0.012 A 
HETATM   22  C   UNL     1       8.164  32.735  63.372  1.00  0.00     0.012 A 
HETATM   23  C   UNL     1       6.169  34.154  66.152  1.00  0.00     0.001 A 
HETATM   24  C   UNL     1       4.878  33.846  65.747  1.00  0.00     0.001 A 
HETATM   25  C   UNL     1       8.001  32.072  62.159  1.00  0.00     0.003 A 
HETATM   26  C   UNL     1       6.723  31.760  61.708  1.00  0.00     0.030 A 
ENDBRANCH  15  17
ENDBRANCH  13  15
ENDBRANCH  11  13
ENDBRANCH  10  11
ENDBRANCH   4  10
BRANCH   1  27
HETATM   27  C   UNL     1       5.944  28.362  55.557  1.00  0.00     0.038 C 
HETATM   28  N   UNL     1       6.811  28.086  56.587  1.00  0.00    -0.277 N 
HETATM   29  C   UNL     1       7.156  28.836  57.770  1.00  0.00     0.179 C 
HETATM   30  N   UNL     1       7.411  26.889  56.462  1.00  0.00    -0.172 NA
HETATM   31  C   UNL     1       7.086  26.438  55.246  1.00  0.00     0.089 C 
HETATM   32  C   UNL     1       6.178  27.340  54.645  1.00  0.00     0.061 C 
BRANCH  31  33
HETATM   33  C   UNL     1       7.594  25.169  54.715  1.00  0.00    -0.003 A 
HETATM   34  C   UNL     1       8.158  24.211  55.574  1.00  0.00     0.053 A 
HETATM   35  C   UNL     1       8.614  22.980  55.083  1.00  0.00     0.102 A 
HETATM   36  C   UNL     1       8.505  22.693  53.708  1.00  0.00     0.101 A 
HETATM   37  C   UNL     1       7.962  23.649  52.849  1.00  0.00     0.040 A 
HETATM   38  C   UNL     1       7.510  24.875  53.348  1.00  0.00     0.017 A 
BRANCH  35  39
HETATM   39  O   UNL     1       9.163  21.990  55.862  1.00  0.00    -0.353 OA
HETATM   40  C   UNL     1       8.292  21.254  56.707  1.00  0.00     0.210 C 
ENDBRANCH  35  39
BRANCH  36  41
HETATM   41  O   UNL     1       8.964  21.463  53.308  1.00  0.00    -0.353 OA
HETATM   42  C   UNL     1       8.008  20.515  52.855  1.00  0.00     0.210 C 
ENDBRANCH  36  41
ENDBRANCH  31  33
ENDBRANCH   1  27
TORSDOF 9
ENDMDL
MODEL 2
REMARK VINA RESULT:     -10.2      4.320     11.240
REMARK  9 active torsions:
REMARK  status: ('A' for Active; 'I' for Inactive)
REMARK    1  A    between atoms: C_4  and  C_5 
REMARK    2  A    between atoms: C_7  and  O_8 
REMARK    3  A    between atoms: C_10  and  O_11 
REMARK    4  A    between atoms: C_16  and  C_17 
REMARK    5  A    between atoms: C_20  and  C_21 
REMARK    6  A    between atoms: C_21  and  N_22 
REMARK    7  A    between atoms: N_22  and  C_23 
REMARK    8  A    between atoms: C_23  and  N_24 
REMARK    9  A    between atoms: N_24  and  C_25 
ROOT
HETATM    1  C   UNL     1       5.932  31.326  57.203  1.00  0.00     0.067 C 
HETATM    2  C   UNL     1       4.405  31.378  56.974  1.00  0.00     0.001 C 
HETATM    3  C   UNL     1       3.718  30.015  57.227  1.00  0.00     0.040 C 
HETATM    4  C   UNL     1       4.272  28.923  56.294  1.00  0.00     0.206 C 
HETATM    5  N   UNL     1       5.459  29.528  55.558  1.00  0.00    -0.065 N 
HETATM    6  H   UNL     1       5.879  28.762  55.004  1.00  0.00     0.280 HD
HETATM    7  C   UNL     1       6.506  30.070  56.509  1.00  0.00     0.246 C 
HETATM    8  C   UNL     1       4.213  31.659  55.455  1.00  0.00     0.033 C 
HETATM    9  C   UNL     1       4.975  30.617  54.618  1.00  0.00     0.236 C 
ENDROOT
BRANCH   4  10
HETATM   10  C   UNL     1       4.635  27.613  57.037  1.00  0.00     0.155 C 
BRANCH  10  11
HETATM   11  N   UNL     1       5.244  26.546  56.239  1.00  0.00    -0.365 N 
HETATM   12  H   UNL     1       5.034  26.589  55.245  1.00  0.00     0.161 HD
BRANCH  11  13
HETATM   13  C   UNL     1       6.415  25.887  56.505  1.00  0.00     0.172 C 
HETATM   14  S   UNL     1       7.665  26.522  57.405  1.00  0.00    -0.041 SA
BRANCH  13  15
HETATM   15  N   UNL     1       6.459  24.575  56.127  1.00  0.00    -0.333 N 
HETATM   16  H   UNL     1       6.291  23.909  56.877  1.00  0.00     0.168 HD
BRANCH  15  17
HETATM   17  C   UNL     1       6.961  23.997  54.927  1.00  0.00     0.045 A 
HETATM   18  C   UNL     1       7.515  22.684  54.952  1.00  0.00     0.001 A 
HETATM   19  C   UNL     1       8.058  22.155  53.752  1.00  0.00    -0.024 A 
HETATM   20  C   UNL     1       7.538  21.848  56.097  1.00  0.00     0.014 A 
HETATM   21  C   UNL     1       8.605  20.862  53.730  1.00  0.00     0.012 A 
HETATM   22  C   UNL     1       8.048  22.920  52.578  1.00  0.00     0.012 A 
HETATM   23  C   UNL     1       8.622  20.072  54.877  1.00  0.00     0.001 A 
HETATM   24  C   UNL     1       8.086  20.563  56.060  1.00  0.00     0.001 A 
HETATM   25  C   UNL     1       7.524  24.209  52.571  1.00  0.00     0.003 A 
HETATM   26  C   UNL     1       6.993  24.745  53.739  1.00  0.00     0.030 A 
ENDBRANCH  15  17
ENDBRANCH  13  15
ENDBRANCH  11  13
ENDBRANCH  10  11
ENDBRANCH   4  10
BRANCH   1  27
HETATM   27  C   UNL     1       6.545  31.515  58.562  1.00  0.00     0.038 C 
HETATM   28  N   UNL     1       7.841  31.416  59.011  1.00  0.00    -0.277 N 
HETATM   29  C   UNL     1       9.039  30.941  58.363  1.00  0.00     0.179 C 
HETATM   30  N   UNL     1       8.000  31.875  60.264  1.00  0.00    -0.172 NA
HETATM   31  C   UNL     1       6.770  32.111  60.730  1.00  0.00     0.089 C 
HETATM   32  C   UNL     1       5.832  31.886  59.696  1.00  0.00     0.061 C 
BRANCH  31  33
HETATM   33  C   UNL     1       6.521  32.580  62.097  1.00  0.00    -0.003 A 
HETATM   34  C   UNL     1       5.226  32.936  62.505  1.00  0.00     0.053 A 
HETATM   35  C   UNL     1       4.970  33.351  63.819  1.00  0.00     0.102 A 
HETATM   36  C   UNL     1       6.026  33.413  64.750  1.00  0.00     0.101 A 
HETATM   37  C   UNL     1       7.319  33.078  64.343  1.00  0.00     0.040 A 
HETATM   38  C   UNL     1       7.563  32.665  63.030  1.00  0.00     0.017 A 
BRANCH  35  39
HETATM   39  O   UNL     1       3.729  33.700  64.294  1.00  0.00    -0.353 OA
HETATM   40  C   UNL     1       2.749  34.105  63.351  1.00  0.00     0.210 C 
ENDBRANCH  35  39
BRANCH  36  41
HETATM   41  O   UNL     1       5.693  33.819  66.018  1.00  0.00    -0.353 OA
HETATM   42  C   UNL     1       6.744  34.232  66.879  1.00  0.00     0.210 C 
ENDBRANCH  36  41
ENDBRANCH  31  33
ENDBRANCH   1  27
TORSDOF 9
ENDMDL
MODEL 3
REMARK VINA RESULT:     -10.1      0.942      2.276
REMARK  9 active torsions:
REMARK  status: ('A' for Active; 'I' for Inactive)
REMARK    1  A    between atoms: C_4  and  C_5 
REMARK    2  A    between atoms: C_7  and  O_8 
REMARK    3  A    between atoms: C_10  and  O_11 
REMARK    4  A    between atoms: C_16  and  C_17 
REMARK    5  A    between atoms: C_20  and  C_21 
REMARK    6  A    between atoms: C_21  and  N_22 
REMARK    7  A    between atoms: N_22  and  C_23 
REMARK    8  A    between atoms: C_23  and  N_24 
REMARK    9  A    between atoms: N_24  and  C_25 
ROOT
HETATM    1  C   UNL     1       4.837  29.538  55.429  1.00  0.00     0.067 C 
HETATM    2  C   UNL     1       5.212  31.036  55.465  1.00  0.00     0.001 C 
HETATM    3  C   UNL     1       5.249  31.607  56.902  1.00  0.00     0.040 C 
HETATM    4  C   UNL     1       3.881  31.473  57.596  1.00  0.00     0.206 C 
HETATM    5  N   UNL     1       2.997  30.640  56.679  1.00  0.00    -0.065 N 
HETATM    6  H   UNL     1       2.115  30.479  57.193  1.00  0.00     0.280 HD
HETATM    7  C   UNL     1       3.619  29.299  56.350  1.00  0.00     0.246 C 
HETATM    8  C   UNL     1       4.046  31.782  54.755  1.00  0.00     0.033 C 
HETATM    9  C   UNL     1       2.701  31.419  55.411  1.00  0.00     0.236 C 
ENDROOT
BRANCH   4  10
HETATM   10  C   UNL     1       3.978  30.886  59.027  1.00  0.00     0.155 C 
BRANCH  10  11
HETATM   11  N   UNL     1       3.400  31.684  60.111  1.00  0.00    -0.365 N 
HETATM   12  H   UNL     1       3.150  31.151  60.940  1.00  0.00     0.161 HD
BRANCH  11  13
HETATM   13  C   UNL     1       3.649  33.003  60.385  1.00  0.00     0.172 C 
HETATM   14  S   UNL     1       2.487  34.099  60.858  1.00  0.00    -0.041 SA
BRANCH  13  15
HETATM   15  N   UNL     1       4.966  33.366  60.415  1.00  0.00    -0.333 N 
HETATM   16  H   UNL     1       5.345  33.670  59.522  1.00  0.00     0.168 HD
BRANCH  15  17
HETATM   17  C   UNL     1       5.944  33.130  61.422  1.00  0.00     0.045 A 
HETATM   18  C   UNL     1       7.206  32.574  61.066  1.00  0.00     0.001 A 
HETATM   19  C   UNL     1       8.142  32.299  62.098  1.00  0.00    -0.024 A 
HETATM   20  C   UNL     1       7.611  32.298  59.735  1.00  0.00     0.014 A 
HETATM   21  C   UNL     1       9.401  31.760  61.789  1.00  0.00     0.012 A 
HETATM   22  C   UNL     1       7.815  32.569  63.433  1.00  0.00     0.012 A 
HETATM   23  C   UNL     1       9.761  31.489  60.471  1.00  0.00     0.001 A 
HETATM   24  C   UNL     1       8.868  31.760  59.444  1.00  0.00     0.001 A 
HETATM   25  C   UNL     1       6.571  33.092  63.771  1.00  0.00     0.003 A 
HETATM   26  C   UNL     1       5.640  33.361  62.774  1.00  0.00     0.030 A 
ENDBRANCH  15  17
ENDBRANCH  13  15
ENDBRANCH  11  13
ENDBRANCH  10  11
ENDBRANCH   4  10
BRANCH   1  27
HETATM   27  C   UNL     1       5.862  28.451  55.603  1.00  0.00     0.038 C 
HETATM   28  N   UNL     1       6.747  28.172  56.617  1.00  0.00    -0.277 N 
HETATM   29  C   UNL     1       7.110  28.919  57.796  1.00  0.00     0.179 C 
HETATM   30  N   UNL     1       7.345  26.976  56.479  1.00  0.00    -0.172 NA
HETATM   31  C   UNL     1       7.001  26.529  55.267  1.00  0.00     0.089 C 
HETATM   32  C   UNL     1       6.082  27.431  54.684  1.00  0.00     0.061 C 
BRANCH  31  33
HETATM   33  C   UNL     1       7.501  25.262  54.724  1.00  0.00    -0.003 A 
HETATM   34  C   UNL     1       8.116  24.319  55.563  1.00  0.00     0.053 A 
HETATM   35  C   UNL     1       8.566  23.090  55.062  1.00  0.00     0.102 A 
HETATM   36  C   UNL     1       8.399  22.790  53.696  1.00  0.00     0.101 A 
HETATM   37  C   UNL     1       7.805  23.732  52.854  1.00  0.00     0.040 A 
HETATM   38  C   UNL     1       7.360  24.956  53.364  1.00  0.00     0.017 A 
BRANCH  35  39
HETATM   39  O   UNL     1       9.162  22.114  55.823  1.00  0.00    -0.353 OA
HETATM   40  C   UNL     1       8.341  21.376  56.716  1.00  0.00     0.210 C 
ENDBRANCH  35  39
BRANCH  36  41
HETATM   41  O   UNL     1       8.856  21.562  53.285  1.00  0.00    -0.353 OA
HETATM   42  C   UNL     1       7.892  20.561  52.992  1.00  0.00     0.210 C 
ENDBRANCH  36  41
ENDBRANCH  31  33
ENDBRANCH   1  27
TORSDOF 9
ENDMDL
MODEL 4
REMARK VINA RESULT:     -10.1      4.078      5.705
REMARK  9 active torsions:
REMARK  status: ('A' for Active; 'I' for Inactive)
REMARK    1  A    between atoms: C_4  and  C_5 
REMARK    2  A    between atoms: C_7  and  O_8 
REMARK    3  A    between atoms: C_10  and  O_11 
REMARK    4  A    between atoms: C_16  and  C_17 
REMARK    5  A    between atoms: C_20  and  C_21 
REMARK    6  A    between atoms: C_21  and  N_22 
REMARK    7  A    between atoms: N_22  and  C_23 
REMARK    8  A    between atoms: C_23  and  N_24 
REMARK    9  A    between atoms: N_24  and  C_25 
ROOT
HETATM    1  C   UNL     1       7.231  27.106  55.181  1.00  0.00     0.067 C 
HETATM    2  C   UNL     1       6.544  26.794  56.530  1.00  0.00     0.001 C 
HETATM    3  C   UNL     1       5.524  27.881  56.944  1.00  0.00     0.040 C 
HETATM    4  C   UNL     1       6.198  29.258  57.094  1.00  0.00     0.206 C 
HETATM    5  N   UNL     1       7.626  29.110  56.591  1.00  0.00    -0.065 N 
HETATM    6  H   UNL     1       8.040  30.057  56.611  1.00  0.00     0.280 HD
HETATM    7  C   UNL     1       7.682  28.584  55.172  1.00  0.00     0.246 C 
HETATM    8  C   UNL     1       7.670  26.856  57.602  1.00  0.00     0.033 C 
HETATM    9  C   UNL     1       8.406  28.206  57.529  1.00  0.00     0.236 C 
ENDROOT
BRANCH   4  10
HETATM   10  C   UNL     1       5.427  30.394  56.378  1.00  0.00     0.155 C 
BRANCH  10  11
HETATM   11  N   UNL     1       5.447  31.713  57.015  1.00  0.00    -0.365 N 
HETATM   12  H   UNL     1       5.250  32.488  56.387  1.00  0.00     0.161 HD
BRANCH  11  13
HETATM   13  C   UNL     1       5.149  32.001  58.321  1.00  0.00     0.172 C 
HETATM   14  S   UNL     1       3.782  31.468  59.110  1.00  0.00    -0.041 SA
BRANCH  13  15
HETATM   15  N   UNL     1       6.133  32.630  59.031  1.00  0.00    -0.333 N 
HETATM   16  H   UNL     1       6.401  33.542  58.671  1.00  0.00     0.168 HD
BRANCH  15  17
HETATM   17  C   UNL     1       7.015  32.101  60.016  1.00  0.00     0.045 A 
HETATM   18  C   UNL     1       7.007  32.641  61.334  1.00  0.00     0.001 A 
HETATM   19  C   UNL     1       7.935  32.131  62.280  1.00  0.00    -0.024 A 
HETATM   20  C   UNL     1       6.110  33.644  61.782  1.00  0.00     0.014 A 
HETATM   21  C   UNL     1       7.955  32.628  63.593  1.00  0.00     0.012 A 
HETATM   22  C   UNL     1       8.835  31.124  61.909  1.00  0.00     0.012 A 
HETATM   23  C   UNL     1       7.068  33.623  63.996  1.00  0.00     0.001 A 
HETATM   24  C   UNL     1       6.143  34.129  63.093  1.00  0.00     0.001 A 
HETATM   25  C   UNL     1       8.847  30.619  60.613  1.00  0.00     0.003 A 
HETATM   26  C   UNL     1       7.949  31.111  59.671  1.00  0.00     0.030 A 
ENDBRANCH  15  17
ENDBRANCH  13  15
ENDBRANCH  11  13
ENDBRANCH  10  11
ENDBRANCH   4  10
BRANCH   1  27
HETATM   27  C   UNL     1       6.616  26.725  53.863  1.00  0.00     0.038 C 
HETATM   28  N   UNL     1       6.199  25.518  53.355  1.00  0.00    -0.277 N 
HETATM   29  C   UNL     1       6.352  24.172  53.851  1.00  0.00     0.179 C 
HETATM   30  N   UNL     1       5.504  25.640  52.211  1.00  0.00    -0.172 NA
HETATM   31  C   UNL     1       5.615  26.922  51.847  1.00  0.00     0.089 C 
HETATM   32  C   UNL     1       6.314  27.630  52.852  1.00  0.00     0.061 C 
BRANCH  31  33
HETATM   33  C   UNL     1       5.026  27.443  50.609  1.00  0.00    -0.003 A 
HETATM   34  C   UNL     1       4.795  26.593  49.516  1.00  0.00     0.053 A 
HETATM   35  C   UNL     1       4.200  27.071  48.341  1.00  0.00     0.102 A 
HETATM   36  C   UNL     1       3.824  28.426  48.250  1.00  0.00     0.101 A 
HETATM   37  C   UNL     1       4.069  29.279  49.328  1.00  0.00     0.040 A 
HETATM   38  C   UNL     1       4.663  28.792  50.497  1.00  0.00     0.017 A 
BRANCH  35  39
HETATM   39  O   UNL     1       3.929  26.298  47.238  1.00  0.00    -0.353 OA
HETATM   40  C   UNL     1       2.986  25.247  47.382  1.00  0.00     0.210 C 
ENDBRANCH  35  39
BRANCH  36  41
HETATM   41  O   UNL     1       3.238  28.815  47.072  1.00  0.00    -0.353 OA
HETATM   42  C   UNL     1       1.854  29.135  47.094  1.00  0.00     0.210 C 
ENDBRANCH  36  41
ENDBRANCH  31  33
ENDBRANCH   1  27
TORSDOF 9
ENDMDL
MODEL 5
REMARK VINA RESULT:     -10.0      4.741      9.652
REMARK  9 active torsions:
REMARK  status: ('A' for Active; 'I' for Inactive)
REMARK    1  A    between atoms: C_4  and  C_5 
REMARK    2  A    between atoms: C_7  and  O_8 
REMARK    3  A    between atoms: C_10  and  O_11 
REMARK    4  A    between atoms: C_16  and  C_17 
REMARK    5  A    between atoms: C_20  and  C_21 
REMARK    6  A    between atoms: C_21  and  N_22 
REMARK    7  A    between atoms: N_22  and  C_23 
REMARK    8  A    between atoms: C_23  and  N_24 
REMARK    9  A    between atoms: N_24  and  C_25 
ROOT
HETATM    1  C   UNL     1       3.995  30.726  55.253  1.00  0.00     0.067 C 
HETATM    2  C   UNL     1       5.453  30.824  55.756  1.00  0.00     0.001 C 
HETATM    3  C   UNL     1       6.089  29.438  56.015  1.00  0.00     0.040 C 
HETATM    4  C   UNL     1       5.303  28.648  57.077  1.00  0.00     0.206 C 
HETATM    5  N   UNL     1       4.040  29.442  57.377  1.00  0.00    -0.065 N 
HETATM    6  H   UNL     1       3.477  28.860  58.021  1.00  0.00     0.280 HD
HETATM    7  C   UNL     1       3.225  29.712  56.129  1.00  0.00     0.246 C 
HETATM    8  C   UNL     1       5.375  31.508  57.151  1.00  0.00     0.033 C 
HETATM    9  C   UNL     1       4.407  30.741  58.070  1.00  0.00     0.236 C 
ENDROOT
BRANCH   4  10
HETATM   10  C   UNL     1       5.005  27.188  56.653  1.00  0.00     0.155 C 
BRANCH  10  11
HETATM   11  N   UNL     1       5.691  26.129  57.397  1.00  0.00    -0.365 N 
HETATM   12  H   UNL     1       5.099  25.620  58.050  1.00  0.00     0.161 HD
BRANCH  11  13
HETATM   13  C   UNL     1       6.769  25.395  56.978  1.00  0.00     0.172 C 
HETATM   14  S   UNL     1       8.345  25.706  57.421  1.00  0.00    -0.041 SA
BRANCH  13  15
HETATM   15  N   UNL     1       6.479  24.253  56.286  1.00  0.00    -0.333 N 
HETATM   16  H   UNL     1       6.037  23.522  56.836  1.00  0.00     0.168 HD
BRANCH  15  17
HETATM   17  C   UNL     1       6.936  23.834  55.004  1.00  0.00     0.045 A 
HETATM   18  C   UNL     1       7.542  22.553  54.854  1.00  0.00     0.001 A 
HETATM   19  C   UNL     1       8.037  22.183  53.576  1.00  0.00    -0.024 A 
HETATM   20  C   UNL     1       7.661  21.599  55.896  1.00  0.00     0.014 A 
HETATM   21  C   UNL     1       8.633  20.927  53.382  1.00  0.00     0.012 A 
HETATM   22  C   UNL     1       7.931  23.071  52.497  1.00  0.00     0.012 A 
HETATM   23  C   UNL     1       8.745  20.017  54.431  1.00  0.00     0.001 A 
HETATM   24  C   UNL     1       8.257  20.351  55.687  1.00  0.00     0.001 A 
HETATM   25  C   UNL     1       7.358  24.328  52.661  1.00  0.00     0.003 A 
HETATM   26  C   UNL     1       6.872  24.709  53.908  1.00  0.00     0.030 A 
ENDBRANCH  15  17
ENDBRANCH  13  15
ENDBRANCH  11  13
ENDBRANCH  10  11
ENDBRANCH   4  10
BRANCH   1  27
HETATM   27  C   UNL     1       3.660  30.542  53.799  1.00  0.00     0.038 C 
HETATM   28  N   UNL     1       3.238  31.423  52.832  1.00  0.00    -0.277 N 
HETATM   29  C   UNL     1       2.817  32.800  52.916  1.00  0.00     0.179 C 
HETATM   30  N   UNL     1       3.255  30.895  51.596  1.00  0.00    -0.172 NA
HETATM   31  C   UNL     1       3.512  29.592  51.755  1.00  0.00     0.089 C 
HETATM   32  C   UNL     1       3.760  29.332  53.122  1.00  0.00     0.061 C 
BRANCH  31  33
HETATM   33  C   UNL     1       3.564  28.657  50.626  1.00  0.00    -0.003 A 
HETATM   34  C   UNL     1       2.728  28.835  49.512  1.00  0.00     0.053 A 
HETATM   35  C   UNL     1       2.794  27.969  48.413  1.00  0.00     0.102 A 
HETATM   36  C   UNL     1       3.713  26.901  48.419  1.00  0.00     0.101 A 
HETATM   37  C   UNL     1       4.533  26.709  49.533  1.00  0.00     0.040 A 
HETATM   38  C   UNL     1       4.460  27.579  50.625  1.00  0.00     0.017 A 
BRANCH  35  39
HETATM   39  O   UNL     1       2.020  28.088  47.285  1.00  0.00    -0.353 OA
HETATM   40  C   UNL     1       0.682  27.614  47.346  1.00  0.00     0.210 C 
ENDBRANCH  35  39
BRANCH  36  41
HETATM   41  O   UNL     1       3.724  26.104  47.302  1.00  0.00    -0.353 OA
HETATM   42  C   UNL     1       3.097  24.833  47.389  1.00  0.00     0.210 C 
ENDBRANCH  36  41
ENDBRANCH  31  33
ENDBRANCH   1  27
TORSDOF 9
ENDMDL
MODEL 6
REMARK VINA RESULT:      -9.9      2.110      2.795
REMARK  9 active torsions:
REMARK  status: ('A' for Active; 'I' for Inactive)
REMARK    1  A    between atoms: C_4  and  C_5 
REMARK    2  A    between atoms: C_7  and  O_8 
REMARK    3  A    between atoms: C_10  and  O_11 
REMARK    4  A    between atoms: C_16  and  C_17 
REMARK    5  A    between atoms: C_20  and  C_21 
REMARK    6  A    between atoms: C_21  and  N_22 
REMARK    7  A    between atoms: N_22  and  C_23 
REMARK    8  A    between atoms: C_23  and  N_24 
REMARK    9  A    between atoms: N_24  and  C_25 
ROOT
HETATM    1  C   UNL     1       4.048  28.959  55.601  1.00  0.00     0.067 C 
HETATM    2  C   UNL     1       4.193  30.479  55.364  1.00  0.00     0.001 C 
HETATM    3  C   UNL     1       5.516  31.047  55.931  1.00  0.00     0.040 C 
HETATM    4  C   UNL     1       5.621  30.820  57.450  1.00  0.00     0.206 C 
HETATM    5  N   UNL     1       4.451  29.932  57.848  1.00  0.00    -0.065 N 
HETATM    6  H   UNL     1       4.582  29.711  58.850  1.00  0.00     0.280 HD
HETATM    7  C   UNL     1       4.423  28.636  57.065  1.00  0.00     0.246 C 
HETATM    8  C   UNL     1       3.065  31.148  56.203  1.00  0.00     0.033 C 
HETATM    9  C   UNL     1       3.150  30.694  57.671  1.00  0.00     0.236 C 
ENDROOT
BRANCH   4  10
HETATM   10  C   UNL     1       6.988  30.237  57.885  1.00  0.00     0.155 C 
BRANCH  10  11
HETATM   11  N   UNL     1       7.930  31.160  58.524  1.00  0.00    -0.365 N 
HETATM   12  H   UNL     1       8.108  32.012  57.997  1.00  0.00     0.161 HD
BRANCH  11  13
HETATM   13  C   UNL     1       8.150  31.312  59.867  1.00  0.00     0.172 C 
HETATM   14  S   UNL     1       9.646  31.583  60.548  1.00  0.00    -0.041 SA
BRANCH  13  15
HETATM   15  N   UNL     1       7.031  31.400  60.647  1.00  0.00    -0.333 N 
HETATM   16  H   UNL     1       6.539  30.521  60.786  1.00  0.00     0.168 HD
BRANCH  15  17
HETATM   17  C   UNL     1       6.309  32.554  61.063  1.00  0.00     0.045 A 
HETATM   18  C   UNL     1       6.522  33.089  62.367  1.00  0.00     0.001 A 
HETATM   19  C   UNL     1       5.748  34.208  62.774  1.00  0.00    -0.024 A 
HETATM   20  C   UNL     1       7.481  32.596  63.286  1.00  0.00     0.014 A 
HETATM   21  C   UNL     1       5.932  34.772  64.046  1.00  0.00     0.012 A 
HETATM   22  C   UNL     1       4.797  34.759  61.905  1.00  0.00     0.012 A 
HETATM   23  C   UNL     1       6.876  34.254  64.930  1.00  0.00     0.001 A 
HETATM   24  C   UNL     1       7.653  33.168  64.550  1.00  0.00     0.001 A 
HETATM   25  C   UNL     1       4.584  34.214  60.643  1.00  0.00     0.003 A 
HETATM   26  C   UNL     1       5.328  33.115  60.230  1.00  0.00     0.030 A 
ENDBRANCH  15  17
ENDBRANCH  13  15
ENDBRANCH  11  13
ENDBRANCH  10  11
ENDBRANCH   4  10
BRANCH   1  27
HETATM   27  C   UNL     1       4.634  27.943  54.661  1.00  0.00     0.038 C 
HETATM   28  N   UNL     1       4.629  27.845  53.290  1.00  0.00    -0.277 N 
HETATM   29  C   UNL     1       3.923  28.599  52.283  1.00  0.00     0.179 C 
HETATM   30  N   UNL     1       5.457  26.891  52.827  1.00  0.00    -0.172 NA
HETATM   31  C   UNL     1       5.880  26.217  53.902  1.00  0.00     0.089 C 
HETATM   32  C   UNL     1       5.377  26.840  55.067  1.00  0.00     0.061 C 
BRANCH  31  33
HETATM   33  C   UNL     1       6.771  25.056  53.803  1.00  0.00    -0.003 A 
HETATM   34  C   UNL     1       7.265  24.436  54.962  1.00  0.00     0.053 A 
HETATM   35  C   UNL     1       8.087  23.305  54.881  1.00  0.00     0.102 A 
HETATM   36  C   UNL     1       8.425  22.775  53.620  1.00  0.00     0.101 A 
HETATM   37  C   UNL     1       7.950  23.399  52.465  1.00  0.00     0.040 A 
HETATM   38  C   UNL     1       7.130  24.529  52.556  1.00  0.00     0.017 A 
BRANCH  35  39
HETATM   39  O   UNL     1       8.597  22.637  55.968  1.00  0.00    -0.353 OA
HETATM   40  C   UNL     1       8.467  23.249  57.242  1.00  0.00     0.210 C 
ENDBRANCH  35  39
BRANCH  36  41
HETATM   41  O   UNL     1       9.225  21.660  53.625  1.00  0.00    -0.353 OA
HETATM   42  C   UNL     1       8.592  20.390  53.562  1.00  0.00     0.210 C 
ENDBRANCH  36  41
ENDBRANCH  31  33
ENDBRANCH   1  27
TORSDOF 9
ENDMDL
MODEL 7
REMARK VINA RESULT:      -9.7      2.158      2.905
REMARK  9 active torsions:
REMARK  status: ('A' for Active; 'I' for Inactive)
REMARK    1  A    between atoms: C_4  and  C_5 
REMARK    2  A    between atoms: C_7  and  O_8 
REMARK    3  A    between atoms: C_10  and  O_11 
REMARK    4  A    between atoms: C_16  and  C_17 
REMARK    5  A    between atoms: C_20  and  C_21 
REMARK    6  A    between atoms: C_21  and  N_22 
REMARK    7  A    between atoms: N_22  and  C_23 
REMARK    8  A    between atoms: C_23  and  N_24 
REMARK    9  A    between atoms: N_24  and  C_25 
ROOT
HETATM    1  C   UNL     1       4.230  29.004  55.929  1.00  0.00     0.067 C 
HETATM    2  C   UNL     1       4.180  30.536  55.737  1.00  0.00     0.001 C 
HETATM    3  C   UNL     1       5.457  31.243  56.250  1.00  0.00     0.040 C 
HETATM    4  C   UNL     1       5.675  30.989  57.753  1.00  0.00     0.206 C 
HETATM    5  N   UNL     1       4.643  29.957  58.184  1.00  0.00    -0.065 N 
HETATM    6  H   UNL     1       4.857  29.726  59.169  1.00  0.00     0.280 HD
HETATM    7  C   UNL     1       4.724  28.689  57.360  1.00  0.00     0.246 C 
HETATM    8  C   UNL     1       3.031  31.041  56.657  1.00  0.00     0.033 C 
HETATM    9  C   UNL     1       3.253  30.561  58.102  1.00  0.00     0.236 C 
ENDROOT
BRANCH   4  10
HETATM   10  C   UNL     1       7.125  30.563  58.094  1.00  0.00     0.155 C 
BRANCH  10  11
HETATM   11  N   UNL     1       7.841  31.377  59.079  1.00  0.00    -0.365 N 
HETATM   12  H   UNL     1       7.762  32.381  58.934  1.00  0.00     0.161 HD
BRANCH  11  13
HETATM   13  C   UNL     1       8.102  31.050  60.383  1.00  0.00     0.172 C 
HETATM   14  S   UNL     1       9.607  30.627  60.960  1.00  0.00    -0.041 SA
BRANCH  13  15
HETATM   15  N   UNL     1       7.076  31.248  61.264  1.00  0.00    -0.333 N 
HETATM   16  H   UNL     1       6.248  30.687  61.086  1.00  0.00     0.168 HD
BRANCH  15  17
HETATM   17  C   UNL     1       6.889  32.295  62.211  1.00  0.00     0.045 A 
HETATM   18  C   UNL     1       6.015  33.377  61.904  1.00  0.00     0.001 A 
HETATM   19  C   UNL     1       5.889  34.434  62.844  1.00  0.00    -0.024 A 
HETATM   20  C   UNL     1       5.231  33.462  60.726  1.00  0.00     0.014 A 
HETATM   21  C   UNL     1       5.032  35.515  62.586  1.00  0.00     0.012 A 
HETATM   22  C   UNL     1       6.619  34.402  64.039  1.00  0.00     0.012 A 
HETATM   23  C   UNL     1       4.285  35.573  61.411  1.00  0.00     0.001 A 
HETATM   24  C   UNL     1       4.382  34.546  60.483  1.00  0.00     0.001 A 
HETATM   25  C   UNL     1       7.486  33.350  64.318  1.00  0.00     0.003 A 
HETATM   26  C   UNL     1       7.626  32.309  63.406  1.00  0.00     0.030 A 
ENDBRANCH  15  17
ENDBRANCH  13  15
ENDBRANCH  11  13
ENDBRANCH  10  11
ENDBRANCH   4  10
BRANCH   1  27
HETATM   27  C   UNL     1       4.877  28.091  54.926  1.00  0.00     0.038 C 
HETATM   28  N   UNL     1       5.054  28.193  53.566  1.00  0.00    -0.277 N 
HETATM   29  C   UNL     1       4.538  29.139  52.607  1.00  0.00     0.179 C 
HETATM   30  N   UNL     1       5.878  27.253  53.070  1.00  0.00    -0.172 NA
HETATM   31  C   UNL     1       6.110  26.400  54.073  1.00  0.00     0.089 C 
HETATM   32  C   UNL     1       5.491  26.885  55.248  1.00  0.00     0.061 C 
BRANCH  31  33
HETATM   33  C   UNL     1       6.935  25.198  53.910  1.00  0.00    -0.003 A 
HETATM   34  C   UNL     1       7.600  24.634  55.011  1.00  0.00     0.053 A 
HETATM   35  C   UNL     1       8.361  23.466  54.874  1.00  0.00     0.102 A 
HETATM   36  C   UNL     1       8.464  22.843  53.615  1.00  0.00     0.101 A 
HETATM   37  C   UNL     1       7.820  23.411  52.514  1.00  0.00     0.040 A 
HETATM   38  C   UNL     1       7.063  24.577  52.661  1.00  0.00     0.017 A 
BRANCH  35  39
HETATM   39  O   UNL     1       9.026  22.849  55.905  1.00  0.00    -0.353 OA
HETATM   40  C   UNL     1       8.301  22.587  57.098  1.00  0.00     0.210 C 
ENDBRANCH  35  39
BRANCH  36  41
HETATM   41  O   UNL     1       9.219  21.697  53.565  1.00  0.00    -0.353 OA
HETATM   42  C   UNL     1       8.544  20.453  53.683  1.00  0.00     0.210 C 
ENDBRANCH  36  41
ENDBRANCH  31  33
ENDBRANCH   1  27
TORSDOF 9
ENDMDL
MODEL 8
REMARK VINA RESULT:      -9.5      8.351     12.161
REMARK  9 active torsions:
REMARK  status: ('A' for Active; 'I' for Inactive)
REMARK    1  A    between atoms: C_4  and  C_5 
REMARK    2  A    between atoms: C_7  and  O_8 
REMARK    3  A    between atoms: C_10  and  O_11 
REMARK    4  A    between atoms: C_16  and  C_17 
REMARK    5  A    between atoms: C_20  and  C_21 
REMARK    6  A    between atoms: C_21  and  N_22 
REMARK    7  A    between atoms: N_22  and  C_23 
REMARK    8  A    between atoms: C_23  and  N_24 
REMARK    9  A    between atoms: N_24  and  C_25 
ROOT
HETATM    1  C   UNL     1       3.844  28.885  47.292  1.00  0.00     0.067 C 
HETATM    2  C   UNL     1       2.678  28.341  48.147  1.00  0.00     0.001 C 
HETATM    3  C   UNL     1       3.120  27.952  49.578  1.00  0.00     0.040 C 
HETATM    4  C   UNL     1       4.204  26.860  49.555  1.00  0.00     0.206 C 
HETATM    5  N   UNL     1       4.611  26.668  48.102  1.00  0.00    -0.065 N 
HETATM    6  H   UNL     1       5.401  26.001  48.106  1.00  0.00     0.280 HD
HETATM    7  C   UNL     1       5.071  27.961  47.461  1.00  0.00     0.246 C 
HETATM    8  C   UNL     1       2.245  27.006  47.473  1.00  0.00     0.033 C 
HETATM    9  C   UNL     1       3.455  26.066  47.324  1.00  0.00     0.236 C 
ENDROOT
BRANCH   4  10
HETATM   10  C   UNL     1       5.409  27.179  50.475  1.00  0.00     0.155 C 
BRANCH  10  11
HETATM   11  N   UNL     1       6.198  26.040  50.953  1.00  0.00    -0.365 N 
HETATM   12  H   UNL     1       7.118  25.956  50.529  1.00  0.00     0.161 HD
BRANCH  11  13
HETATM   13  C   UNL     1       6.129  25.454  52.189  1.00  0.00     0.172 C 
HETATM   14  S   UNL     1       4.709  25.010  52.940  1.00  0.00    -0.041 SA
BRANCH  13  15
HETATM   15  N   UNL     1       7.324  25.081  52.738  1.00  0.00    -0.333 N 
HETATM   16  H   UNL     1       8.101  25.045  52.084  1.00  0.00     0.168 HD
BRANCH  15  17
HETATM   17  C   UNL     1       7.589  24.484  54.003  1.00  0.00     0.045 A 
HETATM   18  C   UNL     1       7.783  23.076  54.093  1.00  0.00     0.001 A 
HETATM   19  C   UNL     1       7.992  22.501  55.375  1.00  0.00    -0.024 A 
HETATM   20  C   UNL     1       7.810  22.200  52.979  1.00  0.00     0.014 A 
HETATM   21  C   UNL     1       8.196  21.119  55.508  1.00  0.00     0.012 A 
HETATM   22  C   UNL     1       7.999  23.313  56.517  1.00  0.00     0.012 A 
HETATM   23  C   UNL     1       8.205  20.285  54.392  1.00  0.00     0.001 A 
HETATM   24  C   UNL     1       8.015  20.825  53.128  1.00  0.00     0.001 A 
HETATM   25  C   UNL     1       7.787  24.685  56.418  1.00  0.00     0.003 A 
HETATM   26  C   UNL     1       7.575  25.264  55.171  1.00  0.00     0.030 A 
ENDBRANCH  15  17
ENDBRANCH  13  15
ENDBRANCH  11  13
ENDBRANCH  10  11
ENDBRANCH   4  10
BRANCH   1  27
HETATM   27  C   UNL     1       4.254  30.332  47.324  1.00  0.00     0.038 C 
HETATM   28  N   UNL     1       3.996  31.382  46.476  1.00  0.00    -0.277 N 
HETATM   29  C   UNL     1       3.373  31.425  45.175  1.00  0.00     0.179 C 
HETATM   30  N   UNL     1       4.372  32.570  46.980  1.00  0.00    -0.172 NA
HETATM   31  C   UNL     1       5.058  32.297  48.095  1.00  0.00     0.089 C 
HETATM   32  C   UNL     1       5.015  30.905  48.337  1.00  0.00     0.061 C 
BRANCH  31  33
HETATM   33  C   UNL     1       5.681  33.344  48.912  1.00  0.00    -0.003 A 
HETATM   34  C   UNL     1       6.643  34.203  48.358  1.00  0.00     0.053 A 
HETATM   35  C   UNL     1       7.219  35.230  49.118  1.00  0.00     0.102 A 
HETATM   36  C   UNL     1       6.830  35.407  50.460  1.00  0.00     0.101 A 
HETATM   37  C   UNL     1       5.887  34.543  51.021  1.00  0.00     0.040 A 
HETATM   38  C   UNL     1       5.318  33.522  50.253  1.00  0.00     0.017 A 
BRANCH  35  39
HETATM   39  O   UNL     1       8.153  36.117  48.642  1.00  0.00    -0.353 OA
HETATM   40  C   UNL     1       9.312  35.586  48.015  1.00  0.00     0.210 C 
ENDBRANCH  35  39
BRANCH  36  41
HETATM   41  O   UNL     1       7.432  36.440  51.134  1.00  0.00    -0.353 OA
HETATM   42  C   UNL     1       7.482  36.366  52.552  1.00  0.00     0.210 C 
ENDBRANCH  36  41
ENDBRANCH  31  33
ENDBRANCH   1  27
TORSDOF 9
ENDMDL
MODEL 9
REMARK VINA RESULT:      -9.4      8.588     12.827
REMARK  9 active torsions:
REMARK  status: ('A' for Active; 'I' for Inactive)
REMARK    1  A    between atoms: C_4  and  C_5 
REMARK    2  A    between atoms: C_7  and  O_8 
REMARK    3  A    between atoms: C_10  and  O_11 
REMARK    4  A    between atoms: C_16  and  C_17 
REMARK    5  A    between atoms: C_20  and  C_21 
REMARK    6  A    between atoms: C_21  and  N_22 
REMARK    7  A    between atoms: N_22  and  C_23 
REMARK    8  A    between atoms: C_23  and  N_24 
REMARK    9  A    between atoms: N_24  and  C_25 
ROOT
HETATM    1  C   UNL     1       3.780  28.710  47.314  1.00  0.00     0.067 C 
HETATM    2  C   UNL     1       2.635  28.391  48.300  1.00  0.00     0.001 C 
HETATM    3  C   UNL     1       3.141  28.130  49.738  1.00  0.00     0.040 C 
HETATM    4  C   UNL     1       4.114  26.937  49.785  1.00  0.00     0.206 C 
HETATM    5  N   UNL     1       4.393  26.536  48.344  1.00  0.00    -0.065 N 
HETATM    6  H   UNL     1       5.116  25.797  48.383  1.00  0.00     0.280 HD
HETATM    7  C   UNL     1       4.925  27.691  47.521  1.00  0.00     0.246 C 
HETATM    8  C   UNL     1       2.031  27.038  47.824  1.00  0.00     0.033 C 
HETATM    9  C   UNL     1       3.132  25.968  47.719  1.00  0.00     0.236 C 
ENDROOT
BRANCH   4  10
HETATM   10  C   UNL     1       5.407  27.238  50.583  1.00  0.00     0.155 C 
BRANCH  10  11
HETATM   11  N   UNL     1       6.223  26.087  50.979  1.00  0.00    -0.365 N 
HETATM   12  H   UNL     1       7.142  26.052  50.544  1.00  0.00     0.161 HD
BRANCH  11  13
HETATM   13  C   UNL     1       6.177  25.418  52.173  1.00  0.00     0.172 C 
HETATM   14  S   UNL     1       4.769  24.960  52.938  1.00  0.00    -0.041 SA
BRANCH  13  15
HETATM   15  N   UNL     1       7.377  24.978  52.656  1.00  0.00    -0.333 N 
HETATM   16  H   UNL     1       8.096  24.841  51.950  1.00  0.00     0.168 HD
BRANCH  15  17
HETATM   17  C   UNL     1       7.692  24.432  53.933  1.00  0.00     0.045 A 
HETATM   18  C   UNL     1       7.892  23.028  54.071  1.00  0.00     0.001 A 
HETATM   19  C   UNL     1       8.151  22.506  55.366  1.00  0.00    -0.024 A 
HETATM   20  C   UNL     1       7.880  22.109  52.992  1.00  0.00     0.014 A 
HETATM   21  C   UNL     1       8.364  21.130  55.545  1.00  0.00     0.012 A 
HETATM   22  C   UNL     1       8.199  23.362  56.473  1.00  0.00     0.012 A 
HETATM   23  C   UNL     1       8.333  20.252  54.464  1.00  0.00     0.001 A 
HETATM   24  C   UNL     1       8.094  20.742  53.187  1.00  0.00     0.001 A 
HETATM   25  C   UNL     1       7.979  24.728  56.328  1.00  0.00     0.003 A 
HETATM   26  C   UNL     1       7.719  25.257  55.069  1.00  0.00     0.030 A 
ENDBRANCH  15  17
ENDBRANCH  13  15
ENDBRANCH  11  13
ENDBRANCH  10  11
ENDBRANCH   4  10
BRANCH   1  27
HETATM   27  C   UNL     1       4.326  30.101  47.142  1.00  0.00     0.038 C 
HETATM   28  N   UNL     1       4.851  31.001  48.038  1.00  0.00    -0.277 N 
HETATM   29  C   UNL     1       4.915  30.986  49.479  1.00  0.00     0.179 C 
HETATM   30  N   UNL     1       5.427  32.061  47.442  1.00  0.00    -0.172 NA
HETATM   31  C   UNL     1       5.122  31.964  46.144  1.00  0.00     0.089 C 
HETATM   32  C   UNL     1       4.424  30.756  45.920  1.00  0.00     0.061 C 
BRANCH  31  33
HETATM   33  C   UNL     1       5.533  32.973  45.162  1.00  0.00    -0.003 A 
HETATM   34  C   UNL     1       6.730  33.687  45.331  1.00  0.00     0.053 A 
HETATM   35  C   UNL     1       7.151  34.627  44.381  1.00  0.00     0.102 A 
HETATM   36  C   UNL     1       6.366  34.863  43.235  1.00  0.00     0.101 A 
HETATM   37  C   UNL     1       5.165  34.168  43.073  1.00  0.00     0.040 A 
HETATM   38  C   UNL     1       4.754  33.232  44.027  1.00  0.00     0.017 A 
BRANCH  35  39
HETATM   39  O   UNL     1       8.315  35.351  44.470  1.00  0.00    -0.353 OA
HETATM   40  C   UNL     1       8.431  36.290  45.529  1.00  0.00     0.210 C 
ENDBRANCH  35  39
BRANCH  36  41
HETATM   41  O   UNL     1       6.851  35.790  42.347  1.00  0.00    -0.353 OA
HETATM   42  C   UNL     1       6.657  35.545  40.962  1.00  0.00     0.210 C 
ENDBRANCH  36  41
ENDBRANCH  31  33
ENDBRANCH   1  27
TORSDOF 9
ENDMDL
MODEL 10
REMARK VINA RESULT:      -9.4      5.153     10.160
REMARK  9 active torsions:
REMARK  status: ('A' for Active; 'I' for Inactive)
REMARK    1  A    between atoms: C_4  and  C_5 
REMARK    2  A    between atoms: C_7  and  O_8 
REMARK    3  A    between atoms: C_10  and  O_11 
REMARK    4  A    between atoms: C_16  and  C_17 
REMARK    5  A    between atoms: C_20  and  C_21 
REMARK    6  A    between atoms: C_21  and  N_22 
REMARK    7  A    between atoms: N_22  and  C_23 
REMARK    8  A    between atoms: C_23  and  N_24 
REMARK    9  A    between atoms: N_24  and  C_25 
ROOT
HETATM    1  C   UNL     1       4.406  30.001  54.991  1.00  0.00     0.067 C 
HETATM    2  C   UNL     1       5.700  30.530  55.650  1.00  0.00     0.001 C 
HETATM    3  C   UNL     1       6.622  29.393  56.149  1.00  0.00     0.040 C 
HETATM    4  C   UNL     1       5.915  28.514  57.197  1.00  0.00     0.206 C 
HETATM    5  N   UNL     1       4.462  28.961  57.244  1.00  0.00    -0.065 N 
HETATM    6  H   UNL     1       3.977  28.307  57.882  1.00  0.00     0.280 HD
HETATM    7  C   UNL     1       3.799  28.895  55.884  1.00  0.00     0.246 C 
HETATM    8  C   UNL     1       5.244  31.284  56.933  1.00  0.00     0.033 C 
HETATM    9  C   UNL     1       4.379  30.366  57.814  1.00  0.00     0.236 C 
ENDROOT
BRANCH   4  10
HETATM   10  C   UNL     1       6.065  26.997  56.921  1.00  0.00     0.155 C 
BRANCH  10  11
HETATM   11  N   UNL     1       7.182  26.311  57.575  1.00  0.00    -0.365 N 
HETATM   12  H   UNL     1       7.295  26.534  58.561  1.00  0.00     0.161 HD
BRANCH  11  13
HETATM   13  C   UNL     1       7.702  25.087  57.247  1.00  0.00     0.172 C 
HETATM   14  S   UNL     1       9.077  24.439  57.928  1.00  0.00    -0.041 SA
BRANCH  13  15
HETATM   15  N   UNL     1       6.931  24.315  56.424  1.00  0.00    -0.333 N 
HETATM   16  H   UNL     1       6.176  23.819  56.890  1.00  0.00     0.168 HD
BRANCH  15  17
HETATM   17  C   UNL     1       7.182  23.889  55.089  1.00  0.00     0.045 A 
HETATM   18  C   UNL     1       7.680  22.577  54.847  1.00  0.00     0.001 A 
HETATM   19  C   UNL     1       7.972  22.199  53.509  1.00  0.00    -0.024 A 
HETATM   20  C   UNL     1       7.881  21.600  55.854  1.00  0.00     0.014 A 
HETATM   21  C   UNL     1       8.456  20.912  53.226  1.00  0.00     0.012 A 
HETATM   22  C   UNL     1       7.775  23.109  52.463  1.00  0.00     0.012 A 
HETATM   23  C   UNL     1       8.654  19.981  54.242  1.00  0.00     0.001 A 
HETATM   24  C   UNL     1       8.364  20.323  55.556  1.00  0.00     0.001 A 
HETATM   25  C   UNL     1       7.308  24.395  52.714  1.00  0.00     0.003 A 
HETATM   26  C   UNL     1       7.022  24.784  54.019  1.00  0.00     0.030 A 
ENDBRANCH  15  17
ENDBRANCH  13  15
ENDBRANCH  11  13
ENDBRANCH  10  11
ENDBRANCH   4  10
BRANCH   1  27
HETATM   27  C   UNL     1       4.348  29.610  53.540  1.00  0.00     0.038 C 
HETATM   28  N   UNL     1       5.136  28.782  52.777  1.00  0.00    -0.277 N 
HETATM   29  C   UNL     1       6.387  28.125  53.065  1.00  0.00     0.179 C 
HETATM   30  N   UNL     1       4.614  28.532  51.563  1.00  0.00    -0.172 NA
HETATM   31  C   UNL     1       3.561  29.346  51.439  1.00  0.00     0.089 C 
HETATM   32  C   UNL     1       3.370  30.045  52.653  1.00  0.00     0.061 C 
BRANCH  31  33
HETATM   33  C   UNL     1       2.751  29.405  50.218  1.00  0.00    -0.003 A 
HETATM   34  C   UNL     1       2.949  28.475  49.185  1.00  0.00     0.053 A 
HETATM   35  C   UNL     1       2.156  28.498  48.030  1.00  0.00     0.102 A 
HETATM   36  C   UNL     1       1.142  29.467  47.898  1.00  0.00     0.101 A 
HETATM   37  C   UNL     1       0.954  30.406  48.914  1.00  0.00     0.040 A 
HETATM   38  C   UNL     1       1.751  30.374  50.064  1.00  0.00     0.017 A 
BRANCH  35  39
HETATM   39  O   UNL     1       2.281  27.614  46.985  1.00  0.00    -0.353 OA
HETATM   40  C   UNL     1       2.845  26.340  47.260  1.00  0.00     0.210 C 
ENDBRANCH  35  39
BRANCH  36  41
HETATM   41  O   UNL     1       0.403  29.418  46.742  1.00  0.00    -0.353 OA
HETATM   42  C   UNL     1       0.563  30.476  45.808  1.00  0.00     0.210 C 
ENDBRANCH  36  41
ENDBRANCH  31  33
ENDBRANCH   1  27
TORSDOF 9
ENDMDL
