MODEL 1
REMARK VINA RESULT:     -10.1      0.000      0.000
REMARK  8 active torsions:
REMARK  status: ('A' for Active; 'I' for Inactive)
REMARK    1  A    between atoms: C_4  and  O_5 
REMARK    2  A    between atoms: O_5  and  C_6 
REMARK    3  A    between atoms: C_8  and  C_9 
REMARK    4  A    between atoms: C_9  and  N_10 
REMARK    5  A    between atoms: C_9  and  C_14 
REMARK       I    between atoms: N_10  and  C_11 
REMARK       I    between atoms: C_11  and  N_12 
REMARK    6  A    between atoms: C_14  and  C_15 
REMARK       I    between atoms: C_15  and  N_16 
REMARK    7  A    between atoms: N_16  and  N_17 
REMARK       I    between atoms: N_17  and  C_18 
REMARK    8  A    between atoms: C_18  and  C_19 
ROOT
HETATM    1  C   UNL     1       7.755  28.500  56.439  1.00  0.00     0.128 C 
ENDROOT
BRANCH   1   2
HETATM    2  C   UNL     1       8.882  29.370  56.990  1.00  0.00    -0.032 A 
HETATM    3  C   UNL     1       8.644  30.484  57.813  1.00  0.00     0.046 A 
HETATM    4  C   UNL     1       9.700  31.261  58.297  1.00  0.00     0.076 A 
HETATM    5  C   UNL     1      11.019  30.911  58.007  1.00  0.00     0.037 A 
HETATM    6  C   UNL     1      11.274  29.825  57.173  1.00  0.00     0.003 A 
HETATM    7  C   UNL     1      10.217  29.072  56.658  1.00  0.00     0.009 A 
BRANCH   4   8
HETATM    8  O   UNL     1       9.359  32.310  59.121  1.00  0.00    -0.311 OA
BRANCH   8   9
HETATM    9  C   UNL     1       8.751  32.030  60.323  1.00  0.00     0.076 A 
HETATM   10  C   UNL     1       9.317  31.208  61.301  1.00  0.00     0.037 A 
HETATM   11  C   UNL     1       8.646  31.004  62.509  1.00  0.00     0.003 A 
HETATM   12  C   UNL     1       7.426  31.637  62.747  1.00  0.00     0.000 A 
HETATM   13  C   UNL     1       6.877  32.483  61.783  1.00  0.00     0.003 A 
HETATM   14  C   UNL     1       7.543  32.684  60.573  1.00  0.00     0.037 A 
ENDBRANCH   8   9
ENDBRANCH   4   8
ENDBRANCH   1   2
BRANCH   1  15
HETATM   15  N   UNL     1       6.767  29.259  55.681  1.00  0.00    -0.334 N 
HETATM   16  C   UNL     1       6.146  28.711  54.600  1.00  0.00     0.314 C 
HETATM   17  N   UNL     1       5.173  29.517  54.108  1.00  0.00    -0.352 N 
HETATM   18  O   UNL     1       6.407  27.628  54.100  1.00  0.00    -0.248 OA
HETATM   19  H   UNL     1       5.321  30.513  54.183  1.00  0.00     0.160 HD
HETATM   20  H   UNL     1       4.784  29.201  53.229  1.00  0.00     0.160 HD
HETATM   21  H   UNL     1       6.152  29.840  56.243  1.00  0.00     0.165 HD
ENDBRANCH   1  15
BRANCH   1  22
HETATM   22  C   UNL     1       7.073  27.660  57.533  1.00  0.00     0.134 C 
BRANCH  22  23
HETATM   23  C   UNL     1       7.418  26.194  57.386  1.00  0.00     0.238 C 
HETATM   24  N   UNL     1       6.699  25.536  56.409  1.00  0.00    -0.267 N 
HETATM   25  H   UNL     1       6.285  26.047  55.630  1.00  0.00     0.190 HD
HETATM   26  O   UNL     1       8.260  25.640  58.095  1.00  0.00    -0.272 OA
BRANCH  24  27
HETATM   27  N   UNL     1       7.072  24.222  56.114  1.00  0.00    -0.262 N 
HETATM   28  C   UNL     1       6.966  23.775  54.811  1.00  0.00     0.288 C 
HETATM   29  O   UNL     1       6.409  24.412  53.921  1.00  0.00    -0.264 OA
HETATM   30  H   UNL     1       7.693  23.736  56.765  1.00  0.00     0.190 HD
BRANCH  28  31
HETATM   31  C   UNL     1       7.593  22.438  54.573  1.00  0.00     0.125 A 
HETATM   32  N   UNL     1       7.907  21.714  55.684  1.00  0.00    -0.255 NA
HETATM   33  C   UNL     1       8.461  20.501  55.475  1.00  0.00     0.117 A 
HETATM   34  C   UNL     1       8.719  19.977  54.217  1.00  0.00     0.019 A 
HETATM   35  C   UNL     1       8.391  20.741  53.099  1.00  0.00     0.004 A 
HETATM   36  C   UNL     1       7.817  21.997  53.274  1.00  0.00     0.037 A 
ENDBRANCH  28  31
ENDBRANCH  24  27
ENDBRANCH  22  23
ENDBRANCH   1  22
TORSDOF 8
ENDMDL
MODEL 2
REMARK VINA RESULT:     -10.0      2.527      9.814
REMARK  8 active torsions:
REMARK  status: ('A' for Active; 'I' for Inactive)
REMARK    1  A    between atoms: C_4  and  O_5 
REMARK    2  A    between atoms: O_5  and  C_6 
REMARK    3  A    between atoms: C_8  and  C_9 
REMARK    4  A    between atoms: C_9  and  N_10 
REMARK    5  A    between atoms: C_9  and  C_14 
REMARK       I    between atoms: N_10  and  C_11 
REMARK       I    between atoms: C_11  and  N_12 
REMARK    6  A    between atoms: C_14  and  C_15 
REMARK       I    between atoms: C_15  and  N_16 
REMARK    7  A    between atoms: N_16  and  N_17 
REMARK       I    between atoms: N_17  and  C_18 
REMARK    8  A    between atoms: C_18  and  C_19 
ROOT
HETATM    1  C   UNL     1       7.085  28.636  57.040  1.00  0.00     0.128 C 
ENDROOT
BRANCH   1   2
HETATM    2  C   UNL     1       6.825  27.151  56.804  1.00  0.00    -0.032 A 
HETATM    3  C   UNL     1       7.839  26.259  56.415  1.00  0.00     0.046 A 
HETATM    4  C   UNL     1       7.565  24.904  56.204  1.00  0.00     0.076 A 
HETATM    5  C   UNL     1       6.281  24.406  56.423  1.00  0.00     0.037 A 
HETATM    6  C   UNL     1       5.258  25.278  56.785  1.00  0.00     0.003 A 
HETATM    7  C   UNL     1       5.524  26.638  56.959  1.00  0.00     0.009 A 
BRANCH   4   8
HETATM    8  O   UNL     1       8.636  24.112  55.856  1.00  0.00    -0.311 OA
BRANCH   8   9
HETATM    9  C   UNL     1       8.405  23.001  55.078  1.00  0.00     0.076 A 
HETATM   10  C   UNL     1       8.171  23.059  53.701  1.00  0.00     0.037 A 
HETATM   11  C   UNL     1       7.979  21.878  52.980  1.00  0.00     0.003 A 
HETATM   12  C   UNL     1       8.045  20.644  53.628  1.00  0.00     0.000 A 
HETATM   13  C   UNL     1       8.310  20.586  54.996  1.00  0.00     0.003 A 
HETATM   14  C   UNL     1       8.496  21.765  55.720  1.00  0.00     0.037 A 
ENDBRANCH   8   9
ENDBRANCH   4   8
ENDBRANCH   1   2
BRANCH   1  15
HETATM   15  N   UNL     1       6.587  29.481  55.960  1.00  0.00    -0.334 N 
HETATM   16  C   UNL     1       5.638  30.429  56.196  1.00  0.00     0.314 C 
HETATM   17  N   UNL     1       5.399  31.195  55.104  1.00  0.00    -0.352 N 
HETATM   18  O   UNL     1       5.045  30.597  57.250  1.00  0.00    -0.248 OA
HETATM   19  H   UNL     1       5.486  30.748  54.203  1.00  0.00     0.160 HD
HETATM   20  H   UNL     1       4.608  31.818  55.205  1.00  0.00     0.160 HD
HETATM   21  H   UNL     1       7.292  29.780  55.293  1.00  0.00     0.165 HD
ENDBRANCH   1  15
BRANCH   1  22
HETATM   22  C   UNL     1       8.566  28.936  57.326  1.00  0.00     0.134 C 
BRANCH  22  23
HETATM   23  C   UNL     1       8.712  29.902  58.482  1.00  0.00     0.238 C 
HETATM   24  N   UNL     1       7.561  30.079  59.222  1.00  0.00    -0.267 N 
HETATM   25  H   UNL     1       6.832  29.366  59.237  1.00  0.00     0.190 HD
HETATM   26  O   UNL     1       9.769  30.486  58.725  1.00  0.00    -0.272 OA
BRANCH  24  27
HETATM   27  N   UNL     1       7.662  30.835  60.394  1.00  0.00    -0.262 N 
HETATM   28  C   UNL     1       7.129  32.109  60.414  1.00  0.00     0.288 C 
HETATM   29  O   UNL     1       6.713  32.683  59.411  1.00  0.00    -0.264 OA
HETATM   30  H   UNL     1       7.827  30.343  61.276  1.00  0.00     0.190 HD
BRANCH  28  31
HETATM   31  C   UNL     1       7.099  32.735  61.772  1.00  0.00     0.125 A 
HETATM   32  N   UNL     1       6.181  33.725  61.959  1.00  0.00    -0.255 NA
HETATM   33  C   UNL     1       6.141  34.283  63.187  1.00  0.00     0.117 A 
HETATM   34  C   UNL     1       6.970  33.907  64.233  1.00  0.00     0.019 A 
HETATM   35  C   UNL     1       7.902  32.896  64.012  1.00  0.00     0.004 A 
HETATM   36  C   UNL     1       7.973  32.294  62.759  1.00  0.00     0.037 A 
ENDBRANCH  28  31
ENDBRANCH  24  27
ENDBRANCH  22  23
ENDBRANCH   1  22
TORSDOF 8
ENDMDL
MODEL 3
REMARK VINA RESULT:     -10.0      2.646      9.583
REMARK  8 active torsions:
REMARK  status: ('A' for Active; 'I' for Inactive)
REMARK    1  A    between atoms: C_4  and  O_5 
REMARK    2  A    between atoms: O_5  and  C_6 
REMARK    3  A    between atoms: C_8  and  C_9 
REMARK    4  A    between atoms: C_9  and  N_10 
REMARK    5  A    between atoms: C_9  and  C_14 
REMARK       I    between atoms: N_10  and  C_11 
REMARK       I    between atoms: C_11  and  N_12 
REMARK    6  A    between atoms: C_14  and  C_15 
REMARK       I    between atoms: C_15  and  N_16 
REMARK    7  A    between atoms: N_16  and  N_17 
REMARK       I    between atoms: N_17  and  C_18 
REMARK    8  A    between atoms: C_18  and  C_19 
ROOT
HETATM    1  C   UNL     1       6.323  28.534  55.525  1.00  0.00     0.128 C 
ENDROOT
BRANCH   1   2
HETATM    2  C   UNL     1       6.217  27.263  54.687  1.00  0.00    -0.032 A 
HETATM    3  C   UNL     1       7.288  26.366  54.535  1.00  0.00     0.046 A 
HETATM    4  C   UNL     1       7.157  25.212  53.756  1.00  0.00     0.076 A 
HETATM    5  C   UNL     1       5.937  24.909  53.153  1.00  0.00     0.037 A 
HETATM    6  C   UNL     1       4.871  25.796  53.272  1.00  0.00     0.003 A 
HETATM    7  C   UNL     1       5.014  26.968  54.018  1.00  0.00     0.009 A 
BRANCH   4   8
HETATM    8  O   UNL     1       8.257  24.386  53.699  1.00  0.00    -0.311 OA
BRANCH   8   9
HETATM    9  C   UNL     1       8.093  23.053  53.999  1.00  0.00     0.076 A 
HETATM   10  C   UNL     1       8.107  22.039  53.037  1.00  0.00     0.037 A 
HETATM   11  C   UNL     1       7.967  20.707  53.432  1.00  0.00     0.003 A 
HETATM   12  C   UNL     1       7.837  20.388  54.785  1.00  0.00     0.000 A 
HETATM   13  C   UNL     1       7.855  21.398  55.746  1.00  0.00     0.003 A 
HETATM   14  C   UNL     1       7.989  22.731  55.353  1.00  0.00     0.037 A 
ENDBRANCH   8   9
ENDBRANCH   4   8
ENDBRANCH   1   2
BRANCH   1  15
HETATM   15  N   UNL     1       5.820  29.716  54.834  1.00  0.00    -0.334 N 
HETATM   16  C   UNL     1       5.034  30.621  55.482  1.00  0.00     0.314 C 
HETATM   17  N   UNL     1       4.774  31.710  54.718  1.00  0.00    -0.352 N 
HETATM   18  O   UNL     1       4.591  30.501  56.614  1.00  0.00    -0.248 OA
HETATM   19  H   UNL     1       4.700  31.564  53.722  1.00  0.00     0.160 HD
HETATM   20  H   UNL     1       4.087  32.337  55.117  1.00  0.00     0.160 HD
HETATM   21  H   UNL     1       6.478  30.147  54.191  1.00  0.00     0.165 HD
ENDBRANCH   1  15
BRANCH   1  22
HETATM   22  C   UNL     1       7.749  28.776  56.048  1.00  0.00     0.134 C 
BRANCH  22  23
HETATM   23  C   UNL     1       7.739  29.102  57.526  1.00  0.00     0.238 C 
HETATM   24  N   UNL     1       7.498  30.430  57.813  1.00  0.00    -0.267 N 
HETATM   25  H   UNL     1       7.005  31.028  57.151  1.00  0.00     0.190 HD
HETATM   26  O   UNL     1       7.943  28.250  58.391  1.00  0.00    -0.272 OA
BRANCH  24  27
HETATM   27  N   UNL     1       7.322  30.775  59.155  1.00  0.00    -0.262 N 
HETATM   28  C   UNL     1       8.083  31.797  59.688  1.00  0.00     0.288 C 
HETATM   29  O   UNL     1       9.026  32.317  59.096  1.00  0.00    -0.264 OA
HETATM   30  H   UNL     1       6.449  30.504  59.615  1.00  0.00     0.190 HD
BRANCH  28  31
HETATM   31  C   UNL     1       7.658  32.222  61.058  1.00  0.00     0.125 A 
HETATM   32  N   UNL     1       6.416  32.774  61.159  1.00  0.00    -0.255 NA
HETATM   33  C   UNL     1       6.023  33.147  62.395  1.00  0.00     0.117 A 
HETATM   34  C   UNL     1       6.804  33.000  63.531  1.00  0.00     0.019 A 
HETATM   35  C   UNL     1       8.071  32.436  63.397  1.00  0.00     0.004 A 
HETATM   36  C   UNL     1       8.512  32.038  62.139  1.00  0.00     0.037 A 
ENDBRANCH  28  31
ENDBRANCH  24  27
ENDBRANCH  22  23
ENDBRANCH   1  22
TORSDOF 8
ENDMDL
MODEL 4
REMARK VINA RESULT:      -9.9      2.445      9.531
REMARK  8 active torsions:
REMARK  status: ('A' for Active; 'I' for Inactive)
REMARK    1  A    between atoms: C_4  and  O_5 
REMARK    2  A    between atoms: O_5  and  C_6 
REMARK    3  A    between atoms: C_8  and  C_9 
REMARK    4  A    between atoms: C_9  and  N_10 
REMARK    5  A    between atoms: C_9  and  C_14 
REMARK       I    between atoms: N_10  and  C_11 
REMARK       I    between atoms: C_11  and  N_12 
REMARK    6  A    between atoms: C_14  and  C_15 
REMARK       I    between atoms: C_15  and  N_16 
REMARK    7  A    between atoms: N_16  and  N_17 
REMARK       I    between atoms: N_17  and  C_18 
REMARK    8  A    between atoms: C_18  and  C_19 
ROOT
HETATM    1  C   UNL     1       6.545  28.626  55.561  1.00  0.00     0.128 C 
ENDROOT
BRANCH   1   2
HETATM    2  C   UNL     1       6.473  27.158  55.974  1.00  0.00    -0.032 A 
HETATM    3  C   UNL     1       7.519  26.252  55.729  1.00  0.00     0.046 A 
HETATM    4  C   UNL     1       7.417  24.913  56.118  1.00  0.00     0.076 A 
HETATM    5  C   UNL     1       6.287  24.465  56.801  1.00  0.00     0.037 A 
HETATM    6  C   UNL     1       5.231  25.342  57.032  1.00  0.00     0.003 A 
HETATM    7  C   UNL     1       5.316  26.670  56.609  1.00  0.00     0.009 A 
BRANCH   4   8
HETATM    8  O   UNL     1       8.511  24.117  55.859  1.00  0.00    -0.311 OA
BRANCH   8   9
HETATM    9  C   UNL     1       8.327  22.967  55.126  1.00  0.00     0.076 A 
HETATM   10  C   UNL     1       8.300  21.689  55.690  1.00  0.00     0.037 A 
HETATM   11  C   UNL     1       8.075  20.576  54.877  1.00  0.00     0.003 A 
HETATM   12  C   UNL     1       7.854  20.743  53.509  1.00  0.00     0.000 A 
HETATM   13  C   UNL     1       7.849  22.022  52.953  1.00  0.00     0.003 A 
HETATM   14  C   UNL     1       8.080  23.134  53.763  1.00  0.00     0.037 A 
ENDBRANCH   8   9
ENDBRANCH   4   8
ENDBRANCH   1   2
BRANCH   1  15
HETATM   15  N   UNL     1       6.613  28.809  54.115  1.00  0.00    -0.334 N 
HETATM   16  C   UNL     1       5.477  28.890  53.369  1.00  0.00     0.314 C 
HETATM   17  N   UNL     1       5.739  29.188  52.072  1.00  0.00    -0.352 N 
HETATM   18  O   UNL     1       4.340  28.715  53.778  1.00  0.00    -0.248 OA
HETATM   19  H   UNL     1       6.601  28.832  51.686  1.00  0.00     0.160 HD
HETATM   20  H   UNL     1       4.931  29.124  51.465  1.00  0.00     0.160 HD
HETATM   21  H   UNL     1       7.345  29.439  53.799  1.00  0.00     0.165 HD
ENDBRANCH   1  15
BRANCH   1  22
HETATM   22  C   UNL     1       7.693  29.376  56.258  1.00  0.00     0.134 C 
BRANCH  22  23
HETATM   23  C   UNL     1       7.269  29.867  57.626  1.00  0.00     0.238 C 
HETATM   24  N   UNL     1       8.272  29.844  58.573  1.00  0.00    -0.267 N 
HETATM   25  H   UNL     1       9.254  29.872  58.298  1.00  0.00     0.190 HD
HETATM   26  O   UNL     1       6.120  30.240  57.867  1.00  0.00    -0.272 OA
BRANCH  24  27
HETATM   27  N   UNL     1       7.997  30.425  59.814  1.00  0.00    -0.262 N 
HETATM   28  C   UNL     1       8.370  31.737  60.035  1.00  0.00     0.288 C 
HETATM   29  O   UNL     1       9.077  32.377  59.261  1.00  0.00    -0.264 OA
HETATM   30  H   UNL     1       7.270  30.003  60.397  1.00  0.00     0.190 HD
BRANCH  28  31
HETATM   31  C   UNL     1       7.833  32.317  61.305  1.00  0.00     0.125 A 
HETATM   32  N   UNL     1       6.677  33.030  61.200  1.00  0.00    -0.255 NA
HETATM   33  C   UNL     1       6.182  33.544  62.346  1.00  0.00     0.117 A 
HETATM   34  C   UNL     1       6.782  33.385  63.586  1.00  0.00     0.019 A 
HETATM   35  C   UNL     1       7.966  32.654  63.662  1.00  0.00     0.004 A 
HETATM   36  C   UNL     1       8.507  32.107  62.502  1.00  0.00     0.037 A 
ENDBRANCH  28  31
ENDBRANCH  24  27
ENDBRANCH  22  23
ENDBRANCH   1  22
TORSDOF 8
ENDMDL
MODEL 5
REMARK VINA RESULT:      -9.7      2.629      9.757
REMARK  8 active torsions:
REMARK  status: ('A' for Active; 'I' for Inactive)
REMARK    1  A    between atoms: C_4  and  O_5 
REMARK    2  A    between atoms: O_5  and  C_6 
REMARK    3  A    between atoms: C_8  and  C_9 
REMARK    4  A    between atoms: C_9  and  N_10 
REMARK    5  A    between atoms: C_9  and  C_14 
REMARK       I    between atoms: N_10  and  C_11 
REMARK       I    between atoms: C_11  and  N_12 
REMARK    6  A    between atoms: C_14  and  C_15 
REMARK       I    between atoms: C_15  and  N_16 
REMARK    7  A    between atoms: N_16  and  N_17 
REMARK       I    between atoms: N_17  and  C_18 
REMARK    8  A    between atoms: C_18  and  C_19 
ROOT
HETATM    1  C   UNL     1       8.079  28.581  56.006  1.00  0.00     0.128 C 
ENDROOT
BRANCH   1   2
HETATM    2  C   UNL     1       7.483  27.177  56.065  1.00  0.00    -0.032 A 
HETATM    3  C   UNL     1       8.218  26.062  56.501  1.00  0.00     0.046 A 
HETATM    4  C   UNL     1       7.641  24.789  56.538  1.00  0.00     0.076 A 
HETATM    5  C   UNL     1       6.303  24.615  56.185  1.00  0.00     0.037 A 
HETATM    6  C   UNL     1       5.566  25.703  55.727  1.00  0.00     0.003 A 
HETATM    7  C   UNL     1       6.154  26.968  55.653  1.00  0.00     0.009 A 
BRANCH   4   8
HETATM    8  O   UNL     1       8.438  23.771  57.012  1.00  0.00    -0.311 OA
BRANCH   8   9
HETATM    9  C   UNL     1       8.539  22.617  56.269  1.00  0.00     0.076 A 
HETATM   10  C   UNL     1       8.331  21.340  56.797  1.00  0.00     0.037 A 
HETATM   11  C   UNL     1       8.421  20.222  55.965  1.00  0.00     0.003 A 
HETATM   12  C   UNL     1       8.693  20.382  54.606  1.00  0.00     0.000 A 
HETATM   13  C   UNL     1       8.869  21.659  54.074  1.00  0.00     0.003 A 
HETATM   14  C   UNL     1       8.786  22.777  54.905  1.00  0.00     0.037 A 
ENDBRANCH   8   9
ENDBRANCH   4   8
ENDBRANCH   1   2
BRANCH   1  15
HETATM   15  N   UNL     1       9.309  28.712  56.780  1.00  0.00    -0.334 N 
HETATM   16  C   UNL     1      10.327  29.503  56.342  1.00  0.00     0.314 C 
HETATM   17  N   UNL     1      11.327  29.599  57.254  1.00  0.00    -0.352 N 
HETATM   18  O   UNL     1      10.377  30.072  55.263  1.00  0.00    -0.248 OA
HETATM   19  H   UNL     1      11.497  28.790  57.833  1.00  0.00     0.160 HD
HETATM   20  H   UNL     1      12.154  30.068  56.908  1.00  0.00     0.160 HD
HETATM   21  H   UNL     1       9.177  28.750  57.786  1.00  0.00     0.165 HD
ENDBRANCH   1  15
BRANCH   1  22
HETATM   22  C   UNL     1       7.066  29.667  56.408  1.00  0.00     0.134 C 
BRANCH  22  23
HETATM   23  C   UNL     1       7.146  29.963  57.890  1.00  0.00     0.238 C 
HETATM   24  N   UNL     1       6.904  31.281  58.219  1.00  0.00    -0.267 N 
HETATM   25  H   UNL     1       6.359  31.883  57.604  1.00  0.00     0.190 HD
HETATM   26  O   UNL     1       7.419  29.097  58.722  1.00  0.00    -0.272 OA
BRANCH  24  27
HETATM   27  N   UNL     1       6.809  31.595  59.578  1.00  0.00    -0.262 N 
HETATM   28  C   UNL     1       7.833  32.308  60.172  1.00  0.00     0.288 C 
HETATM   29  O   UNL     1       8.903  32.544  59.616  1.00  0.00    -0.264 OA
HETATM   30  H   UNL     1       5.885  31.581  60.016  1.00  0.00     0.190 HD
BRANCH  28  31
HETATM   31  C   UNL     1       7.526  32.774  61.560  1.00  0.00     0.125 A 
HETATM   32  N   UNL     1       6.458  33.610  61.692  1.00  0.00    -0.255 NA
HETATM   33  C   UNL     1       6.168  34.022  62.944  1.00  0.00     0.117 A 
HETATM   34  C   UNL     1       6.890  33.645  64.066  1.00  0.00     0.019 A 
HETATM   35  C   UNL     1       7.979  32.792  63.901  1.00  0.00     0.004 A 
HETATM   36  C   UNL     1       8.308  32.345  62.625  1.00  0.00     0.037 A 
ENDBRANCH  28  31
ENDBRANCH  24  27
ENDBRANCH  22  23
ENDBRANCH   1  22
TORSDOF 8
ENDMDL
MODEL 6
REMARK VINA RESULT:      -9.1      2.113      3.083
REMARK  8 active torsions:
REMARK  status: ('A' for Active; 'I' for Inactive)
REMARK    1  A    between atoms: C_4  and  O_5 
REMARK    2  A    between atoms: O_5  and  C_6 
REMARK    3  A    between atoms: C_8  and  C_9 
REMARK    4  A    between atoms: C_9  and  N_10 
REMARK    5  A    between atoms: C_9  and  C_14 
REMARK       I    between atoms: N_10  and  C_11 
REMARK       I    between atoms: C_11  and  N_12 
REMARK    6  A    between atoms: C_14  and  C_15 
REMARK       I    between atoms: C_15  and  N_16 
REMARK    7  A    between atoms: N_16  and  N_17 
REMARK       I    between atoms: N_17  and  C_18 
REMARK    8  A    between atoms: C_18  and  C_19 
ROOT
HETATM    1  C   UNL     1       6.173  28.774  56.313  1.00  0.00     0.128 C 
ENDROOT
BRANCH   1   2
HETATM    2  C   UNL     1       5.582  29.907  57.148  1.00  0.00    -0.032 A 
HETATM    3  C   UNL     1       6.381  30.857  57.806  1.00  0.00     0.046 A 
HETATM    4  C   UNL     1       5.806  31.880  58.565  1.00  0.00     0.076 A 
HETATM    5  C   UNL     1       4.419  32.001  58.643  1.00  0.00     0.037 A 
HETATM    6  C   UNL     1       3.610  31.055  58.017  1.00  0.00     0.003 A 
HETATM    7  C   UNL     1       4.186  30.010  57.290  1.00  0.00     0.009 A 
BRANCH   4   8
HETATM    8  O   UNL     1       6.677  32.776  59.142  1.00  0.00    -0.311 OA
BRANCH   8   9
HETATM    9  C   UNL     1       7.391  32.378  60.250  1.00  0.00     0.076 A 
HETATM   10  C   UNL     1       6.795  31.975  61.448  1.00  0.00     0.037 A 
HETATM   11  C   UNL     1       7.594  31.554  62.512  1.00  0.00     0.003 A 
HETATM   12  C   UNL     1       8.982  31.512  62.372  1.00  0.00     0.000 A 
HETATM   13  C   UNL     1       9.574  31.884  61.165  1.00  0.00     0.003 A 
HETATM   14  C   UNL     1       8.777  32.311  60.102  1.00  0.00     0.037 A 
ENDBRANCH   8   9
ENDBRANCH   4   8
ENDBRANCH   1   2
BRANCH   1  15
HETATM   15  N   UNL     1       7.271  29.209  55.456  1.00  0.00    -0.334 N 
HETATM   16  C   UNL     1       8.563  28.920  55.778  1.00  0.00     0.314 C 
HETATM   17  N   UNL     1       9.427  29.292  54.801  1.00  0.00    -0.352 N 
HETATM   18  O   UNL     1       8.941  28.395  56.814  1.00  0.00    -0.248 OA
HETATM   19  H   UNL     1       9.186  30.113  54.266  1.00  0.00     0.160 HD
HETATM   20  H   UNL     1      10.401  29.214  55.064  1.00  0.00     0.160 HD
HETATM   21  H   UNL     1       7.084  29.148  54.460  1.00  0.00     0.165 HD
ENDBRANCH   1  15
BRANCH   1  22
HETATM   22  C   UNL     1       5.106  28.030  55.492  1.00  0.00     0.134 C 
BRANCH  22  23
HETATM   23  C   UNL     1       5.343  26.535  55.520  1.00  0.00     0.238 C 
HETATM   24  N   UNL     1       5.573  25.974  54.280  1.00  0.00    -0.267 N 
HETATM   25  H   UNL     1       5.928  26.537  53.508  1.00  0.00     0.190 HD
HETATM   26  O   UNL     1       5.316  25.882  56.563  1.00  0.00    -0.272 OA
BRANCH  24  27
HETATM   27  N   UNL     1       5.951  24.629  54.245  1.00  0.00    -0.262 N 
HETATM   28  C   UNL     1       7.229  24.305  53.834  1.00  0.00     0.288 C 
HETATM   29  O   UNL     1       8.006  25.118  53.340  1.00  0.00    -0.264 OA
HETATM   30  H   UNL     1       5.417  23.960  54.805  1.00  0.00     0.190 HD
BRANCH  28  31
HETATM   31  C   UNL     1       7.591  22.869  54.044  1.00  0.00     0.125 A 
HETATM   32  N   UNL     1       7.530  22.414  55.327  1.00  0.00    -0.255 NA
HETATM   33  C   UNL     1       7.842  21.116  55.520  1.00  0.00     0.117 A 
HETATM   34  C   UNL     1       8.214  20.252  54.501  1.00  0.00     0.019 A 
HETATM   35  C   UNL     1       8.271  20.745  53.200  1.00  0.00     0.004 A 
HETATM   36  C   UNL     1       7.955  22.079  52.960  1.00  0.00     0.037 A 
ENDBRANCH  28  31
ENDBRANCH  24  27
ENDBRANCH  22  23
ENDBRANCH   1  22
TORSDOF 8
ENDMDL
MODEL 7
REMARK VINA RESULT:      -9.0      3.384      8.064
REMARK  8 active torsions:
REMARK  status: ('A' for Active; 'I' for Inactive)
REMARK    1  A    between atoms: C_4  and  O_5 
REMARK    2  A    between atoms: O_5  and  C_6 
REMARK    3  A    between atoms: C_8  and  C_9 
REMARK    4  A    between atoms: C_9  and  N_10 
REMARK    5  A    between atoms: C_9  and  C_14 
REMARK       I    between atoms: N_10  and  C_11 
REMARK       I    between atoms: C_11  and  N_12 
REMARK    6  A    between atoms: C_14  and  C_15 
REMARK       I    between atoms: C_15  and  N_16 
REMARK    7  A    between atoms: N_16  and  N_17 
REMARK       I    between atoms: N_17  and  C_18 
REMARK    8  A    between atoms: C_18  and  C_19 
ROOT
HETATM    1  C   UNL     1       7.026  28.824  55.997  1.00  0.00     0.128 C 
ENDROOT
BRANCH   1   2
HETATM    2  C   UNL     1       6.737  27.352  56.278  1.00  0.00    -0.032 A 
HETATM    3  C   UNL     1       7.685  26.339  56.052  1.00  0.00     0.046 A 
HETATM    4  C   UNL     1       7.385  25.000  56.318  1.00  0.00     0.076 A 
HETATM    5  C   UNL     1       6.148  24.652  56.859  1.00  0.00     0.037 A 
HETATM    6  C   UNL     1       5.187  25.638  57.067  1.00  0.00     0.003 A 
HETATM    7  C   UNL     1       5.473  26.972  56.766  1.00  0.00     0.009 A 
BRANCH   4   8
HETATM    8  O   UNL     1       8.394  24.092  56.091  1.00  0.00    -0.311 OA
BRANCH   8   9
HETATM    9  C   UNL     1       8.175  23.078  55.186  1.00  0.00     0.076 A 
HETATM   10  C   UNL     1       8.059  23.287  53.809  1.00  0.00     0.037 A 
HETATM   11  C   UNL     1       7.870  22.197  52.956  1.00  0.00     0.003 A 
HETATM   12  C   UNL     1       7.823  20.902  53.475  1.00  0.00     0.000 A 
HETATM   13  C   UNL     1       7.972  20.693  54.846  1.00  0.00     0.003 A 
HETATM   14  C   UNL     1       8.154  21.781  55.701  1.00  0.00     0.037 A 
ENDBRANCH   8   9
ENDBRANCH   4   8
ENDBRANCH   1   2
BRANCH   1  15
HETATM   15  N   UNL     1       7.771  29.474  57.070  1.00  0.00    -0.334 N 
HETATM   16  C   UNL     1       9.086  29.791  56.912  1.00  0.00     0.314 C 
HETATM   17  N   UNL     1       9.569  30.502  57.962  1.00  0.00    -0.352 N 
HETATM   18  O   UNL     1       9.785  29.487  55.958  1.00  0.00    -0.248 OA
HETATM   19  H   UNL     1       9.179  30.298  58.870  1.00  0.00     0.160 HD
HETATM   20  H   UNL     1      10.572  30.638  57.938  1.00  0.00     0.160 HD
HETATM   21  H   UNL     1       7.250  30.176  57.586  1.00  0.00     0.165 HD
ENDBRANCH   1  15
BRANCH   1  22
HETATM   22  C   UNL     1       5.753  29.619  55.661  1.00  0.00     0.134 C 
BRANCH  22  23
HETATM   23  C   UNL     1       5.113  29.107  54.388  1.00  0.00     0.238 C 
HETATM   24  N   UNL     1       5.996  28.921  53.344  1.00  0.00    -0.267 N 
HETATM   25  H   UNL     1       6.989  28.767  53.519  1.00  0.00     0.190 HD
HETATM   26  O   UNL     1       3.904  28.893  54.297  1.00  0.00    -0.272 OA
BRANCH  24  27
HETATM   27  N   UNL     1       5.504  28.307  52.189  1.00  0.00    -0.262 N 
HETATM   28  C   UNL     1       5.561  28.994  50.991  1.00  0.00     0.288 C 
HETATM   29  O   UNL     1       5.871  30.180  50.907  1.00  0.00    -0.264 OA
HETATM   30  H   UNL     1       5.414  27.288  52.182  1.00  0.00     0.190 HD
BRANCH  28  31
HETATM   31  C   UNL     1       5.213  28.164  49.797  1.00  0.00     0.125 A 
HETATM   32  N   UNL     1       4.541  27.005  50.044  1.00  0.00    -0.255 NA
HETATM   33  C   UNL     1       4.212  26.259  48.968  1.00  0.00     0.117 A 
HETATM   34  C   UNL     1       4.522  26.610  47.663  1.00  0.00     0.019 A 
HETATM   35  C   UNL     1       5.213  27.799  47.440  1.00  0.00     0.004 A 
HETATM   36  C   UNL     1       5.568  28.596  48.524  1.00  0.00     0.037 A 
ENDBRANCH  28  31
ENDBRANCH  24  27
ENDBRANCH  22  23
ENDBRANCH   1  22
TORSDOF 8
ENDMDL
MODEL 8
REMARK VINA RESULT:      -9.0      3.499      5.696
REMARK  8 active torsions:
REMARK  status: ('A' for Active; 'I' for Inactive)
REMARK    1  A    between atoms: C_4  and  O_5 
REMARK    2  A    between atoms: O_5  and  C_6 
REMARK    3  A    between atoms: C_8  and  C_9 
REMARK    4  A    between atoms: C_9  and  N_10 
REMARK    5  A    between atoms: C_9  and  C_14 
REMARK       I    between atoms: N_10  and  C_11 
REMARK       I    between atoms: C_11  and  N_12 
REMARK    6  A    between atoms: C_14  and  C_15 
REMARK       I    between atoms: C_15  and  N_16 
REMARK    7  A    between atoms: N_16  and  N_17 
REMARK       I    between atoms: N_17  and  C_18 
REMARK    8  A    between atoms: C_18  and  C_19 
ROOT
HETATM    1  C   UNL     1       6.577  32.292  59.761  1.00  0.00     0.128 C 
ENDROOT
BRANCH   1   2
HETATM    2  C   UNL     1       6.815  32.462  61.259  1.00  0.00    -0.032 A 
HETATM    3  C   UNL     1       5.763  32.539  62.188  1.00  0.00     0.046 A 
HETATM    4  C   UNL     1       6.018  32.698  63.553  1.00  0.00     0.076 A 
HETATM    5  C   UNL     1       7.331  32.736  64.022  1.00  0.00     0.037 A 
HETATM    6  C   UNL     1       8.386  32.684  63.115  1.00  0.00     0.003 A 
HETATM    7  C   UNL     1       8.132  32.564  61.747  1.00  0.00     0.009 A 
BRANCH   4   8
HETATM    8  O   UNL     1       4.918  32.731  64.379  1.00  0.00    -0.311 OA
BRANCH   8   9
HETATM    9  C   UNL     1       4.649  33.891  65.070  1.00  0.00     0.076 A 
HETATM   10  C   UNL     1       4.232  35.075  64.455  1.00  0.00     0.037 A 
HETATM   11  C   UNL     1       3.949  36.198  65.235  1.00  0.00     0.003 A 
HETATM   12  C   UNL     1       4.058  36.131  66.625  1.00  0.00     0.000 A 
HETATM   13  C   UNL     1       4.443  34.939  67.239  1.00  0.00     0.003 A 
HETATM   14  C   UNL     1       4.733  33.818  66.461  1.00  0.00     0.037 A 
ENDBRANCH   8   9
ENDBRANCH   4   8
ENDBRANCH   1   2
BRANCH   1  15
HETATM   15  N   UNL     1       5.542  31.311  59.455  1.00  0.00    -0.334 N 
HETATM   16  C   UNL     1       4.416  31.672  58.779  1.00  0.00     0.314 C 
HETATM   17  N   UNL     1       3.638  30.604  58.478  1.00  0.00    -0.352 N 
HETATM   18  O   UNL     1       4.105  32.811  58.467  1.00  0.00    -0.248 OA
HETATM   19  H   UNL     1       3.636  29.838  59.135  1.00  0.00     0.160 HD
HETATM   20  H   UNL     1       2.733  30.851  58.095  1.00  0.00     0.160 HD
HETATM   21  H   UNL     1       5.889  30.393  59.192  1.00  0.00     0.165 HD
ENDBRANCH   1  15
BRANCH   1  22
HETATM   22  C   UNL     1       7.871  31.974  58.993  1.00  0.00     0.134 C 
BRANCH  22  23
HETATM   23  C   UNL     1       8.084  30.479  58.880  1.00  0.00     0.238 C 
HETATM   24  N   UNL     1       7.897  29.974  57.610  1.00  0.00    -0.267 N 
HETATM   25  H   UNL     1       7.994  30.570  56.789  1.00  0.00     0.190 HD
HETATM   26  O   UNL     1       8.383  29.781  59.849  1.00  0.00    -0.272 OA
BRANCH  24  27
HETATM   27  N   UNL     1       8.224  28.631  57.400  1.00  0.00    -0.262 N 
HETATM   28  C   UNL     1       7.206  27.715  57.223  1.00  0.00     0.288 C 
HETATM   29  O   UNL     1       6.020  27.980  57.403  1.00  0.00    -0.264 OA
HETATM   30  H   UNL     1       9.166  28.408  57.069  1.00  0.00     0.190 HD
BRANCH  28  31
HETATM   31  C   UNL     1       7.673  26.361  56.791  1.00  0.00     0.125 A 
HETATM   32  N   UNL     1       8.406  25.659  57.699  1.00  0.00    -0.255 NA
HETATM   33  C   UNL     1       8.818  24.431  57.319  1.00  0.00     0.117 A 
HETATM   34  C   UNL     1       8.539  23.873  56.081  1.00  0.00     0.019 A 
HETATM   35  C   UNL     1       7.790  24.615  55.170  1.00  0.00     0.004 A 
HETATM   36  C   UNL     1       7.346  25.885  55.527  1.00  0.00     0.037 A 
ENDBRANCH  28  31
ENDBRANCH  24  27
ENDBRANCH  22  23
ENDBRANCH   1  22
TORSDOF 8
ENDMDL
MODEL 9
REMARK VINA RESULT:      -8.9      2.358      4.147
REMARK  8 active torsions:
REMARK  status: ('A' for Active; 'I' for Inactive)
REMARK    1  A    between atoms: C_4  and  O_5 
REMARK    2  A    between atoms: O_5  and  C_6 
REMARK    3  A    between atoms: C_8  and  C_9 
REMARK    4  A    between atoms: C_9  and  N_10 
REMARK    5  A    between atoms: C_9  and  C_14 
REMARK       I    between atoms: N_10  and  C_11 
REMARK       I    between atoms: C_11  and  N_12 
REMARK    6  A    between atoms: C_14  and  C_15 
REMARK       I    between atoms: C_15  and  N_16 
REMARK    7  A    between atoms: N_16  and  N_17 
REMARK       I    between atoms: N_17  and  C_18 
REMARK    8  A    between atoms: C_18  and  C_19 
ROOT
HETATM    1  C   UNL     1       5.472  28.206  53.351  1.00  0.00     0.128 C 
ENDROOT
BRANCH   1   2
HETATM    2  C   UNL     1       5.405  28.597  54.825  1.00  0.00    -0.032 A 
HETATM    3  C   UNL     1       6.434  28.298  55.734  1.00  0.00     0.046 A 
HETATM    4  C   UNL     1       6.338  28.668  57.079  1.00  0.00     0.076 A 
HETATM    5  C   UNL     1       5.231  29.386  57.531  1.00  0.00     0.037 A 
HETATM    6  C   UNL     1       4.191  29.671  56.651  1.00  0.00     0.003 A 
HETATM    7  C   UNL     1       4.270  29.268  55.316  1.00  0.00     0.009 A 
BRANCH   4   8
HETATM    8  O   UNL     1       7.415  28.355  57.877  1.00  0.00    -0.311 OA
BRANCH   8   9
HETATM    9  C   UNL     1       8.535  29.152  57.811  1.00  0.00     0.076 A 
HETATM   10  C   UNL     1       9.615  28.895  56.962  1.00  0.00     0.037 A 
HETATM   11  C   UNL     1      10.699  29.775  56.934  1.00  0.00     0.003 A 
HETATM   12  C   UNL     1      10.693  30.919  57.733  1.00  0.00     0.000 A 
HETATM   13  C   UNL     1       9.600  31.191  58.556  1.00  0.00     0.003 A 
HETATM   14  C   UNL     1       8.518  30.310  58.590  1.00  0.00     0.037 A 
ENDBRANCH   8   9
ENDBRANCH   4   8
ENDBRANCH   1   2
BRANCH   1  15
HETATM   15  N   UNL     1       5.436  29.355  52.453  1.00  0.00    -0.334 N 
HETATM   16  C   UNL     1       5.537  29.190  51.105  1.00  0.00     0.314 C 
HETATM   17  N   UNL     1       5.354  30.354  50.434  1.00  0.00    -0.352 N 
HETATM   18  O   UNL     1       5.768  28.139  50.530  1.00  0.00    -0.248 OA
HETATM   19  H   UNL     1       5.669  31.199  50.888  1.00  0.00     0.160 HD
HETATM   20  H   UNL     1       5.553  30.293  49.444  1.00  0.00     0.160 HD
HETATM   21  H   UNL     1       4.780  30.084  52.719  1.00  0.00     0.165 HD
ENDBRANCH   1  15
BRANCH   1  22
HETATM   22  C   UNL     1       4.391  27.182  52.965  1.00  0.00     0.134 C 
BRANCH  22  23
HETATM   23  C   UNL     1       4.957  25.777  52.942  1.00  0.00     0.238 C 
HETATM   24  N   UNL     1       6.310  25.715  52.680  1.00  0.00    -0.267 N 
HETATM   25  H   UNL     1       6.918  26.511  52.871  1.00  0.00     0.190 HD
HETATM   26  O   UNL     1       4.257  24.781  53.127  1.00  0.00    -0.272 OA
BRANCH  24  27
HETATM   27  N   UNL     1       6.929  24.467  52.795  1.00  0.00    -0.262 N 
HETATM   28  C   UNL     1       7.618  24.167  53.954  1.00  0.00     0.288 C 
HETATM   29  O   UNL     1       7.859  24.994  54.830  1.00  0.00    -0.264 OA
HETATM   30  H   UNL     1       6.606  23.708  52.190  1.00  0.00     0.190 HD
BRANCH  28  31
HETATM   31  C   UNL     1       8.047  22.738  54.055  1.00  0.00     0.125 A 
HETATM   32  N   UNL     1       8.601  22.357  55.240  1.00  0.00    -0.255 NA
HETATM   33  C   UNL     1       8.977  21.065  55.341  1.00  0.00     0.117 A 
HETATM   34  C   UNL     1       8.832  20.138  54.321  1.00  0.00     0.019 A 
HETATM   35  C   UNL     1       8.267  20.555  53.118  1.00  0.00     0.004 A 
HETATM   36  C   UNL     1       7.864  21.880  52.977  1.00  0.00     0.037 A 
ENDBRANCH  28  31
ENDBRANCH  24  27
ENDBRANCH  22  23
ENDBRANCH   1  22
TORSDOF 8
ENDMDL
MODEL 10
REMARK VINA RESULT:      -8.8      2.707      4.316
REMARK  8 active torsions:
REMARK  status: ('A' for Active; 'I' for Inactive)
REMARK    1  A    between atoms: C_4  and  O_5 
REMARK    2  A    between atoms: O_5  and  C_6 
REMARK    3  A    between atoms: C_8  and  C_9 
REMARK    4  A    between atoms: C_9  and  N_10 
REMARK    5  A    between atoms: C_9  and  C_14 
REMARK       I    between atoms: N_10  and  C_11 
REMARK       I    between atoms: C_11  and  N_12 
REMARK    6  A    between atoms: C_14  and  C_15 
REMARK       I    between atoms: C_15  and  N_16 
REMARK    7  A    between atoms: N_16  and  N_17 
REMARK       I    between atoms: N_17  and  C_18 
REMARK    8  A    between atoms: C_18  and  C_19 
ROOT
HETATM    1  C   UNL     1       7.291  31.174  58.672  1.00  0.00     0.128 C 
ENDROOT
BRANCH   1   2
HETATM    2  C   UNL     1       7.653  31.564  60.102  1.00  0.00    -0.032 A 
HETATM    3  C   UNL     1       6.683  31.906  61.061  1.00  0.00     0.046 A 
HETATM    4  C   UNL     1       7.050  32.262  62.362  1.00  0.00     0.076 A 
HETATM    5  C   UNL     1       8.391  32.238  62.743  1.00  0.00     0.037 A 
HETATM    6  C   UNL     1       9.368  31.926  61.802  1.00  0.00     0.003 A 
HETATM    7  C   UNL     1       9.004  31.608  60.492  1.00  0.00     0.009 A 
BRANCH   4   8
HETATM    8  O   UNL     1       6.021  32.547  63.230  1.00  0.00    -0.311 OA
BRANCH   8   9
HETATM    9  C   UNL     1       5.482  33.814  63.216  1.00  0.00     0.076 A 
HETATM   10  C   UNL     1       6.122  34.918  62.648  1.00  0.00     0.037 A 
HETATM   11  C   UNL     1       5.489  36.162  62.648  1.00  0.00     0.003 A 
HETATM   12  C   UNL     1       4.211  36.298  63.191  1.00  0.00     0.000 A 
HETATM   13  C   UNL     1       3.559  35.188  63.729  1.00  0.00     0.003 A 
HETATM   14  C   UNL     1       4.193  33.944  63.736  1.00  0.00     0.037 A 
ENDBRANCH   8   9
ENDBRANCH   4   8
ENDBRANCH   1   2
BRANCH   1  15
HETATM   15  N   UNL     1       6.057  30.401  58.585  1.00  0.00    -0.334 N 
HETATM   16  C   UNL     1       4.953  30.916  57.976  1.00  0.00     0.314 C 
HETATM   17  N   UNL     1       3.952  30.006  57.881  1.00  0.00    -0.352 N 
HETATM   18  O   UNL     1       4.836  32.057  57.555  1.00  0.00    -0.248 OA
HETATM   19  H   UNL     1       3.877  29.329  58.626  1.00  0.00     0.160 HD
HETATM   20  H   UNL     1       3.076  30.394  57.555  1.00  0.00     0.160 HD
HETATM   21  H   UNL     1       6.186  29.410  58.407  1.00  0.00     0.165 HD
ENDBRANCH   1  15
BRANCH   1  22
HETATM   22  C   UNL     1       8.440  30.445  57.954  1.00  0.00     0.134 C 
BRANCH  22  23
HETATM   23  C   UNL     1       8.024  29.050  57.541  1.00  0.00     0.238 C 
HETATM   24  N   UNL     1       7.802  28.901  56.187  1.00  0.00    -0.267 N 
HETATM   25  H   UNL     1       8.239  29.528  55.512  1.00  0.00     0.190 HD
HETATM   26  O   UNL     1       7.883  28.135  58.353  1.00  0.00    -0.272 OA
BRANCH  24  27
HETATM   27  N   UNL     1       7.566  27.607  55.714  1.00  0.00    -0.262 N 
HETATM   28  C   UNL     1       7.553  27.387  54.350  1.00  0.00     0.288 C 
HETATM   29  O   UNL     1       7.576  28.291  53.519  1.00  0.00    -0.264 OA
HETATM   30  H   UNL     1       7.723  26.822  56.350  1.00  0.00     0.190 HD
BRANCH  28  31
HETATM   31  C   UNL     1       7.511  25.941  53.967  1.00  0.00     0.125 A 
HETATM   32  N   UNL     1       7.130  25.071  54.944  1.00  0.00    -0.255 NA
HETATM   33  C   UNL     1       7.077  23.767  54.600  1.00  0.00     0.117 A 
HETATM   34  C   UNL     1       7.387  23.290  53.335  1.00  0.00     0.019 A 
HETATM   35  C   UNL     1       7.777  24.202  52.357  1.00  0.00     0.004 A 
HETATM   36  C   UNL     1       7.842  25.556  52.674  1.00  0.00     0.037 A 
ENDBRANCH  28  31
ENDBRANCH  24  27
ENDBRANCH  22  23
ENDBRANCH   1  22
TORSDOF 8
ENDMDL
