MODEL 1
REMARK VINA RESULT:      -8.7      0.000      0.000
REMARK  5 active torsions:
REMARK  status: ('A' for Active; 'I' for Inactive)
REMARK    1  A    between atoms: C_7  and  C_8 
REMARK    2  A    between atoms: C_8  and  N_9 
REMARK    3  A    between atoms: N_9  and  C_12 
REMARK    4  A    between atoms: C_15  and  O_16 
REMARK    5  A    between atoms: O_16  and  C_17 
ROOT
HETATM    1  C   UNL     1       7.519  25.130  54.653  1.00  0.00     0.164 A 
HETATM    2  N   UNL     1       7.353  24.113  55.523  1.00  0.00    -0.236 NA
HETATM    3  C   UNL     1       7.554  22.861  55.039  1.00  0.00     0.142 A 
HETATM    4  C   UNL     1       7.905  22.584  53.725  1.00  0.00     0.062 A 
HETATM    5  C   UNL     1       8.102  21.236  53.295  1.00  0.00     0.101 C 
HETATM    6  N   UNL     1       8.261  20.140  52.950  1.00  0.00    -0.191 NA
HETATM    7  C   UNL     1       8.055  23.657  52.848  1.00  0.00     0.028 A 
HETATM    8  C   UNL     1       7.852  24.955  53.318  1.00  0.00     0.059 A 
ENDROOT
BRANCH   1   9
HETATM    9  O   UNL     1       7.314  26.427  55.071  1.00  0.00    -0.329 OA
BRANCH   9  10
HETATM   10  C   UNL     1       6.993  26.562  56.462  1.00  0.00     0.130 C 
HETATM   11  C   UNL     1       8.195  27.256  57.121  1.00  0.00     0.034 C 
HETATM   12  C   UNL     1       8.404  28.675  56.585  1.00  0.00     0.035 C 
HETATM   13  C   UNL     1       7.154  29.552  56.702  1.00  0.00     0.186 C 
HETATM   14  C   UNL     1       5.926  28.851  56.109  1.00  0.00     0.035 C 
HETATM   15  C   UNL     1       5.733  27.424  56.633  1.00  0.00     0.034 C 
BRANCH  13  16
HETATM   16  N   UNL     1       6.866  29.886  58.141  1.00  0.00    -0.067 N 
HETATM   17  H   UNL     1       7.571  29.485  58.772  1.00  0.00     0.278 HD
HETATM   18  H   UNL     1       5.982  29.434  58.414  1.00  0.00     0.278 HD
BRANCH  16  19
HETATM   19  C   UNL     1       6.706  31.340  58.462  1.00  0.00     0.280 C 
BRANCH  19  20
HETATM   20  C   UNL     1       7.442  31.690  59.703  1.00  0.00     0.034 A 
HETATM   21  C   UNL     1       8.804  31.822  59.914  1.00  0.00     0.046 A 
HETATM   22  C   UNL     1       9.899  31.650  58.920  1.00  0.00     0.071 C 
HETATM   23  N   UNL     1       9.152  32.152  61.208  1.00  0.00    -0.250 NA
HETATM   24  C   UNL     1       8.084  32.304  61.959  1.00  0.00     0.072 A 
HETATM   25  C   UNL     1       8.108  32.706  63.392  1.00  0.00     0.078 C 
HETATM   26  S   UNL     1       6.594  31.998  61.164  1.00  0.00    -0.076 SA
ENDBRANCH  19  20
ENDBRANCH  16  19
ENDBRANCH  13  16
ENDBRANCH   9  10
ENDBRANCH   1   9
TORSDOF 5
ENDMDL
MODEL 2
REMARK VINA RESULT:      -8.2      2.767      9.549
REMARK  5 active torsions:
REMARK  status: ('A' for Active; 'I' for Inactive)
REMARK    1  A    between atoms: C_7  and  C_8 
REMARK    2  A    between atoms: C_8  and  N_9 
REMARK    3  A    between atoms: N_9  and  C_12 
REMARK    4  A    between atoms: C_15  and  O_16 
REMARK    5  A    between atoms: O_16  and  C_17 
ROOT
HETATM    1  C   UNL     1       8.397  31.331  59.482  1.00  0.00     0.164 A 
HETATM    2  N   UNL     1       7.248  31.977  59.767  1.00  0.00    -0.236 NA
HETATM    3  C   UNL     1       7.111  32.442  61.035  1.00  0.00     0.142 A 
HETATM    4  C   UNL     1       8.069  32.283  62.027  1.00  0.00     0.062 A 
HETATM    5  C   UNL     1       7.850  32.807  63.338  1.00  0.00     0.101 C 
HETATM    6  N   UNL     1       7.668  33.233  64.401  1.00  0.00    -0.191 NA
HETATM    7  C   UNL     1       9.239  31.598  61.703  1.00  0.00     0.028 A 
HETATM    8  C   UNL     1       9.405  31.107  60.408  1.00  0.00     0.059 A 
ENDROOT
BRANCH   1   9
HETATM    9  O   UNL     1       8.596  30.816  58.219  1.00  0.00    -0.329 OA
BRANCH   9  10
HETATM   10  C   UNL     1       8.928  29.422  58.188  1.00  0.00     0.130 C 
HETATM   11  C   UNL     1       7.596  28.657  58.200  1.00  0.00     0.034 C 
HETATM   12  C   UNL     1       6.764  28.933  56.943  1.00  0.00     0.035 C 
HETATM   13  C   UNL     1       7.527  28.653  55.645  1.00  0.00     0.186 C 
HETATM   14  C   UNL     1       8.891  29.353  55.640  1.00  0.00     0.035 C 
HETATM   15  C   UNL     1       9.710  29.092  56.908  1.00  0.00     0.034 C 
BRANCH  13  16
HETATM   16  N   UNL     1       7.747  27.175  55.460  1.00  0.00    -0.067 N 
HETATM   17  H   UNL     1       7.765  26.679  56.360  1.00  0.00     0.278 HD
HETATM   18  H   UNL     1       8.685  27.028  55.060  1.00  0.00     0.278 HD
BRANCH  16  19
HETATM   19  C   UNL     1       6.791  26.474  54.545  1.00  0.00     0.280 C 
BRANCH  19  20
HETATM   20  C   UNL     1       7.135  25.036  54.425  1.00  0.00     0.034 A 
HETATM   21  C   UNL     1       7.571  24.321  53.321  1.00  0.00     0.046 A 
HETATM   22  C   UNL     1       7.816  24.833  51.945  1.00  0.00     0.071 C 
HETATM   23  N   UNL     1       7.793  22.980  53.560  1.00  0.00    -0.250 NA
HETATM   24  C   UNL     1       7.568  22.683  54.821  1.00  0.00     0.072 A 
HETATM   25  C   UNL     1       7.761  21.333  55.419  1.00  0.00     0.078 C 
HETATM   26  S   UNL     1       7.016  23.993  55.783  1.00  0.00    -0.076 SA
ENDBRANCH  19  20
ENDBRANCH  16  19
ENDBRANCH  13  16
ENDBRANCH   9  10
ENDBRANCH   1   9
TORSDOF 5
ENDMDL
MODEL 3
REMARK VINA RESULT:      -7.9      4.507     11.402
REMARK  5 active torsions:
REMARK  status: ('A' for Active; 'I' for Inactive)
REMARK    1  A    between atoms: C_7  and  C_8 
REMARK    2  A    between atoms: C_8  and  N_9 
REMARK    3  A    between atoms: N_9  and  C_12 
REMARK    4  A    between atoms: C_15  and  O_16 
REMARK    5  A    between atoms: O_16  and  C_17 
ROOT
HETATM    1  C   UNL     1       5.527  33.912  64.890  1.00  0.00     0.164 A 
HETATM    2  N   UNL     1       4.358  33.997  65.558  1.00  0.00    -0.236 NA
HETATM    3  C   UNL     1       4.439  34.155  66.903  1.00  0.00     0.142 A 
HETATM    4  C   UNL     1       5.633  34.224  67.607  1.00  0.00     0.062 A 
HETATM    5  C   UNL     1       5.632  34.396  69.025  1.00  0.00     0.101 C 
HETATM    6  N   UNL     1       5.626  34.535  70.176  1.00  0.00    -0.191 NA
HETATM    7  C   UNL     1       6.823  34.118  66.887  1.00  0.00     0.028 A 
HETATM    8  C   UNL     1       6.770  33.953  65.504  1.00  0.00     0.059 A 
ENDROOT
BRANCH   1   9
HETATM    9  O   UNL     1       5.522  33.732  63.523  1.00  0.00    -0.329 OA
BRANCH   9  10
HETATM   10  C   UNL     1       5.417  32.366  63.101  1.00  0.00     0.130 C 
HETATM   11  C   UNL     1       4.272  32.312  62.080  1.00  0.00     0.034 C 
HETATM   12  C   UNL     1       4.582  33.131  60.823  1.00  0.00     0.035 C 
HETATM   13  C   UNL     1       5.905  32.735  60.160  1.00  0.00     0.186 C 
HETATM   14  C   UNL     1       7.053  32.718  61.176  1.00  0.00     0.035 C 
HETATM   15  C   UNL     1       6.729  31.915  62.441  1.00  0.00     0.034 C 
BRANCH  13  16
HETATM   16  N   UNL     1       5.803  31.371  59.531  1.00  0.00    -0.067 N 
HETATM   17  H   UNL     1       4.854  30.986  59.613  1.00  0.00     0.278 HD
HETATM   18  H   UNL     1       6.399  30.718  60.059  1.00  0.00     0.278 HD
BRANCH  16  19
HETATM   19  C   UNL     1       6.240  31.269  58.102  1.00  0.00     0.280 C 
BRANCH  19  20
HETATM   20  C   UNL     1       7.062  30.052  57.888  1.00  0.00     0.034 A 
HETATM   21  C   UNL     1       8.417  29.854  58.094  1.00  0.00     0.046 A 
HETATM   22  C   UNL     1       9.412  30.837  58.602  1.00  0.00     0.071 C 
HETATM   23  N   UNL     1       8.863  28.586  57.781  1.00  0.00    -0.250 NA
HETATM   24  C   UNL     1       7.870  27.823  57.381  1.00  0.00     0.072 A 
HETATM   25  C   UNL     1       8.002  26.386  57.014  1.00  0.00     0.078 C 
HETATM   26  S   UNL     1       6.345  28.607  57.300  1.00  0.00    -0.076 SA
ENDBRANCH  19  20
ENDBRANCH  16  19
ENDBRANCH  13  16
ENDBRANCH   9  10
ENDBRANCH   1   9
TORSDOF 5
ENDMDL
MODEL 4
REMARK VINA RESULT:      -7.7      6.315      9.215
REMARK  5 active torsions:
REMARK  status: ('A' for Active; 'I' for Inactive)
REMARK    1  A    between atoms: C_7  and  C_8 
REMARK    2  A    between atoms: C_8  and  N_9 
REMARK    3  A    between atoms: N_9  and  C_12 
REMARK    4  A    between atoms: C_15  and  O_16 
REMARK    5  A    between atoms: O_16  and  C_17 
ROOT
HETATM    1  C   UNL     1       7.092  24.634  53.863  1.00  0.00     0.164 A 
HETATM    2  N   UNL     1       6.809  23.945  54.988  1.00  0.00    -0.236 NA
HETATM    3  C   UNL     1       7.289  22.677  55.061  1.00  0.00     0.142 A 
HETATM    4  C   UNL     1       8.030  22.070  54.057  1.00  0.00     0.062 A 
HETATM    5  C   UNL     1       8.503  20.731  54.213  1.00  0.00     0.101 C 
HETATM    6  N   UNL     1       8.885  19.644  54.344  1.00  0.00    -0.191 NA
HETATM    7  C   UNL     1       8.293  22.805  52.902  1.00  0.00     0.028 A 
HETATM    8  C   UNL     1       7.810  24.109  52.799  1.00  0.00     0.059 A 
ENDROOT
BRANCH   1   9
HETATM    9  O   UNL     1       6.621  25.921  53.713  1.00  0.00    -0.329 OA
BRANCH   9  10
HETATM   10  C   UNL     1       5.211  26.016  53.472  1.00  0.00     0.130 C 
HETATM   11  C   UNL     1       4.890  27.513  53.351  1.00  0.00     0.034 C 
HETATM   12  C   UNL     1       5.581  28.153  52.143  1.00  0.00     0.035 C 
HETATM   13  C   UNL     1       5.274  27.435  50.825  1.00  0.00     0.186 C 
HETATM   14  C   UNL     1       5.524  25.926  50.943  1.00  0.00     0.035 C 
HETATM   15  C   UNL     1       4.849  25.294  52.165  1.00  0.00     0.034 C 
BRANCH  13  16
HETATM   16  N   UNL     1       3.841  27.651  50.417  1.00  0.00    -0.067 N 
HETATM   17  H   UNL     1       3.590  28.647  50.429  1.00  0.00     0.278 HD
HETATM   18  H   UNL     1       3.228  27.217  51.122  1.00  0.00     0.278 HD
BRANCH  16  19
HETATM   19  C   UNL     1       3.435  27.069  49.098  1.00  0.00     0.280 C 
BRANCH  19  20
HETATM   20  C   UNL     1       3.127  28.142  48.121  1.00  0.00     0.034 A 
HETATM   21  C   UNL     1       1.991  28.339  47.354  1.00  0.00     0.046 A 
HETATM   22  C   UNL     1       0.760  27.504  47.322  1.00  0.00     0.071 C 
HETATM   23  N   UNL     1       2.041  29.447  46.533  1.00  0.00    -0.250 NA
HETATM   24  C   UNL     1       3.170  30.102  46.693  1.00  0.00     0.072 A 
HETATM   25  C   UNL     1       3.520  31.368  45.993  1.00  0.00     0.078 C 
HETATM   26  S   UNL     1       4.267  29.386  47.803  1.00  0.00    -0.076 SA
ENDBRANCH  19  20
ENDBRANCH  16  19
ENDBRANCH  13  16
ENDBRANCH   9  10
ENDBRANCH   1   9
TORSDOF 5
ENDMDL
MODEL 5
REMARK VINA RESULT:      -7.5      4.134      8.970
REMARK  5 active torsions:
REMARK  status: ('A' for Active; 'I' for Inactive)
REMARK    1  A    between atoms: C_7  and  C_8 
REMARK    2  A    between atoms: C_8  and  N_9 
REMARK    3  A    between atoms: N_9  and  C_12 
REMARK    4  A    between atoms: C_15  and  O_16 
REMARK    5  A    between atoms: O_16  and  C_17 
ROOT
HETATM    1  C   UNL     1       8.514  28.173  57.161  1.00  0.00     0.164 A 
HETATM    2  N   UNL     1       7.681  28.506  58.168  1.00  0.00    -0.236 NA
HETATM    3  C   UNL     1       7.958  29.659  58.829  1.00  0.00     0.142 A 
HETATM    4  C   UNL     1       9.033  30.484  58.532  1.00  0.00     0.062 A 
HETATM    5  C   UNL     1       9.254  31.685  59.275  1.00  0.00     0.101 C 
HETATM    6  N   UNL     1       9.429  32.658  59.880  1.00  0.00    -0.191 NA
HETATM    7  C   UNL     1       9.883  30.104  57.494  1.00  0.00     0.028 A 
HETATM    8  C   UNL     1       9.623  28.923  56.799  1.00  0.00     0.059 A 
ENDROOT
BRANCH   1   9
HETATM    9  O   UNL     1       8.303  27.007  56.457  1.00  0.00    -0.329 OA
BRANCH   9  10
HETATM   10  C   UNL     1       6.937  26.767  56.094  1.00  0.00     0.130 C 
HETATM   11  C   UNL     1       6.583  27.806  55.020  1.00  0.00     0.034 C 
HETATM   12  C   UNL     1       7.409  27.618  53.744  1.00  0.00     0.035 C 
HETATM   13  C   UNL     1       7.310  26.202  53.168  1.00  0.00     0.186 C 
HETATM   14  C   UNL     1       7.595  25.145  54.241  1.00  0.00     0.035 C 
HETATM   15  C   UNL     1       6.782  25.350  55.524  1.00  0.00     0.034 C 
BRANCH  13  16
HETATM   16  N   UNL     1       5.940  25.949  52.599  1.00  0.00    -0.067 N 
HETATM   17  H   UNL     1       5.242  26.594  52.990  1.00  0.00     0.278 HD
HETATM   18  H   UNL     1       5.628  25.012  52.893  1.00  0.00     0.278 HD
BRANCH  16  19
HETATM   19  C   UNL     1       5.831  25.972  51.105  1.00  0.00     0.280 C 
BRANCH  19  20
HETATM   20  C   UNL     1       4.882  27.024  50.663  1.00  0.00     0.034 A 
HETATM   21  C   UNL     1       4.366  27.274  49.402  1.00  0.00     0.046 A 
HETATM   22  C   UNL     1       4.636  26.526  48.144  1.00  0.00     0.071 C 
HETATM   23  N   UNL     1       3.506  28.351  49.341  1.00  0.00    -0.250 NA
HETATM   24  C   UNL     1       3.338  28.889  50.529  1.00  0.00     0.072 A 
HETATM   25  C   UNL     1       2.436  30.038  50.818  1.00  0.00     0.078 C 
HETATM   26  S   UNL     1       4.258  28.165  51.784  1.00  0.00    -0.076 SA
ENDBRANCH  19  20
ENDBRANCH  16  19
ENDBRANCH  13  16
ENDBRANCH   9  10
ENDBRANCH   1   9
TORSDOF 5
ENDMDL
MODEL 6
REMARK VINA RESULT:      -7.5      3.699      6.345
REMARK  5 active torsions:
REMARK  status: ('A' for Active; 'I' for Inactive)
REMARK    1  A    between atoms: C_7  and  C_8 
REMARK    2  A    between atoms: C_8  and  N_9 
REMARK    3  A    between atoms: N_9  and  C_12 
REMARK    4  A    between atoms: C_15  and  O_16 
REMARK    5  A    between atoms: O_16  and  C_17 
ROOT
HETATM    1  C   UNL     1       8.526  29.630  58.384  1.00  0.00     0.164 A 
HETATM    2  N   UNL     1       9.467  29.784  57.429  1.00  0.00    -0.236 NA
HETATM    3  C   UNL     1       9.163  29.308  56.195  1.00  0.00     0.142 A 
HETATM    4  C   UNL     1       7.966  28.680  55.878  1.00  0.00     0.062 A 
HETATM    5  C   UNL     1       7.722  28.211  54.551  1.00  0.00     0.101 C 
HETATM    6  N   UNL     1       7.528  27.830  53.473  1.00  0.00    -0.191 NA
HETATM    7  C   UNL     1       7.021  28.525  56.891  1.00  0.00     0.028 A 
HETATM    8  C   UNL     1       7.308  29.003  58.170  1.00  0.00     0.059 A 
ENDROOT
BRANCH   1   9
HETATM    9  O   UNL     1       8.773  30.074  59.665  1.00  0.00    -0.329 OA
BRANCH   9  10
HETATM   10  C   UNL     1       8.954  31.491  59.781  1.00  0.00     0.130 C 
HETATM   11  C   UNL     1       7.568  32.124  59.585  1.00  0.00     0.034 C 
HETATM   12  C   UNL     1       6.590  31.720  60.692  1.00  0.00     0.035 C 
HETATM   13  C   UNL     1       7.117  32.019  62.099  1.00  0.00     0.186 C 
HETATM   14  C   UNL     1       8.528  31.453  62.295  1.00  0.00     0.035 C 
HETATM   15  C   UNL     1       9.498  31.843  61.174  1.00  0.00     0.034 C 
BRANCH  13  16
HETATM   16  N   UNL     1       7.157  33.503  62.352  1.00  0.00    -0.067 N 
HETATM   17  H   UNL     1       7.838  33.973  61.743  1.00  0.00     0.278 HD
HETATM   18  H   UNL     1       7.503  33.665  63.309  1.00  0.00     0.278 HD
BRANCH  16  19
HETATM   19  C   UNL     1       5.848  34.224  62.255  1.00  0.00     0.280 C 
BRANCH  19  20
HETATM   20  C   UNL     1       5.131  34.191  63.554  1.00  0.00     0.034 A 
HETATM   21  C   UNL     1       3.770  34.174  63.811  1.00  0.00     0.046 A 
HETATM   22  C   UNL     1       2.658  34.180  62.822  1.00  0.00     0.071 C 
HETATM   23  N   UNL     1       3.443  34.152  65.152  1.00  0.00    -0.250 NA
HETATM   24  C   UNL     1       4.523  34.116  65.900  1.00  0.00     0.072 A 
HETATM   25  C   UNL     1       4.520  34.037  67.387  1.00  0.00     0.078 C 
HETATM   26  S   UNL     1       6.003  34.167  65.033  1.00  0.00    -0.076 SA
ENDBRANCH  19  20
ENDBRANCH  16  19
ENDBRANCH  13  16
ENDBRANCH   9  10
ENDBRANCH   1   9
TORSDOF 5
ENDMDL
MODEL 7
REMARK VINA RESULT:      -7.4      1.686      2.181
REMARK  5 active torsions:
REMARK  status: ('A' for Active; 'I' for Inactive)
REMARK    1  A    between atoms: C_7  and  C_8 
REMARK    2  A    between atoms: C_8  and  N_9 
REMARK    3  A    between atoms: N_9  and  C_12 
REMARK    4  A    between atoms: C_15  and  O_16 
REMARK    5  A    between atoms: O_16  and  C_17 
ROOT
HETATM    1  C   UNL     1       7.346  25.711  54.802  1.00  0.00     0.164 A 
HETATM    2  N   UNL     1       7.697  25.556  53.509  1.00  0.00    -0.236 NA
HETATM    3  C   UNL     1       7.818  24.281  53.061  1.00  0.00     0.142 A 
HETATM    4  C   UNL     1       7.613  23.158  53.852  1.00  0.00     0.062 A 
HETATM    5  C   UNL     1       7.757  21.847  53.302  1.00  0.00     0.101 C 
HETATM    6  N   UNL     1       7.876  20.785  52.852  1.00  0.00    -0.191 NA
HETATM    7  C   UNL     1       7.265  23.354  55.187  1.00  0.00     0.028 A 
HETATM    8  C   UNL     1       7.136  24.654  55.675  1.00  0.00     0.059 A 
ENDROOT
BRANCH   1   9
HETATM    9  O   UNL     1       7.222  26.978  55.330  1.00  0.00    -0.329 OA
BRANCH   9  10
HETATM   10  C   UNL     1       6.992  27.016  56.744  1.00  0.00     0.130 C 
HETATM   11  C   UNL     1       8.262  27.605  57.376  1.00  0.00     0.034 C 
HETATM   12  C   UNL     1       8.504  29.052  56.938  1.00  0.00     0.035 C 
HETATM   13  C   UNL     1       7.305  29.969  57.201  1.00  0.00     0.186 C 
HETATM   14  C   UNL     1       6.013  29.368  56.637  1.00  0.00     0.035 C 
HETATM   15  C   UNL     1       5.786  27.912  57.061  1.00  0.00     0.034 C 
BRANCH  13  16
HETATM   16  N   UNL     1       7.121  30.199  58.678  1.00  0.00    -0.067 N 
HETATM   17  H   UNL     1       7.483  29.413  59.232  1.00  0.00     0.278 HD
HETATM   18  H   UNL     1       6.112  30.225  58.884  1.00  0.00     0.278 HD
BRANCH  16  19
HETATM   19  C   UNL     1       7.689  31.473  59.223  1.00  0.00     0.280 C 
BRANCH  19  20
HETATM   20  C   UNL     1       6.659  32.228  59.978  1.00  0.00     0.034 A 
HETATM   21  C   UNL     1       5.475  32.793  59.535  1.00  0.00     0.046 A 
HETATM   22  C   UNL     1       4.922  32.776  58.153  1.00  0.00     0.071 C 
HETATM   23  N   UNL     1       4.749  33.439  60.513  1.00  0.00    -0.250 NA
HETATM   24  C   UNL     1       5.342  33.342  61.683  1.00  0.00     0.072 A 
HETATM   25  C   UNL     1       4.797  33.889  62.955  1.00  0.00     0.078 C 
HETATM   26  S   UNL     1       6.846  32.515  61.661  1.00  0.00    -0.076 SA
ENDBRANCH  19  20
ENDBRANCH  16  19
ENDBRANCH  13  16
ENDBRANCH   9  10
ENDBRANCH   1   9
TORSDOF 5
ENDMDL
MODEL 8
REMARK VINA RESULT:      -7.2      2.944      9.117
REMARK  5 active torsions:
REMARK  status: ('A' for Active; 'I' for Inactive)
REMARK    1  A    between atoms: C_7  and  C_8 
REMARK    2  A    between atoms: C_8  and  N_9 
REMARK    3  A    between atoms: N_9  and  C_12 
REMARK    4  A    between atoms: C_15  and  O_16 
REMARK    5  A    between atoms: O_16  and  C_17 
ROOT
HETATM    1  C   UNL     1       7.564  30.415  57.988  1.00  0.00     0.164 A 
HETATM    2  N   UNL     1       6.580  31.135  58.565  1.00  0.00    -0.236 NA
HETATM    3  C   UNL     1       6.827  31.613  59.811  1.00  0.00     0.142 A 
HETATM    4  C   UNL     1       8.009  31.394  60.505  1.00  0.00     0.062 A 
HETATM    5  C   UNL     1       8.193  31.936  61.814  1.00  0.00     0.101 C 
HETATM    6  N   UNL     1       8.338  32.377  62.877  1.00  0.00    -0.191 NA
HETATM    7  C   UNL     1       9.000  30.634  59.886  1.00  0.00     0.028 A 
HETATM    8  C   UNL     1       8.772  30.129  58.606  1.00  0.00     0.059 A 
ENDROOT
BRANCH   1   9
HETATM    9  O   UNL     1       7.375  29.884  56.730  1.00  0.00    -0.329 OA
BRANCH   9  10
HETATM   10  C   UNL     1       7.941  28.580  56.542  1.00  0.00     0.130 C 
HETATM   11  C   UNL     1       6.997  27.591  57.242  1.00  0.00     0.034 C 
HETATM   12  C   UNL     1       5.611  27.560  56.592  1.00  0.00     0.035 C 
HETATM   13  C   UNL     1       5.659  27.274  55.088  1.00  0.00     0.186 C 
HETATM   14  C   UNL     1       6.646  28.207  54.377  1.00  0.00     0.035 C 
HETATM   15  C   UNL     1       8.026  28.251  55.044  1.00  0.00     0.034 C 
BRANCH  13  16
HETATM   16  N   UNL     1       6.073  25.851  54.825  1.00  0.00    -0.067 N 
HETATM   17  H   UNL     1       5.331  25.322  54.350  1.00  0.00     0.278 HD
HETATM   18  H   UNL     1       6.201  25.372  55.728  1.00  0.00     0.278 HD
BRANCH  16  19
HETATM   19  C   UNL     1       7.354  25.665  54.071  1.00  0.00     0.280 C 
BRANCH  19  20
HETATM   20  C   UNL     1       7.821  24.259  54.167  1.00  0.00     0.034 A 
HETATM   21  C   UNL     1       8.410  23.595  55.229  1.00  0.00     0.046 A 
HETATM   22  C   UNL     1       8.723  24.137  56.580  1.00  0.00     0.071 C 
HETATM   23  N   UNL     1       8.733  22.278  54.971  1.00  0.00    -0.250 NA
HETATM   24  C   UNL     1       8.368  21.933  53.756  1.00  0.00     0.072 A 
HETATM   25  C   UNL     1       8.528  20.569  53.180  1.00  0.00     0.078 C 
HETATM   26  S   UNL     1       7.667  23.195  52.828  1.00  0.00    -0.076 SA
ENDBRANCH  19  20
ENDBRANCH  16  19
ENDBRANCH  13  16
ENDBRANCH   9  10
ENDBRANCH   1   9
TORSDOF 5
ENDMDL
MODEL 9
REMARK VINA RESULT:      -7.2      6.611      9.518
REMARK  5 active torsions:
REMARK  status: ('A' for Active; 'I' for Inactive)
REMARK    1  A    between atoms: C_7  and  C_8 
REMARK    2  A    between atoms: C_8  and  N_9 
REMARK    3  A    between atoms: N_9  and  C_12 
REMARK    4  A    between atoms: C_15  and  O_16 
REMARK    5  A    between atoms: O_16  and  C_17 
ROOT
HETATM    1  C   UNL     1       6.933  24.514  53.894  1.00  0.00     0.164 A 
HETATM    2  N   UNL     1       7.293  23.454  53.140  1.00  0.00    -0.236 NA
HETATM    3  C   UNL     1       7.831  22.396  53.798  1.00  0.00     0.142 A 
HETATM    4  C   UNL     1       8.031  22.357  55.171  1.00  0.00     0.062 A 
HETATM    5  C   UNL     1       8.601  21.201  55.789  1.00  0.00     0.101 C 
HETATM    6  N   UNL     1       9.064  20.262  56.286  1.00  0.00    -0.191 NA
HETATM    7  C   UNL     1       7.661  23.474  55.918  1.00  0.00     0.028 A 
HETATM    8  C   UNL     1       7.108  24.576  55.268  1.00  0.00     0.059 A 
ENDROOT
BRANCH   1   9
HETATM    9  O   UNL     1       6.396  25.631  53.290  1.00  0.00    -0.329 OA
BRANCH   9  10
HETATM   10  C   UNL     1       5.291  25.364  52.416  1.00  0.00     0.130 C 
HETATM   11  C   UNL     1       4.078  26.094  53.012  1.00  0.00     0.034 C 
HETATM   12  C   UNL     1       4.268  27.613  53.018  1.00  0.00     0.035 C 
HETATM   13  C   UNL     1       4.605  28.182  51.636  1.00  0.00     0.186 C 
HETATM   14  C   UNL     1       5.772  27.423  50.993  1.00  0.00     0.035 C 
HETATM   15  C   UNL     1       5.587  25.902  51.008  1.00  0.00     0.034 C 
BRANCH  13  16
HETATM   16  N   UNL     1       3.416  28.098  50.717  1.00  0.00    -0.067 N 
HETATM   17  H   UNL     1       2.590  28.554  51.124  1.00  0.00     0.278 HD
HETATM   18  H   UNL     1       3.148  27.109  50.613  1.00  0.00     0.278 HD
BRANCH  16  19
HETATM   19  C   UNL     1       3.617  28.622  49.328  1.00  0.00     0.280 C 
BRANCH  19  20
HETATM   20  C   UNL     1       2.588  28.081  48.406  1.00  0.00     0.034 A 
HETATM   21  C   UNL     1       2.474  26.815  47.855  1.00  0.00     0.046 A 
HETATM   22  C   UNL     1       3.377  25.650  48.059  1.00  0.00     0.071 C 
HETATM   23  N   UNL     1       1.387  26.651  47.022  1.00  0.00    -0.250 NA
HETATM   24  C   UNL     1       0.666  27.750  46.965  1.00  0.00     0.072 A 
HETATM   25  C   UNL     1      -0.599  27.892  46.194  1.00  0.00     0.078 C 
HETATM   26  S   UNL     1       1.291  29.069  47.868  1.00  0.00    -0.076 SA
ENDBRANCH  19  20
ENDBRANCH  16  19
ENDBRANCH  13  16
ENDBRANCH   9  10
ENDBRANCH   1   9
TORSDOF 5
ENDMDL
MODEL 10
REMARK VINA RESULT:      -7.2      2.276      3.106
REMARK  5 active torsions:
REMARK  status: ('A' for Active; 'I' for Inactive)
REMARK    1  A    between atoms: C_7  and  C_8 
REMARK    2  A    between atoms: C_8  and  N_9 
REMARK    3  A    between atoms: N_9  and  C_12 
REMARK    4  A    between atoms: C_15  and  O_16 
REMARK    5  A    between atoms: O_16  and  C_17 
ROOT
HETATM    1  C   UNL     1       7.277  27.324  55.299  1.00  0.00     0.164 A 
HETATM    2  N   UNL     1       7.401  27.334  53.956  1.00  0.00    -0.236 NA
HETATM    3  C   UNL     1       7.554  26.128  53.351  1.00  0.00     0.142 A 
HETATM    4  C   UNL     1       7.596  24.919  54.032  1.00  0.00     0.062 A 
HETATM    5  C   UNL     1       7.757  23.691  53.320  1.00  0.00     0.101 C 
HETATM    6  N   UNL     1       7.888  22.696  52.738  1.00  0.00    -0.191 NA
HETATM    7  C   UNL     1       7.479  24.945  55.421  1.00  0.00     0.028 A 
HETATM    8  C   UNL     1       7.323  26.171  56.068  1.00  0.00     0.059 A 
ENDROOT
BRANCH   1   9
HETATM    9  O   UNL     1       7.136  28.513  55.981  1.00  0.00    -0.329 OA
BRANCH   9  10
HETATM   10  C   UNL     1       6.618  28.380  57.312  1.00  0.00     0.130 C 
HETATM   11  C   UNL     1       7.754  28.783  58.263  1.00  0.00     0.034 C 
HETATM   12  C   UNL     1       8.150  30.253  58.097  1.00  0.00     0.035 C 
HETATM   13  C   UNL     1       6.966  31.214  58.246  1.00  0.00     0.186 C 
HETATM   14  C   UNL     1       5.793  30.793  57.353  1.00  0.00     0.035 C 
HETATM   15  C   UNL     1       5.415  29.315  57.507  1.00  0.00     0.034 C 
BRANCH  13  16
HETATM   16  N   UNL     1       6.489  31.260  59.673  1.00  0.00    -0.067 N 
HETATM   17  H   UNL     1       6.508  30.330  60.109  1.00  0.00     0.278 HD
HETATM   18  H   UNL     1       5.496  31.534  59.680  1.00  0.00     0.278 HD
BRANCH  16  19
HETATM   19  C   UNL     1       7.193  32.228  60.574  1.00  0.00     0.280 C 
BRANCH  19  20
HETATM   20  C   UNL     1       6.278  32.724  61.631  1.00  0.00     0.034 A 
HETATM   21  C   UNL     1       6.530  32.975  62.970  1.00  0.00     0.046 A 
HETATM   22  C   UNL     1       7.817  32.813  63.699  1.00  0.00     0.071 C 
HETATM   23  N   UNL     1       5.437  33.426  63.681  1.00  0.00    -0.250 NA
HETATM   24  C   UNL     1       4.386  33.552  62.902  1.00  0.00     0.072 A 
HETATM   25  C   UNL     1       3.060  34.062  63.346  1.00  0.00     0.078 C 
HETATM   26  S   UNL     1       4.637  33.075  61.272  1.00  0.00    -0.076 SA
ENDBRANCH  19  20
ENDBRANCH  16  19
ENDBRANCH  13  16
ENDBRANCH   9  10
ENDBRANCH   1   9
TORSDOF 5
ENDMDL
