MODEL 1
REMARK VINA RESULT:     -10.8      0.000      0.000
REMARK  6 active torsions:
REMARK  status: ('A' for Active; 'I' for Inactive)
REMARK    1  A    between atoms: C_8  and  C_9 
REMARK    2  A    between atoms: C_9  and  C_10 
REMARK    3  A    between atoms: C_10  and  N_11 
REMARK       I    between atoms: N_11  and  C_12 
REMARK    4  A    between atoms: C_12  and  C_13 
REMARK    5  A    between atoms: C_18  and  C_19 
REMARK    6  A    between atoms: C_29  and  C_30 
ROOT
HETATM    1  C   UNL     1       4.738  30.468  57.128  1.00  0.00     0.148 A 
HETATM    2  N   UNL     1       6.088  30.549  57.168  1.00  0.00    -0.165 NA
HETATM    3  N   UNL     1       6.484  29.559  56.343  1.00  0.00    -0.240 N 
HETATM    4  C   UNL     1       5.458  28.938  55.695  1.00  0.00     0.123 A 
HETATM    5  N   UNL     1       5.668  27.987  54.769  1.00  0.00    -0.366 N 
HETATM    6  C   UNL     1       6.989  27.577  54.322  1.00  0.00     0.118 C 
HETATM    7  C   UNL     1       8.112  28.509  54.814  1.00  0.00     0.066 C 
HETATM    8  C   UNL     1       7.880  29.219  56.161  1.00  0.00     0.221 C 
HETATM    9  C   UNL     1       4.309  29.473  56.207  1.00  0.00     0.088 A 
HETATM   10  H   UNL     1       4.889  27.493  54.337  1.00  0.00     0.161 HD
ENDROOT
BRANCH   1  11
HETATM   11  C   UNL     1       3.852  31.312  57.943  1.00  0.00     0.272 C 
HETATM   12  N   UNL     1       3.970  31.120  59.301  1.00  0.00    -0.355 N 
HETATM   13  H   UNL     1       4.752  30.545  59.604  1.00  0.00     0.162 HD
HETATM   14  O   UNL     1       3.077  32.126  57.446  1.00  0.00    -0.266 OA
BRANCH  12  15
HETATM   15  C   UNL     1       3.230  31.944  60.233  1.00  0.00     0.127 C 
BRANCH  15  16
HETATM   16  C   UNL     1       3.973  33.206  60.664  1.00  0.00     0.060 C 
BRANCH  16  17
HETATM   17  C   UNL     1       5.010  32.944  61.712  1.00  0.00    -0.029 A 
HETATM   18  C   UNL     1       6.389  32.620  61.507  1.00  0.00    -0.002 A 
HETATM   19  C   UNL     1       7.199  32.448  60.365  1.00  0.00     0.014 A 
HETATM   20  C   UNL     1       6.972  32.456  62.764  1.00  0.00     0.042 A 
HETATM   21  C   UNL     1       8.549  32.116  60.522  1.00  0.00     0.001 A 
HETATM   22  C   UNL     1       9.100  31.957  61.791  1.00  0.00     0.002 A 
HETATM   23  C   UNL     1       8.320  32.126  62.939  1.00  0.00     0.030 A 
HETATM   24  N   UNL     1       5.988  32.673  63.698  1.00  0.00    -0.365 N 
HETATM   25  H   UNL     1       6.125  32.620  64.699  1.00  0.00     0.165 HD
HETATM   26  C   UNL     1       4.802  32.962  63.079  1.00  0.00     0.096 A 
ENDBRANCH  16  17
ENDBRANCH  15  16
ENDBRANCH  12  15
ENDBRANCH   1  11
BRANCH   8  27
HETATM   27  C   UNL     1       8.394  28.440  57.349  1.00  0.00     0.409 C 
HETATM   28  F   UNL     1       9.273  27.474  57.027  1.00  0.00    -0.169 F 
HETATM   29  F   UNL     1       9.026  29.277  58.215  1.00  0.00    -0.169 F 
HETATM   30  F   UNL     1       7.394  27.861  58.054  1.00  0.00    -0.169 F 
ENDBRANCH   8  27
BRANCH   6  31
HETATM   31  C   UNL     1       7.197  26.092  54.565  1.00  0.00    -0.033 A 
HETATM   32  C   UNL     1       7.669  25.286  53.510  1.00  0.00     0.049 A 
HETATM   33  C   UNL     1       7.752  23.922  53.707  1.00  0.00     0.105 A 
HETATM   34  C   UNL     1       7.416  23.340  54.905  1.00  0.00     0.105 A 
HETATM   35  O   UNL     1       8.132  23.007  52.776  1.00  0.00    -0.323 OA
HETATM   36  O   UNL     1       7.547  21.987  54.881  1.00  0.00    -0.323 OA
HETATM   37  C   UNL     1       6.979  24.089  55.973  1.00  0.00     0.040 A 
HETATM   38  C   UNL     1       7.945  21.779  53.511  1.00  0.00     0.352 A 
HETATM   39  C   UNL     1       6.859  25.472  55.792  1.00  0.00     0.012 A 
ENDBRANCH   6  31
TORSDOF 6
ENDMDL
MODEL 2
REMARK VINA RESULT:     -10.6      2.641      3.970
REMARK  6 active torsions:
REMARK  status: ('A' for Active; 'I' for Inactive)
REMARK    1  A    between atoms: C_8  and  C_9 
REMARK    2  A    between atoms: C_9  and  C_10 
REMARK    3  A    between atoms: C_10  and  N_11 
REMARK       I    between atoms: N_11  and  C_12 
REMARK    4  A    between atoms: C_12  and  C_13 
REMARK    5  A    between atoms: C_18  and  C_19 
REMARK    6  A    between atoms: C_29  and  C_30 
ROOT
HETATM    1  C   UNL     1       8.417  28.794  56.967  1.00  0.00     0.148 A 
HETATM    2  N   UNL     1       7.491  28.905  55.987  1.00  0.00    -0.165 NA
HETATM    3  N   UNL     1       7.093  27.632  55.788  1.00  0.00    -0.240 N 
HETATM    4  C   UNL     1       7.630  26.743  56.671  1.00  0.00     0.123 A 
HETATM    5  N   UNL     1       7.281  25.445  56.683  1.00  0.00    -0.366 N 
HETATM    6  C   UNL     1       6.262  24.880  55.814  1.00  0.00     0.118 C 
HETATM    7  C   UNL     1       5.441  25.946  55.066  1.00  0.00     0.066 C 
HETATM    8  C   UNL     1       6.161  27.270  54.742  1.00  0.00     0.221 C 
HETATM    9  C   UNL     1       8.524  27.453  57.425  1.00  0.00     0.088 A 
HETATM   10  H   UNL     1       7.735  24.784  57.311  1.00  0.00     0.161 HD
ENDROOT
BRANCH   1  11
HETATM   11  C   UNL     1       9.200  29.931  57.473  1.00  0.00     0.272 C 
HETATM   12  N   UNL     1       8.804  30.391  58.710  1.00  0.00    -0.355 N 
HETATM   13  H   UNL     1       8.133  29.812  59.208  1.00  0.00     0.162 HD
HETATM   14  O   UNL     1      10.134  30.421  56.843  1.00  0.00    -0.266 OA
BRANCH  12  15
HETATM   15  C   UNL     1       9.538  31.445  59.377  1.00  0.00     0.127 C 
BRANCH  15  16
HETATM   16  C   UNL     1       9.242  31.551  60.872  1.00  0.00     0.060 C 
BRANCH  16  17
HETATM   17  C   UNL     1       7.947  32.243  61.163  1.00  0.00    -0.029 A 
HETATM   18  C   UNL     1       7.506  32.766  62.420  1.00  0.00    -0.002 A 
HETATM   19  C   UNL     1       8.067  32.820  63.713  1.00  0.00     0.014 A 
HETATM   20  C   UNL     1       6.238  33.315  62.223  1.00  0.00     0.042 A 
HETATM   21  C   UNL     1       7.343  33.414  64.754  1.00  0.00     0.001 A 
HETATM   22  C   UNL     1       6.079  33.952  64.524  1.00  0.00     0.002 A 
HETATM   23  C   UNL     1       5.502  33.914  63.251  1.00  0.00     0.030 A 
HETATM   24  N   UNL     1       5.921  33.136  60.898  1.00  0.00    -0.365 N 
HETATM   25  H   UNL     1       5.056  33.438  60.470  1.00  0.00     0.165 HD
HETATM   26  C   UNL     1       6.937  32.487  60.251  1.00  0.00     0.096 A 
ENDBRANCH  16  17
ENDBRANCH  15  16
ENDBRANCH  12  15
ENDBRANCH   1  11
BRANCH   8  27
HETATM   27  C   UNL     1       6.851  27.266  53.398  1.00  0.00     0.409 C 
HETATM   28  F   UNL     1       8.099  26.763  53.429  1.00  0.00    -0.169 F 
HETATM   29  F   UNL     1       6.143  26.512  52.515  1.00  0.00    -0.169 F 
HETATM   30  F   UNL     1       6.925  28.504  52.855  1.00  0.00    -0.169 F 
ENDBRANCH   8  27
BRANCH   6  31
HETATM   31  C   UNL     1       6.847  23.766  54.962  1.00  0.00    -0.033 A 
HETATM   32  C   UNL     1       7.338  22.606  55.594  1.00  0.00     0.049 A 
HETATM   33  C   UNL     1       7.964  21.648  54.823  1.00  0.00     0.105 A 
HETATM   34  C   UNL     1       8.094  21.783  53.462  1.00  0.00     0.105 A 
HETATM   35  O   UNL     1       8.538  20.506  55.287  1.00  0.00    -0.323 OA
HETATM   36  O   UNL     1       8.761  20.741  52.898  1.00  0.00    -0.323 OA
HETATM   37  C   UNL     1       7.605  22.883  52.797  1.00  0.00     0.040 A 
HETATM   38  C   UNL     1       9.089  19.965  54.068  1.00  0.00     0.352 A 
HETATM   39  C   UNL     1       6.990  23.883  53.558  1.00  0.00     0.012 A 
ENDBRANCH   6  31
TORSDOF 6
ENDMDL
MODEL 3
REMARK VINA RESULT:     -10.6      1.145      1.707
REMARK  6 active torsions:
REMARK  status: ('A' for Active; 'I' for Inactive)
REMARK    1  A    between atoms: C_8  and  C_9 
REMARK    2  A    between atoms: C_9  and  C_10 
REMARK    3  A    between atoms: C_10  and  N_11 
REMARK       I    between atoms: N_11  and  C_12 
REMARK    4  A    between atoms: C_12  and  C_13 
REMARK    5  A    between atoms: C_18  and  C_19 
REMARK    6  A    between atoms: C_29  and  C_30 
ROOT
HETATM    1  C   UNL     1       4.779  30.486  57.222  1.00  0.00     0.148 A 
HETATM    2  N   UNL     1       6.129  30.577  57.183  1.00  0.00    -0.165 NA
HETATM    3  N   UNL     1       6.486  29.564  56.369  1.00  0.00    -0.240 N 
HETATM    4  C   UNL     1       5.430  28.917  55.799  1.00  0.00     0.123 A 
HETATM    5  N   UNL     1       5.595  27.939  54.892  1.00  0.00    -0.366 N 
HETATM    6  C   UNL     1       6.893  27.524  54.384  1.00  0.00     0.118 C 
HETATM    7  C   UNL     1       8.034  28.477  54.783  1.00  0.00     0.066 C 
HETATM    8  C   UNL     1       7.872  29.228  56.118  1.00  0.00     0.221 C 
HETATM    9  C   UNL     1       4.307  29.461  56.358  1.00  0.00     0.088 A 
HETATM   10  H   UNL     1       4.797  27.426  54.519  1.00  0.00     0.161 HD
ENDROOT
BRANCH   1  11
HETATM   11  C   UNL     1       3.933  31.350  58.059  1.00  0.00     0.272 C 
HETATM   12  N   UNL     1       4.179  31.253  59.411  1.00  0.00    -0.355 N 
HETATM   13  H   UNL     1       5.009  30.728  59.676  1.00  0.00     0.162 HD
HETATM   14  O   UNL     1       3.084  32.100  57.584  1.00  0.00    -0.266 OA
BRANCH  12  15
HETATM   15  C   UNL     1       3.490  32.109  60.351  1.00  0.00     0.127 C 
BRANCH  15  16
HETATM   16  C   UNL     1       4.308  33.320  60.797  1.00  0.00     0.060 C 
BRANCH  16  17
HETATM   17  C   UNL     1       4.252  33.551  62.275  1.00  0.00    -0.029 A 
HETATM   18  C   UNL     1       5.343  33.517  63.201  1.00  0.00    -0.002 A 
HETATM   19  C   UNL     1       6.728  33.282  63.079  1.00  0.00     0.014 A 
HETATM   20  C   UNL     1       4.824  33.783  64.469  1.00  0.00     0.042 A 
HETATM   21  C   UNL     1       7.536  33.317  64.222  1.00  0.00     0.001 A 
HETATM   22  C   UNL     1       6.986  33.583  65.474  1.00  0.00     0.002 A 
HETATM   23  C   UNL     1       5.617  33.823  65.621  1.00  0.00     0.030 A 
HETATM   24  N   UNL     1       3.471  33.973  64.321  1.00  0.00    -0.365 N 
HETATM   25  H   UNL     1       2.835  34.182  65.079  1.00  0.00     0.165 HD
HETATM   26  C   UNL     1       3.113  33.830  63.008  1.00  0.00     0.096 A 
ENDBRANCH  16  17
ENDBRANCH  15  16
ENDBRANCH  12  15
ENDBRANCH   1  11
BRANCH   8  27
HETATM   27  C   UNL     1       8.457  28.489  57.299  1.00  0.00     0.409 C 
HETATM   28  F   UNL     1       7.540  27.856  58.053  1.00  0.00    -0.169 F 
HETATM   29  F   UNL     1       9.334  27.544  56.866  1.00  0.00    -0.169 F 
HETATM   30  F   UNL     1       9.163  29.304  58.117  1.00  0.00    -0.169 F 
ENDBRANCH   8  27
BRANCH   6  31
HETATM   31  C   UNL     1       7.126  26.048  54.660  1.00  0.00    -0.033 A 
HETATM   32  C   UNL     1       7.603  25.224  53.621  1.00  0.00     0.049 A 
HETATM   33  C   UNL     1       7.709  23.867  53.850  1.00  0.00     0.105 A 
HETATM   34  C   UNL     1       7.390  23.309  55.064  1.00  0.00     0.105 A 
HETATM   35  O   UNL     1       8.096  22.936  52.937  1.00  0.00    -0.323 OA
HETATM   36  O   UNL     1       7.542  21.958  55.070  1.00  0.00    -0.323 OA
HETATM   37  C   UNL     1       6.948  24.076  56.116  1.00  0.00     0.040 A 
HETATM   38  C   UNL     1       7.934  21.723  53.703  1.00  0.00     0.352 A 
HETATM   39  C   UNL     1       6.806  25.452  55.904  1.00  0.00     0.012 A 
ENDBRANCH   6  31
TORSDOF 6
ENDMDL
MODEL 4
REMARK VINA RESULT:     -10.3      2.907      4.358
REMARK  6 active torsions:
REMARK  status: ('A' for Active; 'I' for Inactive)
REMARK    1  A    between atoms: C_8  and  C_9 
REMARK    2  A    between atoms: C_9  and  C_10 
REMARK    3  A    between atoms: C_10  and  N_11 
REMARK       I    between atoms: N_11  and  C_12 
REMARK    4  A    between atoms: C_12  and  C_13 
REMARK    5  A    between atoms: C_18  and  C_19 
REMARK    6  A    between atoms: C_29  and  C_30 
ROOT
HETATM    1  C   UNL     1       8.468  29.393  57.851  1.00  0.00     0.148 A 
HETATM    2  N   UNL     1       7.139  29.270  58.072  1.00  0.00    -0.165 NA
HETATM    3  N   UNL     1       6.778  28.262  57.253  1.00  0.00    -0.240 N 
HETATM    4  C   UNL     1       7.827  27.666  56.618  1.00  0.00     0.123 A 
HETATM    5  N   UNL     1       7.669  26.587  55.832  1.00  0.00    -0.366 N 
HETATM    6  C   UNL     1       6.394  25.917  55.633  1.00  0.00     0.118 C 
HETATM    7  C   UNL     1       5.300  26.394  56.606  1.00  0.00     0.066 C 
HETATM    8  C   UNL     1       5.399  27.852  57.095  1.00  0.00     0.221 C 
HETATM    9  C   UNL     1       8.934  28.396  56.950  1.00  0.00     0.088 A 
HETATM   10  H   UNL     1       8.455  26.190  55.319  1.00  0.00     0.161 HD
ENDROOT
BRANCH   1  11
HETATM   11  C   UNL     1       9.300  30.433  58.474  1.00  0.00     0.272 C 
HETATM   12  N   UNL     1       8.761  30.987  59.614  1.00  0.00    -0.355 N 
HETATM   13  H   UNL     1       7.941  30.521  59.992  1.00  0.00     0.162 HD
HETATM   14  O   UNL     1      10.388  30.770  58.014  1.00  0.00    -0.266 OA
BRANCH  12  15
HETATM   15  C   UNL     1       9.506  31.957  60.388  1.00  0.00     0.127 C 
BRANCH  15  16
HETATM   16  C   UNL     1       9.175  31.941  61.879  1.00  0.00     0.060 C 
BRANCH  16  17
HETATM   17  C   UNL     1       7.739  32.260  62.161  1.00  0.00    -0.029 A 
HETATM   18  C   UNL     1       7.194  32.822  63.359  1.00  0.00    -0.002 A 
HETATM   19  C   UNL     1       7.747  33.242  64.588  1.00  0.00     0.014 A 
HETATM   20  C   UNL     1       5.816  32.937  63.178  1.00  0.00     0.042 A 
HETATM   21  C   UNL     1       6.906  33.754  65.582  1.00  0.00     0.001 A 
HETATM   22  C   UNL     1       5.533  33.854  65.370  1.00  0.00     0.002 A 
HETATM   23  C   UNL     1       4.961  33.448  64.161  1.00  0.00     0.030 A 
HETATM   24  N   UNL     1       5.532  32.466  61.919  1.00  0.00    -0.365 N 
HETATM   25  H   UNL     1       4.605  32.429  61.515  1.00  0.00     0.165 HD
HETATM   26  C   UNL     1       6.679  32.050  61.299  1.00  0.00     0.096 A 
ENDBRANCH  16  17
ENDBRANCH  15  16
ENDBRANCH  12  15
ENDBRANCH   1  11
BRANCH   8  27
HETATM   27  C   UNL     1       4.652  28.832  56.221  1.00  0.00     0.409 C 
HETATM   28  F   UNL     1       3.921  29.727  56.910  1.00  0.00    -0.169 F 
HETATM   29  F   UNL     1       5.532  29.540  55.463  1.00  0.00    -0.169 F 
HETATM   30  F   UNL     1       3.823  28.215  55.348  1.00  0.00    -0.169 F 
ENDBRANCH   8  27
BRANCH   6  31
HETATM   31  C   UNL     1       6.022  25.904  54.160  1.00  0.00    -0.033 A 
HETATM   32  C   UNL     1       6.204  27.075  53.398  1.00  0.00     0.049 A 
HETATM   33  C   UNL     1       5.764  27.086  52.090  1.00  0.00     0.105 A 
HETATM   34  C   UNL     1       5.185  25.984  51.510  1.00  0.00     0.105 A 
HETATM   35  O   UNL     1       5.814  28.151  51.245  1.00  0.00    -0.323 OA
HETATM   36  O   UNL     1       4.802  26.214  50.225  1.00  0.00    -0.323 OA
HETATM   37  C   UNL     1       5.014  24.810  52.204  1.00  0.00     0.040 A 
HETATM   38  C   UNL     1       5.152  27.606  50.084  1.00  0.00     0.352 A 
HETATM   39  C   UNL     1       5.426  24.779  53.541  1.00  0.00     0.012 A 
ENDBRANCH   6  31
TORSDOF 6
ENDMDL
MODEL 5
REMARK VINA RESULT:     -10.1      3.109      4.472
REMARK  6 active torsions:
REMARK  status: ('A' for Active; 'I' for Inactive)
REMARK    1  A    between atoms: C_8  and  C_9 
REMARK    2  A    between atoms: C_9  and  C_10 
REMARK    3  A    between atoms: C_10  and  N_11 
REMARK       I    between atoms: N_11  and  C_12 
REMARK    4  A    between atoms: C_12  and  C_13 
REMARK    5  A    between atoms: C_18  and  C_19 
REMARK    6  A    between atoms: C_29  and  C_30 
ROOT
HETATM    1  C   UNL     1       8.452  29.390  57.731  1.00  0.00     0.148 A 
HETATM    2  N   UNL     1       7.825  28.199  57.874  1.00  0.00    -0.165 NA
HETATM    3  N   UNL     1       7.596  27.812  56.603  1.00  0.00    -0.240 N 
HETATM    4  C   UNL     1       8.149  28.636  55.668  1.00  0.00     0.123 A 
HETATM    5  N   UNL     1       8.100  28.363  54.353  1.00  0.00    -0.366 N 
HETATM    6  C   UNL     1       7.518  27.147  53.807  1.00  0.00     0.118 C 
HETATM    7  C   UNL     1       7.202  26.090  54.880  1.00  0.00     0.066 C 
HETATM    8  C   UNL     1       6.847  26.615  56.284  1.00  0.00     0.221 C 
HETATM    9  C   UNL     1       8.679  29.690  56.360  1.00  0.00     0.088 A 
HETATM   10  H   UNL     1       8.468  29.018  53.665  1.00  0.00     0.161 HD
ENDROOT
BRANCH   1  11
HETATM   11  C   UNL     1       8.837  30.243  58.865  1.00  0.00     0.272 C 
HETATM   12  N   UNL     1       7.965  30.205  59.930  1.00  0.00    -0.355 N 
HETATM   13  H   UNL     1       7.246  29.487  59.893  1.00  0.00     0.162 HD
HETATM   14  O   UNL     1       9.858  30.925  58.858  1.00  0.00    -0.266 OA
BRANCH  12  15
HETATM   15  C   UNL     1       8.259  30.920  61.153  1.00  0.00     0.127 C 
BRANCH  15  16
HETATM   16  C   UNL     1       7.763  32.364  61.157  1.00  0.00     0.060 C 
BRANCH  16  17
HETATM   17  C   UNL     1       6.571  32.570  62.040  1.00  0.00    -0.029 A 
HETATM   18  C   UNL     1       6.563  33.046  63.390  1.00  0.00    -0.002 A 
HETATM   19  C   UNL     1       7.566  33.457  64.293  1.00  0.00     0.014 A 
HETATM   20  C   UNL     1       5.235  33.071  63.816  1.00  0.00     0.042 A 
HETATM   21  C   UNL     1       7.205  33.870  65.581  1.00  0.00     0.001 A 
HETATM   22  C   UNL     1       5.869  33.882  65.976  1.00  0.00     0.002 A 
HETATM   23  C   UNL     1       4.857  33.483  65.099  1.00  0.00     0.030 A 
HETATM   24  N   UNL     1       4.464  32.630  62.767  1.00  0.00    -0.365 N 
HETATM   25  H   UNL     1       3.457  32.544  62.792  1.00  0.00     0.165 HD
HETATM   26  C   UNL     1       5.256  32.320  61.696  1.00  0.00     0.096 A 
ENDBRANCH  16  17
ENDBRANCH  15  16
ENDBRANCH  12  15
ENDBRANCH   1  11
BRANCH   8  27
HETATM   27  C   UNL     1       5.367  26.848  56.483  1.00  0.00     0.409 C 
HETATM   28  F   UNL     1       4.796  26.002  57.360  1.00  0.00    -0.169 F 
HETATM   29  F   UNL     1       5.156  28.107  56.953  1.00  0.00    -0.169 F 
HETATM   30  F   UNL     1       4.673  26.762  55.324  1.00  0.00    -0.169 F 
ENDBRANCH   8  27
BRANCH   6  31
HETATM   31  C   UNL     1       6.392  27.482  52.843  1.00  0.00    -0.033 A 
HETATM   32  C   UNL     1       6.074  26.568  51.819  1.00  0.00     0.049 A 
HETATM   33  C   UNL     1       5.123  26.928  50.885  1.00  0.00     0.105 A 
HETATM   34  C   UNL     1       4.466  28.133  50.946  1.00  0.00     0.105 A 
HETATM   35  O   UNL     1       4.746  26.186  49.809  1.00  0.00    -0.323 OA
HETATM   36  O   UNL     1       3.589  28.299  49.920  1.00  0.00    -0.323 OA
HETATM   37  C   UNL     1       4.722  29.044  51.943  1.00  0.00     0.040 A 
HETATM   38  C   UNL     1       3.815  27.086  49.173  1.00  0.00     0.352 A 
HETATM   39  C   UNL     1       5.701  28.717  52.888  1.00  0.00     0.012 A 
ENDBRANCH   6  31
TORSDOF 6
ENDMDL
MODEL 6
REMARK VINA RESULT:     -10.1      6.967     10.683
REMARK  6 active torsions:
REMARK  status: ('A' for Active; 'I' for Inactive)
REMARK    1  A    between atoms: C_8  and  C_9 
REMARK    2  A    between atoms: C_9  and  C_10 
REMARK    3  A    between atoms: C_10  and  N_11 
REMARK       I    between atoms: N_11  and  C_12 
REMARK    4  A    between atoms: C_12  and  C_13 
REMARK    5  A    between atoms: C_18  and  C_19 
REMARK    6  A    between atoms: C_29  and  C_30 
ROOT
HETATM    1  C   UNL     1       4.958  26.539  51.759  1.00  0.00     0.148 A 
HETATM    2  N   UNL     1       5.020  25.997  50.520  1.00  0.00    -0.165 NA
HETATM    3  N   UNL     1       4.629  27.007  49.717  1.00  0.00    -0.240 N 
HETATM    4  C   UNL     1       4.440  28.188  50.371  1.00  0.00     0.123 A 
HETATM    5  N   UNL     1       4.135  29.325  49.722  1.00  0.00    -0.366 N 
HETATM    6  C   UNL     1       4.044  29.424  48.274  1.00  0.00     0.118 C 
HETATM    7  C   UNL     1       4.581  28.179  47.545  1.00  0.00     0.066 C 
HETATM    8  C   UNL     1       4.457  26.836  48.290  1.00  0.00     0.221 C 
HETATM    9  C   UNL     1       4.605  27.915  51.701  1.00  0.00     0.088 A 
HETATM   10  H   UNL     1       3.940  30.186  50.231  1.00  0.00     0.161 HD
ENDROOT
BRANCH   1  11
HETATM   11  C   UNL     1       5.224  25.780  52.989  1.00  0.00     0.272 C 
HETATM   12  N   UNL     1       5.968  26.458  53.929  1.00  0.00    -0.355 N 
HETATM   13  H   UNL     1       6.117  27.448  53.750  1.00  0.00     0.162 HD
HETATM   14  O   UNL     1       4.807  24.637  53.160  1.00  0.00    -0.266 OA
BRANCH  12  15
HETATM   15  C   UNL     1       6.231  25.874  55.226  1.00  0.00     0.127 C 
BRANCH  15  16
HETATM   16  C   UNL     1       7.703  25.550  55.470  1.00  0.00     0.060 C 
BRANCH  16  17
HETATM   17  C   UNL     1       7.939  24.104  55.782  1.00  0.00    -0.029 A 
HETATM   18  C   UNL     1       7.959  23.009  54.861  1.00  0.00    -0.002 A 
HETATM   19  C   UNL     1       7.784  22.895  53.465  1.00  0.00     0.014 A 
HETATM   20  C   UNL     1       8.208  21.849  55.595  1.00  0.00     0.042 A 
HETATM   21  C   UNL     1       7.861  21.635  52.863  1.00  0.00     0.001 A 
HETATM   22  C   UNL     1       8.109  20.496  53.625  1.00  0.00     0.002 A 
HETATM   23  C   UNL     1       8.289  20.582  55.008  1.00  0.00     0.030 A 
HETATM   24  N   UNL     1       8.337  22.223  56.912  1.00  0.00    -0.365 N 
HETATM   25  H   UNL     1       8.522  21.585  57.673  1.00  0.00     0.165 HD
HETATM   26  C   UNL     1       8.172  23.575  57.038  1.00  0.00     0.096 A 
ENDBRANCH  16  17
ENDBRANCH  15  16
ENDBRANCH  12  15
ENDBRANCH   1  11
BRANCH   8  27
HETATM   27  C   UNL     1       3.168  26.102  47.999  1.00  0.00     0.409 C 
HETATM   28  F   UNL     1       3.165  24.822  48.414  1.00  0.00    -0.169 F 
HETATM   29  F   UNL     1       2.131  26.723  48.621  1.00  0.00    -0.169 F 
HETATM   30  F   UNL     1       2.864  26.102  46.680  1.00  0.00    -0.169 F 
ENDBRANCH   8  27
BRANCH   6  31
HETATM   31  C   UNL     1       2.662  29.900  47.859  1.00  0.00    -0.033 A 
HETATM   32  C   UNL     1       1.946  30.756  48.719  1.00  0.00     0.049 A 
HETATM   33  C   UNL     1       0.650  31.096  48.383  1.00  0.00     0.105 A 
HETATM   34  C   UNL     1       0.058  30.647  47.228  1.00  0.00     0.105 A 
HETATM   35  O   UNL     1      -0.188  31.862  49.132  1.00  0.00    -0.323 OA
HETATM   36  O   UNL     1      -1.225  31.078  47.101  1.00  0.00    -0.323 OA
HETATM   37  C   UNL     1       0.727  29.834  46.344  1.00  0.00     0.040 A 
HETATM   38  C   UNL     1      -1.392  31.799  48.338  1.00  0.00     0.352 A 
HETATM   39  C   UNL     1       2.033  29.451  46.672  1.00  0.00     0.012 A 
ENDBRANCH   6  31
TORSDOF 6
ENDMDL
MODEL 7
REMARK VINA RESULT:      -9.9      2.869      9.953
REMARK  6 active torsions:
REMARK  status: ('A' for Active; 'I' for Inactive)
REMARK    1  A    between atoms: C_8  and  C_9 
REMARK    2  A    between atoms: C_9  and  C_10 
REMARK    3  A    between atoms: C_10  and  N_11 
REMARK       I    between atoms: N_11  and  C_12 
REMARK    4  A    between atoms: C_12  and  C_13 
REMARK    5  A    between atoms: C_18  and  C_19 
REMARK    6  A    between atoms: C_29  and  C_30 
ROOT
HETATM    1  C   UNL     1       5.961  28.143  56.641  1.00  0.00     0.148 A 
HETATM    2  N   UNL     1       5.208  29.241  56.397  1.00  0.00    -0.165 NA
HETATM    3  N   UNL     1       5.648  30.130  57.311  1.00  0.00    -0.240 N 
HETATM    4  C   UNL     1       6.717  29.692  58.035  1.00  0.00     0.123 A 
HETATM    5  N   UNL     1       7.345  30.475  58.929  1.00  0.00    -0.366 N 
HETATM    6  C   UNL     1       6.997  31.867  59.163  1.00  0.00     0.118 C 
HETATM    7  C   UNL     1       6.023  32.433  58.114  1.00  0.00     0.066 C 
HETATM    8  C   UNL     1       5.041  31.434  57.472  1.00  0.00     0.221 C 
HETATM    9  C   UNL     1       6.923  28.394  57.657  1.00  0.00     0.088 A 
HETATM   10  H   UNL     1       8.105  30.113  59.503  1.00  0.00     0.161 HD
ENDROOT
BRANCH   1  11
HETATM   11  C   UNL     1       5.784  26.867  55.933  1.00  0.00     0.272 C 
HETATM   12  N   UNL     1       6.159  26.893  54.608  1.00  0.00    -0.355 N 
HETATM   13  H   UNL     1       6.658  27.724  54.302  1.00  0.00     0.162 HD
HETATM   14  O   UNL     1       5.345  25.862  56.486  1.00  0.00    -0.266 OA
BRANCH  12  15
HETATM   15  C   UNL     1       6.130  25.688  53.807  1.00  0.00     0.127 C 
BRANCH  15  16
HETATM   16  C   UNL     1       7.514  25.160  53.436  1.00  0.00     0.060 C 
BRANCH  16  17
HETATM   17  C   UNL     1       7.997  24.085  54.361  1.00  0.00    -0.029 A 
HETATM   18  C   UNL     1       8.185  22.700  54.058  1.00  0.00    -0.002 A 
HETATM   19  C   UNL     1       8.008  21.914  52.899  1.00  0.00     0.014 A 
HETATM   20  C   UNL     1       8.639  22.075  55.220  1.00  0.00     0.042 A 
HETATM   21  C   UNL     1       8.286  20.543  52.948  1.00  0.00     0.001 A 
HETATM   22  C   UNL     1       8.736  19.950  54.125  1.00  0.00     0.002 A 
HETATM   23  C   UNL     1       8.923  20.706  55.285  1.00  0.00     0.030 A 
HETATM   24  N   UNL     1       8.727  23.043  56.192  1.00  0.00    -0.365 N 
HETATM   25  H   UNL     1       9.031  22.875  57.142  1.00  0.00     0.165 HD
HETATM   26  C   UNL     1       8.337  24.254  55.690  1.00  0.00     0.096 A 
ENDBRANCH  16  17
ENDBRANCH  15  16
ENDBRANCH  12  15
ENDBRANCH   1  11
BRANCH   8  27
HETATM   27  C   UNL     1       3.730  31.317  58.214  1.00  0.00     0.409 C 
HETATM   28  F   UNL     1       3.807  30.592  59.345  1.00  0.00    -0.169 F 
HETATM   29  F   UNL     1       3.285  32.553  58.567  1.00  0.00    -0.169 F 
HETATM   30  F   UNL     1       2.753  30.775  57.449  1.00  0.00    -0.169 F 
ENDBRANCH   8  27
BRANCH   6  31
HETATM   31  C   UNL     1       6.617  32.084  60.617  1.00  0.00    -0.033 A 
HETATM   32  C   UNL     1       5.486  32.869  60.919  1.00  0.00     0.049 A 
HETATM   33  C   UNL     1       5.211  33.150  62.243  1.00  0.00     0.105 A 
HETATM   34  C   UNL     1       5.989  32.662  63.264  1.00  0.00     0.105 A 
HETATM   35  O   UNL     1       4.197  33.935  62.694  1.00  0.00    -0.323 OA
HETATM   36  O   UNL     1       5.560  33.075  64.487  1.00  0.00    -0.323 OA
HETATM   37  C   UNL     1       7.085  31.868  63.020  1.00  0.00     0.040 A 
HETATM   38  C   UNL     1       4.459  33.927  64.113  1.00  0.00     0.352 A 
HETATM   39  C   UNL     1       7.403  31.590  61.686  1.00  0.00     0.012 A 
ENDBRANCH   6  31
TORSDOF 6
ENDMDL
MODEL 8
REMARK VINA RESULT:      -9.8      6.773      9.972
REMARK  6 active torsions:
REMARK  status: ('A' for Active; 'I' for Inactive)
REMARK    1  A    between atoms: C_8  and  C_9 
REMARK    2  A    between atoms: C_9  and  C_10 
REMARK    3  A    between atoms: C_10  and  N_11 
REMARK       I    between atoms: N_11  and  C_12 
REMARK    4  A    between atoms: C_12  and  C_13 
REMARK    5  A    between atoms: C_18  and  C_19 
REMARK    6  A    between atoms: C_29  and  C_30 
ROOT
HETATM    1  C   UNL     1       4.562  28.497  53.004  1.00  0.00     0.148 A 
HETATM    2  N   UNL     1       5.059  29.392  52.118  1.00  0.00    -0.165 NA
HETATM    3  N   UNL     1       4.049  29.555  51.240  1.00  0.00    -0.240 N 
HETATM    4  C   UNL     1       2.903  28.906  51.591  1.00  0.00     0.123 A 
HETATM    5  N   UNL     1       1.767  29.025  50.883  1.00  0.00    -0.366 N 
HETATM    6  C   UNL     1       1.627  29.897  49.729  1.00  0.00     0.118 C 
HETATM    7  C   UNL     1       2.813  30.862  49.550  1.00  0.00     0.066 C 
HETATM    8  C   UNL     1       4.185  30.371  50.052  1.00  0.00     0.221 C 
HETATM    9  C   UNL     1       3.209  28.177  52.707  1.00  0.00     0.088 A 
HETATM   10  H   UNL     1       0.936  28.487  51.127  1.00  0.00     0.161 HD
ENDROOT
BRANCH   1  11
HETATM   11  C   UNL     1       5.343  27.943  54.119  1.00  0.00     0.272 C 
HETATM   12  N   UNL     1       5.178  26.589  54.315  1.00  0.00    -0.355 N 
HETATM   13  H   UNL     1       4.671  26.092  53.588  1.00  0.00     0.162 HD
HETATM   14  O   UNL     1       6.086  28.635  54.811  1.00  0.00    -0.266 OA
BRANCH  12  15
HETATM   15  C   UNL     1       5.952  25.887  55.316  1.00  0.00     0.127 C 
BRANCH  15  16
HETATM   16  C   UNL     1       7.186  25.182  54.758  1.00  0.00     0.060 C 
BRANCH  16  17
HETATM   17  C   UNL     1       7.662  24.061  55.628  1.00  0.00    -0.029 A 
HETATM   18  C   UNL     1       7.906  22.705  55.241  1.00  0.00    -0.002 A 
HETATM   19  C   UNL     1       7.803  21.996  54.026  1.00  0.00     0.014 A 
HETATM   20  C   UNL     1       8.331  22.015  56.377  1.00  0.00     0.042 A 
HETATM   21  C   UNL     1       8.121  20.634  53.994  1.00  0.00     0.001 A 
HETATM   22  C   UNL     1       8.540  19.974  55.147  1.00  0.00     0.002 A 
HETATM   23  C   UNL     1       8.654  20.654  56.363  1.00  0.00     0.030 A 
HETATM   24  N   UNL     1       8.347  22.916  57.415  1.00  0.00    -0.365 N 
HETATM   25  H   UNL     1       8.615  22.692  58.364  1.00  0.00     0.165 HD
HETATM   26  C   UNL     1       7.941  24.148  56.980  1.00  0.00     0.096 A 
ENDBRANCH  16  17
ENDBRANCH  15  16
ENDBRANCH  12  15
ENDBRANCH   1  11
BRANCH   8  27
HETATM   27  C   UNL     1       4.985  29.641  48.999  1.00  0.00     0.409 C 
HETATM   28  F   UNL     1       4.696  28.330  48.907  1.00  0.00    -0.169 F 
HETATM   29  F   UNL     1       4.747  30.186  47.775  1.00  0.00    -0.169 F 
HETATM   30  F   UNL     1       6.319  29.749  49.201  1.00  0.00    -0.169 F 
ENDBRANCH   8  27
BRANCH   6  31
HETATM   31  C   UNL     1       1.223  29.097  48.502  1.00  0.00    -0.033 A 
HETATM   32  C   UNL     1       0.548  29.749  47.451  1.00  0.00     0.049 A 
HETATM   33  C   UNL     1       0.091  28.993  46.390  1.00  0.00     0.105 A 
HETATM   34  C   UNL     1       0.301  27.638  46.322  1.00  0.00     0.105 A 
HETATM   35  O   UNL     1      -0.624  29.461  45.332  1.00  0.00    -0.323 OA
HETATM   36  O   UNL     1      -0.249  27.082  45.209  1.00  0.00    -0.323 OA
HETATM   37  C   UNL     1       0.980  26.962  47.309  1.00  0.00     0.040 A 
HETATM   38  C   UNL     1      -0.883  28.234  44.617  1.00  0.00     0.352 A 
HETATM   39  C   UNL     1       1.431  27.699  48.409  1.00  0.00     0.012 A 
ENDBRANCH   6  31
TORSDOF 6
ENDMDL
MODEL 9
REMARK VINA RESULT:      -9.8      6.668     10.561
REMARK  6 active torsions:
REMARK  status: ('A' for Active; 'I' for Inactive)
REMARK    1  A    between atoms: C_8  and  C_9 
REMARK    2  A    between atoms: C_9  and  C_10 
REMARK    3  A    between atoms: C_10  and  N_11 
REMARK       I    between atoms: N_11  and  C_12 
REMARK    4  A    between atoms: C_12  and  C_13 
REMARK    5  A    between atoms: C_18  and  C_19 
REMARK    6  A    between atoms: C_29  and  C_30 
ROOT
HETATM    1  C   UNL     1       4.397  27.796  51.099  1.00  0.00     0.148 A 
HETATM    2  N   UNL     1       4.860  28.212  52.301  1.00  0.00    -0.165 NA
HETATM    3  N   UNL     1       5.819  27.311  52.595  1.00  0.00    -0.240 N 
HETATM    4  C   UNL     1       6.067  26.423  51.590  1.00  0.00     0.123 A 
HETATM    5  N   UNL     1       7.049  25.509  51.669  1.00  0.00    -0.366 N 
HETATM    6  C   UNL     1       7.976  25.419  52.786  1.00  0.00     0.118 C 
HETATM    7  C   UNL     1       7.894  26.624  53.740  1.00  0.00     0.066 C 
HETATM    8  C   UNL     1       6.525  27.321  53.859  1.00  0.00     0.221 C 
HETATM    9  C   UNL     1       5.138  26.682  50.621  1.00  0.00     0.088 A 
HETATM   10  H   UNL     1       7.182  24.816  50.934  1.00  0.00     0.161 HD
ENDROOT
BRANCH   1  11
HETATM   11  C   UNL     1       3.271  28.434  50.401  1.00  0.00     0.272 C 
HETATM   12  N   UNL     1       2.691  27.656  49.424  1.00  0.00    -0.355 N 
HETATM   13  H   UNL     1       2.988  26.684  49.393  1.00  0.00     0.162 HD
HETATM   14  O   UNL     1       2.880  29.565  50.678  1.00  0.00    -0.266 OA
BRANCH  12  15
HETATM   15  C   UNL     1       1.515  28.112  48.716  1.00  0.00     0.127 C 
BRANCH  15  16
HETATM   16  C   UNL     1       1.716  28.245  47.208  1.00  0.00     0.060 C 
BRANCH  16  17
HETATM   17  C   UNL     1       0.426  28.353  46.454  1.00  0.00    -0.029 A 
HETATM   18  C   UNL     1      -0.465  29.471  46.415  1.00  0.00    -0.002 A 
HETATM   19  C   UNL     1      -0.462  30.752  47.006  1.00  0.00     0.014 A 
HETATM   20  C   UNL     1      -1.538  29.123  45.593  1.00  0.00     0.042 A 
HETATM   21  C   UNL     1      -1.525  31.628  46.759  1.00  0.00     0.001 A 
HETATM   22  C   UNL     1      -2.583  31.248  45.936  1.00  0.00     0.002 A 
HETATM   23  C   UNL     1      -2.608  29.987  45.335  1.00  0.00     0.030 A 
HETATM   24  N   UNL     1      -1.308  27.843  45.148  1.00  0.00    -0.365 N 
HETATM   25  H   UNL     1      -1.925  27.331  44.533  1.00  0.00     0.165 HD
HETATM   26  C   UNL     1      -0.133  27.367  45.663  1.00  0.00     0.096 A 
ENDBRANCH  16  17
ENDBRANCH  15  16
ENDBRANCH  12  15
ENDBRANCH   1  11
BRANCH   8  27
HETATM   27  C   UNL     1       5.654  26.754  54.955  1.00  0.00     0.409 C 
HETATM   28  F   UNL     1       5.094  25.569  54.646  1.00  0.00    -0.169 F 
HETATM   29  F   UNL     1       6.391  26.561  56.081  1.00  0.00    -0.169 F 
HETATM   30  F   UNL     1       4.654  27.597  55.304  1.00  0.00    -0.169 F 
ENDBRANCH   8  27
BRANCH   6  31
HETATM   31  C   UNL     1       7.900  24.046  53.431  1.00  0.00    -0.033 A 
HETATM   32  C   UNL     1       8.030  23.939  54.830  1.00  0.00     0.049 A 
HETATM   33  C   UNL     1       8.068  22.680  55.395  1.00  0.00     0.105 A 
HETATM   34  C   UNL     1       7.953  21.540  54.637  1.00  0.00     0.105 A 
HETATM   35  O   UNL     1       8.245  22.408  56.716  1.00  0.00    -0.323 OA
HETATM   36  O   UNL     1       8.039  20.408  55.385  1.00  0.00    -0.323 OA
HETATM   37  C   UNL     1       7.794  21.595  53.272  1.00  0.00     0.040 A 
HETATM   38  C   UNL     1       8.281  20.966  56.693  1.00  0.00     0.352 A 
HETATM   39  C   UNL     1       7.780  22.858  52.669  1.00  0.00     0.012 A 
ENDBRANCH   6  31
TORSDOF 6
ENDMDL
MODEL 10
REMARK VINA RESULT:      -9.7      4.365     11.313
REMARK  6 active torsions:
REMARK  status: ('A' for Active; 'I' for Inactive)
REMARK    1  A    between atoms: C_8  and  C_9 
REMARK    2  A    between atoms: C_9  and  C_10 
REMARK    3  A    between atoms: C_10  and  N_11 
REMARK       I    between atoms: N_11  and  C_12 
REMARK    4  A    between atoms: C_12  and  C_13 
REMARK    5  A    between atoms: C_18  and  C_19 
REMARK    6  A    between atoms: C_29  and  C_30 
ROOT
HETATM    1  C   UNL     1       7.232  31.570  60.760  1.00  0.00     0.148 A 
HETATM    2  N   UNL     1       7.061  31.451  62.098  1.00  0.00    -0.165 NA
HETATM    3  N   UNL     1       6.365  32.559  62.423  1.00  0.00    -0.240 N 
HETATM    4  C   UNL     1       5.986  33.306  61.348  1.00  0.00     0.123 A 
HETATM    5  N   UNL     1       5.210  34.397  61.472  1.00  0.00    -0.366 N 
HETATM    6  C   UNL     1       4.651  34.846  62.737  1.00  0.00     0.118 C 
HETATM    7  C   UNL     1       4.812  33.816  63.871  1.00  0.00     0.066 C 
HETATM    8  C   UNL     1       6.041  32.891  63.794  1.00  0.00     0.221 C 
HETATM    9  C   UNL     1       6.563  32.718  60.257  1.00  0.00     0.088 A 
HETATM   10  H   UNL     1       4.985  34.977  60.665  1.00  0.00     0.161 HD
ENDROOT
BRANCH   1  11
HETATM   11  C   UNL     1       8.015  30.620  59.957  1.00  0.00     0.272 C 
HETATM   12  N   UNL     1       7.431  30.267  58.760  1.00  0.00    -0.355 N 
HETATM   13  H   UNL     1       6.615  30.808  58.485  1.00  0.00     0.162 HD
HETATM   14  O   UNL     1       9.104  30.186  60.325  1.00  0.00    -0.266 OA
BRANCH  12  15
HETATM   15  C   UNL     1       8.126  29.413  57.821  1.00  0.00     0.127 C 
BRANCH  15  16
HETATM   16  C   UNL     1       7.500  28.028  57.668  1.00  0.00     0.060 C 
BRANCH  16  17
HETATM   17  C   UNL     1       7.508  27.537  56.253  1.00  0.00    -0.029 A 
HETATM   18  C   UNL     1       7.359  26.187  55.802  1.00  0.00    -0.002 A 
HETATM   19  C   UNL     1       7.168  24.949  56.451  1.00  0.00     0.014 A 
HETATM   20  C   UNL     1       7.437  26.201  54.409  1.00  0.00     0.042 A 
HETATM   21  C   UNL     1       7.067  23.780  55.689  1.00  0.00     0.001 A 
HETATM   22  C   UNL     1       7.151  23.827  54.300  1.00  0.00     0.002 A 
HETATM   23  C   UNL     1       7.336  25.041  53.632  1.00  0.00     0.030 A 
HETATM   24  N   UNL     1       7.623  27.507  54.026  1.00  0.00    -0.365 N 
HETATM   25  H   UNL     1       7.715  27.816  53.068  1.00  0.00     0.165 HD
HETATM   26  C   UNL     1       7.674  28.320  55.126  1.00  0.00     0.096 A 
ENDBRANCH  16  17
ENDBRANCH  15  16
ENDBRANCH  12  15
ENDBRANCH   1  11
BRANCH   8  27
HETATM   27  C   UNL     1       7.255  33.442  64.505  1.00  0.00     0.409 C 
HETATM   28  F   UNL     1       7.362  34.782  64.440  1.00  0.00    -0.169 F 
HETATM   29  F   UNL     1       7.209  33.113  65.824  1.00  0.00    -0.169 F 
HETATM   30  F   UNL     1       8.409  32.918  64.032  1.00  0.00    -0.169 F 
ENDBRANCH   8  27
BRANCH   6  31
HETATM   31  C   UNL     1       5.105  36.262  63.048  1.00  0.00    -0.033 A 
HETATM   32  C   UNL     1       5.814  36.984  62.068  1.00  0.00     0.049 A 
HETATM   33  C   UNL     1       6.315  38.227  62.398  1.00  0.00     0.105 A 
HETATM   34  C   UNL     1       6.116  38.785  63.637  1.00  0.00     0.105 A 
HETATM   35  O   UNL     1       7.065  39.021  61.587  1.00  0.00    -0.323 OA
HETATM   36  O   UNL     1       6.710  40.001  63.761  1.00  0.00    -0.323 OA
HETATM   37  C   UNL     1       5.405  38.131  64.616  1.00  0.00     0.040 A 
HETATM   38  C   UNL     1       7.358  40.118  62.478  1.00  0.00     0.352 A 
HETATM   39  C   UNL     1       4.909  36.856  64.318  1.00  0.00     0.012 A 
ENDBRANCH   6  31
TORSDOF 6
ENDMDL
