MODEL 1
REMARK VINA RESULT:      -9.7      0.000      0.000
REMARK  10 active torsions:
REMARK  status: ('A' for Active; 'I' for Inactive)
REMARK    1  A    between atoms: C_6  and  N_7 
REMARK    2  A    between atoms: C_8  and  S_9 
REMARK    3  A    between atoms: S_9  and  C_10 
REMARK    4  A    between atoms: C_10  and  C_11 
REMARK       I    between atoms: C_11  and  N_12 
REMARK    5  A    between atoms: N_12  and  C_13 
REMARK    6  A    between atoms: C_13  and  C_14 
REMARK    7  A    between atoms: C_14  and  C_15 
REMARK    8  A    between atoms: C_17  and  O_18 
REMARK    9  A    between atoms: C_20  and  O_21 
REMARK   10  A    between atoms: C_29  and  N_30 
ROOT
HETATM    1  N   UNL     1       5.856  29.097  56.374  1.00  0.00    -0.276 N 
HETATM    2  C   UNL     1       6.605  29.790  57.366  1.00  0.00     0.177 A 
HETATM    3  N   UNL     1       6.360  31.006  57.793  1.00  0.00    -0.204 NA
HETATM    4  C   UNL     1       5.280  31.584  57.226  1.00  0.00     0.162 A 
HETATM    5  C   UNL     1       4.438  31.094  56.267  1.00  0.00     0.081 A 
HETATM    6  C   UNL     1       4.722  29.784  55.766  1.00  0.00     0.124 A 
HETATM    7  N   UNL     1       4.797  32.822  57.531  1.00  0.00    -0.260 N 
HETATM    8  H   UNL     1       5.160  33.482  58.210  1.00  0.00     0.191 HD
HETATM    9  N   UNL     1       3.696  33.149  56.819  1.00  0.00    -0.177 NA
HETATM   10  C   UNL     1       3.466  32.080  56.041  1.00  0.00     0.068 A 
HETATM   11  C   UNL     1       2.303  32.086  55.121  1.00  0.00     0.073 C 
ENDROOT
BRANCH   2  12
HETATM   12  S   UNL     1       7.993  28.992  58.144  1.00  0.00    -0.082 SA
BRANCH  12  13
HETATM   13  C   UNL     1       9.360  30.020  57.542  1.00  0.00     0.185 C 
BRANCH  13  14
HETATM   14  C   UNL     1       9.614  31.210  58.456  1.00  0.00     0.227 C 
HETATM   15  N   UNL     1       9.010  31.100  59.694  1.00  0.00    -0.360 N 
HETATM   16  H   UNL     1       8.386  30.328  59.889  1.00  0.00     0.162 HD
HETATM   17  O   UNL     1      10.337  32.155  58.152  1.00  0.00    -0.273 OA
BRANCH  15  18
HETATM   18  C   UNL     1       9.249  32.061  60.756  1.00  0.00     0.127 C 
BRANCH  18  19
HETATM   19  C   UNL     1       9.134  31.449  62.154  1.00  0.00     0.058 C 
BRANCH  19  20
HETATM   20  C   UNL     1       7.889  31.936  62.857  1.00  0.00    -0.054 A 
HETATM   21  C   UNL     1       6.621  31.518  62.424  1.00  0.00     0.046 A 
HETATM   22  C   UNL     1       5.458  32.000  63.037  1.00  0.00     0.102 A 
HETATM   23  C   UNL     1       5.562  32.917  64.103  1.00  0.00     0.101 A 
HETATM   24  C   UNL     1       6.826  33.328  64.536  1.00  0.00     0.040 A 
HETATM   25  C   UNL     1       7.980  32.843  63.916  1.00  0.00     0.010 A 
BRANCH  22  26
HETATM   26  O   UNL     1       4.182  31.649  62.668  1.00  0.00    -0.353 OA
HETATM   27  C   UNL     1       3.713  32.101  61.407  1.00  0.00     0.210 C 
ENDBRANCH  22  26
BRANCH  23  28
HETATM   28  O   UNL     1       4.376  33.348  64.646  1.00  0.00    -0.353 OA
HETATM   29  C   UNL     1       4.427  34.015  65.899  1.00  0.00     0.210 C 
ENDBRANCH  23  28
ENDBRANCH  19  20
ENDBRANCH  18  19
ENDBRANCH  15  18
ENDBRANCH  13  14
ENDBRANCH  12  13
ENDBRANCH   2  12
BRANCH   1  30
HETATM   30  C   UNL     1       6.169  27.760  55.987  1.00  0.00     0.045 A 
HETATM   31  C   UNL     1       6.873  27.493  54.807  1.00  0.00     0.054 A 
HETATM   32  C   UNL     1       7.092  26.174  54.393  1.00  0.00     0.042 A 
HETATM   33  C   UNL     1       6.597  25.095  55.142  1.00  0.00    -0.040 A 
HETATM   34 CL   UNL     1       7.968  25.928  52.925  1.00  0.00    -0.084 Cl
HETATM   35  C   UNL     1       6.812  23.668  54.719  1.00  0.00     0.050 C 
HETATM   36  C   UNL     1       5.897  25.366  56.325  1.00  0.00     0.011 A 
HETATM   37  C   UNL     1       5.684  26.683  56.743  1.00  0.00     0.031 A 
ENDBRANCH   1  30
BRANCH   6  38
HETATM   38  N   UNL     1       4.010  29.263  54.784  1.00  0.00    -0.384 N 
HETATM   39  H   UNL     1       4.423  29.021  53.894  1.00  0.00     0.157 HD
HETATM   40  H   UNL     1       3.026  29.065  54.920  1.00  0.00     0.157 HD
ENDBRANCH   6  38
TORSDOF 10
ENDMDL
MODEL 2
REMARK VINA RESULT:      -9.6      2.102      4.544
REMARK  10 active torsions:
REMARK  status: ('A' for Active; 'I' for Inactive)
REMARK    1  A    between atoms: C_6  and  N_7 
REMARK    2  A    between atoms: C_8  and  S_9 
REMARK    3  A    between atoms: S_9  and  C_10 
REMARK    4  A    between atoms: C_10  and  C_11 
REMARK       I    between atoms: C_11  and  N_12 
REMARK    5  A    between atoms: N_12  and  C_13 
REMARK    6  A    between atoms: C_13  and  C_14 
REMARK    7  A    between atoms: C_14  and  C_15 
REMARK    8  A    between atoms: C_17  and  O_18 
REMARK    9  A    between atoms: C_20  and  O_21 
REMARK   10  A    between atoms: C_29  and  N_30 
ROOT
HETATM    1  N   UNL     1       6.319  27.523  56.226  1.00  0.00    -0.276 N 
HETATM    2  C   UNL     1       7.312  27.871  57.184  1.00  0.00     0.177 A 
HETATM    3  N   UNL     1       8.239  27.065  57.646  1.00  0.00    -0.204 NA
HETATM    4  C   UNL     1       8.212  25.827  57.110  1.00  0.00     0.162 A 
HETATM    5  C   UNL     1       7.352  25.300  56.188  1.00  0.00     0.081 A 
HETATM    6  C   UNL     1       6.312  26.159  55.709  1.00  0.00     0.124 A 
HETATM    7  N   UNL     1       9.093  24.825  57.394  1.00  0.00    -0.260 N 
HETATM    8  H   UNL     1       9.882  24.852  58.032  1.00  0.00     0.191 HD
HETATM    9  N   UNL     1       8.841  23.690  56.707  1.00  0.00    -0.177 NA
HETATM   10  C   UNL     1       7.768  23.981  55.954  1.00  0.00     0.068 A 
HETATM   11  C   UNL     1       7.216  22.948  55.045  1.00  0.00     0.073 C 
ENDROOT
BRANCH   2  12
HETATM   12  S   UNL     1       7.367  29.525  57.839  1.00  0.00    -0.082 SA
BRANCH  12  13
HETATM   13  C   UNL     1       9.142  29.878  57.726  1.00  0.00     0.185 C 
BRANCH  13  14
HETATM   14  C   UNL     1       9.517  31.130  58.506  1.00  0.00     0.227 C 
HETATM   15  N   UNL     1       8.693  31.382  59.587  1.00  0.00    -0.360 N 
HETATM   16  H   UNL     1       7.872  30.812  59.744  1.00  0.00     0.162 HD
HETATM   17  O   UNL     1      10.496  31.824  58.242  1.00  0.00    -0.273 OA
BRANCH  15  18
HETATM   18  C   UNL     1       8.972  32.444  60.536  1.00  0.00     0.127 C 
BRANCH  18  19
HETATM   19  C   UNL     1       9.138  31.936  61.970  1.00  0.00     0.058 C 
BRANCH  19  20
HETATM   20  C   UNL     1       7.911  32.239  62.797  1.00  0.00    -0.054 A 
HETATM   21  C   UNL     1       6.649  31.787  62.384  1.00  0.00     0.046 A 
HETATM   22  C   UNL     1       5.498  32.102  63.118  1.00  0.00     0.102 A 
HETATM   23  C   UNL     1       5.609  32.884  64.286  1.00  0.00     0.101 A 
HETATM   24  C   UNL     1       6.868  33.331  64.697  1.00  0.00     0.040 A 
HETATM   25  C   UNL     1       8.010  33.012  63.957  1.00  0.00     0.010 A 
BRANCH  22  26
HETATM   26  O   UNL     1       4.227  31.706  62.777  1.00  0.00    -0.353 OA
HETATM   27  C   UNL     1       3.747  32.067  61.491  1.00  0.00     0.210 C 
ENDBRANCH  22  26
BRANCH  23  28
HETATM   28  O   UNL     1       4.434  33.156  64.944  1.00  0.00    -0.353 OA
HETATM   29  C   UNL     1       4.503  33.961  66.112  1.00  0.00     0.210 C 
ENDBRANCH  23  28
ENDBRANCH  19  20
ENDBRANCH  18  19
ENDBRANCH  15  18
ENDBRANCH  13  14
ENDBRANCH  12  13
ENDBRANCH   2  12
BRANCH   1  30
HETATM   30  C   UNL     1       5.363  28.469  55.750  1.00  0.00     0.045 A 
HETATM   31  C   UNL     1       5.373  28.903  54.419  1.00  0.00     0.054 A 
HETATM   32  C   UNL     1       4.489  29.900  53.991  1.00  0.00     0.042 A 
HETATM   33  C   UNL     1       3.589  30.495  54.887  1.00  0.00    -0.040 A 
HETATM   34 CL   UNL     1       4.565  30.381  52.333  1.00  0.00    -0.084 Cl
HETATM   35  C   UNL     1       2.631  31.572  54.457  1.00  0.00     0.050 C 
HETATM   36  C   UNL     1       3.578  30.055  56.218  1.00  0.00     0.011 A 
HETATM   37  C   UNL     1       4.456  29.055  56.645  1.00  0.00     0.031 A 
ENDBRANCH   1  30
BRANCH   6  38
HETATM   38  N   UNL     1       5.389  25.711  54.878  1.00  0.00    -0.384 N 
HETATM   39  H   UNL     1       5.618  25.115  54.096  1.00  0.00     0.157 HD
HETATM   40  H   UNL     1       4.414  25.937  55.033  1.00  0.00     0.157 HD
ENDBRANCH   6  38
TORSDOF 10
ENDMDL
MODEL 3
REMARK VINA RESULT:      -9.4      3.632      8.866
REMARK  10 active torsions:
REMARK  status: ('A' for Active; 'I' for Inactive)
REMARK    1  A    between atoms: C_6  and  N_7 
REMARK    2  A    between atoms: C_8  and  S_9 
REMARK    3  A    between atoms: S_9  and  C_10 
REMARK    4  A    between atoms: C_10  and  C_11 
REMARK       I    between atoms: C_11  and  N_12 
REMARK    5  A    between atoms: N_12  and  C_13 
REMARK    6  A    between atoms: C_13  and  C_14 
REMARK    7  A    between atoms: C_14  and  C_15 
REMARK    8  A    between atoms: C_17  and  O_18 
REMARK    9  A    between atoms: C_20  and  O_21 
REMARK   10  A    between atoms: C_29  and  N_30 
ROOT
HETATM    1  N   UNL     1       7.048  31.946  60.230  1.00  0.00    -0.276 N 
HETATM    2  C   UNL     1       5.769  32.370  59.771  1.00  0.00     0.177 A 
HETATM    3  N   UNL     1       4.848  32.946  60.507  1.00  0.00    -0.204 NA
HETATM    4  C   UNL     1       5.214  33.150  61.790  1.00  0.00     0.162 A 
HETATM    5  C   UNL     1       6.382  32.822  62.421  1.00  0.00     0.081 A 
HETATM    6  C   UNL     1       7.376  32.156  61.636  1.00  0.00     0.124 A 
HETATM    7  N   UNL     1       4.453  33.766  62.739  1.00  0.00    -0.260 N 
HETATM    8  H   UNL     1       3.522  34.156  62.634  1.00  0.00     0.191 HD
HETATM    9  N   UNL     1       5.068  33.847  63.939  1.00  0.00    -0.177 NA
HETATM   10  C   UNL     1       6.265  33.270  63.745  1.00  0.00     0.068 A 
HETATM   11  C   UNL     1       7.227  33.195  64.871  1.00  0.00     0.073 C 
ENDROOT
BRANCH   2  12
HETATM   12  S   UNL     1       5.324  32.143  58.062  1.00  0.00    -0.082 SA
BRANCH  12  13
HETATM   13  C   UNL     1       4.032  30.878  58.211  1.00  0.00     0.185 C 
BRANCH  13  14
HETATM   14  C   UNL     1       4.055  29.911  57.037  1.00  0.00     0.227 C 
HETATM   15  N   UNL     1       4.803  28.771  57.268  1.00  0.00    -0.360 N 
HETATM   16  H   UNL     1       5.346  28.683  58.117  1.00  0.00     0.162 HD
HETATM   17  O   UNL     1       3.421  30.089  56.000  1.00  0.00    -0.273 OA
BRANCH  15  18
HETATM   18  C   UNL     1       4.832  27.665  56.328  1.00  0.00     0.127 C 
BRANCH  18  19
HETATM   19  C   UNL     1       5.318  26.358  56.958  1.00  0.00     0.058 C 
BRANCH  19  20
HETATM   20  C   UNL     1       5.930  25.450  55.917  1.00  0.00    -0.054 A 
HETATM   21  C   UNL     1       5.489  25.500  54.586  1.00  0.00     0.046 A 
HETATM   22  C   UNL     1       6.016  24.630  53.622  1.00  0.00     0.102 A 
HETATM   23  C   UNL     1       7.000  23.692  53.994  1.00  0.00     0.101 A 
HETATM   24  C   UNL     1       7.440  23.647  55.320  1.00  0.00     0.040 A 
HETATM   25  C   UNL     1       6.908  24.518  56.275  1.00  0.00     0.010 A 
BRANCH  22  26
HETATM   26  O   UNL     1       5.632  24.609  52.303  1.00  0.00    -0.353 OA
HETATM   27  C   UNL     1       5.588  25.846  51.609  1.00  0.00     0.210 C 
ENDBRANCH  22  26
BRANCH  23  28
HETATM   28  O   UNL     1       7.459  22.871  52.994  1.00  0.00    -0.353 OA
HETATM   29  C   UNL     1       7.851  21.552  53.350  1.00  0.00     0.210 C 
ENDBRANCH  23  28
ENDBRANCH  19  20
ENDBRANCH  18  19
ENDBRANCH  15  18
ENDBRANCH  13  14
ENDBRANCH  12  13
ENDBRANCH   2  12
BRANCH   1  30
HETATM   30  C   UNL     1       8.007  31.355  59.356  1.00  0.00     0.045 A 
HETATM   31  C   UNL     1       7.796  30.088  58.798  1.00  0.00     0.054 A 
HETATM   32  C   UNL     1       8.787  29.482  58.018  1.00  0.00     0.042 A 
HETATM   33  C   UNL     1      10.015  30.121  57.792  1.00  0.00    -0.040 A 
HETATM   34 CL   UNL     1       8.450  27.917  57.367  1.00  0.00    -0.084 Cl
HETATM   35  C   UNL     1      11.100  29.492  56.962  1.00  0.00     0.050 C 
HETATM   36  C   UNL     1      10.221  31.392  58.348  1.00  0.00     0.011 A 
HETATM   37  C   UNL     1       9.230  32.001  59.122  1.00  0.00     0.031 A 
ENDBRANCH   1  30
BRANCH   6  38
HETATM   38  N   UNL     1       8.501  31.731  62.181  1.00  0.00    -0.384 N 
HETATM   39  H   UNL     1       9.403  32.065  61.874  1.00  0.00     0.157 HD
HETATM   40  H   UNL     1       8.474  31.075  62.953  1.00  0.00     0.157 HD
ENDBRANCH   6  38
TORSDOF 10
ENDMDL
MODEL 4
REMARK VINA RESULT:      -9.0      2.774      4.981
REMARK  10 active torsions:
REMARK  status: ('A' for Active; 'I' for Inactive)
REMARK    1  A    between atoms: C_6  and  N_7 
REMARK    2  A    between atoms: C_8  and  S_9 
REMARK    3  A    between atoms: S_9  and  C_10 
REMARK    4  A    between atoms: C_10  and  C_11 
REMARK       I    between atoms: C_11  and  N_12 
REMARK    5  A    between atoms: N_12  and  C_13 
REMARK    6  A    between atoms: C_13  and  C_14 
REMARK    7  A    between atoms: C_14  and  C_15 
REMARK    8  A    between atoms: C_17  and  O_18 
REMARK    9  A    between atoms: C_20  and  O_21 
REMARK   10  A    between atoms: C_29  and  N_30 
ROOT
HETATM    1  N   UNL     1       6.110  26.848  54.173  1.00  0.00    -0.276 N 
HETATM    2  C   UNL     1       6.698  27.336  55.373  1.00  0.00     0.177 A 
HETATM    3  N   UNL     1       7.460  26.641  56.185  1.00  0.00    -0.204 NA
HETATM    4  C   UNL     1       7.687  25.373  55.780  1.00  0.00     0.162 A 
HETATM    5  C   UNL     1       7.221  24.720  54.673  1.00  0.00     0.081 A 
HETATM    6  C   UNL     1       6.357  25.458  53.803  1.00  0.00     0.124 A 
HETATM    7  N   UNL     1       8.476  24.469  56.426  1.00  0.00    -0.260 N 
HETATM    8  H   UNL     1       9.000  24.600  57.285  1.00  0.00     0.191 HD
HETATM    9  N   UNL     1       8.538  23.276  55.796  1.00  0.00    -0.177 NA
HETATM   10  C   UNL     1       7.768  23.429  54.706  1.00  0.00     0.068 A 
HETATM   11  C   UNL     1       7.616  22.299  53.758  1.00  0.00     0.073 C 
ENDROOT
BRANCH   2  12
HETATM   12  S   UNL     1       6.433  29.026  55.863  1.00  0.00    -0.082 SA
BRANCH  12  13
HETATM   13  C   UNL     1       7.224  29.037  57.495  1.00  0.00     0.185 C 
BRANCH  13  14
HETATM   14  C   UNL     1       7.043  30.373  58.199  1.00  0.00     0.227 C 
HETATM   15  N   UNL     1       8.086  30.706  59.043  1.00  0.00    -0.360 N 
HETATM   16  H   UNL     1       8.830  30.042  59.217  1.00  0.00     0.162 HD
HETATM   17  O   UNL     1       6.091  31.122  57.996  1.00  0.00    -0.273 OA
BRANCH  15  18
HETATM   18  C   UNL     1       8.169  32.001  59.692  1.00  0.00     0.127 C 
BRANCH  18  19
HETATM   19  C   UNL     1       8.783  31.930  61.092  1.00  0.00     0.058 C 
BRANCH  19  20
HETATM   20  C   UNL     1       7.742  32.196  62.154  1.00  0.00    -0.054 A 
HETATM   21  C   UNL     1       6.383  31.975  61.886  1.00  0.00     0.046 A 
HETATM   22  C   UNL     1       5.405  32.264  62.846  1.00  0.00     0.102 A 
HETATM   23  C   UNL     1       5.790  32.784  64.098  1.00  0.00     0.101 A 
HETATM   24  C   UNL     1       7.145  33.000  64.365  1.00  0.00     0.040 A 
HETATM   25  C   UNL     1       8.114  32.710  63.400  1.00  0.00     0.010 A 
BRANCH  22  26
HETATM   26  O   UNL     1       4.055  32.085  62.658  1.00  0.00    -0.353 OA
HETATM   27  C   UNL     1       3.388  32.974  61.776  1.00  0.00     0.210 C 
ENDBRANCH  22  26
BRANCH  23  28
HETATM   28  O   UNL     1       4.772  33.048  64.982  1.00  0.00    -0.353 OA
HETATM   29  C   UNL     1       4.971  34.091  65.926  1.00  0.00     0.210 C 
ENDBRANCH  23  28
ENDBRANCH  19  20
ENDBRANCH  18  19
ENDBRANCH  15  18
ENDBRANCH  13  14
ENDBRANCH  12  13
ENDBRANCH   2  12
BRANCH   1  30
HETATM   30  C   UNL     1       5.319  27.679  53.326  1.00  0.00     0.045 A 
HETATM   31  C   UNL     1       5.894  28.392  52.267  1.00  0.00     0.054 A 
HETATM   32  C   UNL     1       5.122  29.275  51.504  1.00  0.00     0.042 A 
HETATM   33  C   UNL     1       3.764  29.477  51.793  1.00  0.00    -0.040 A 
HETATM   34 CL   UNL     1       5.906  30.118  50.216  1.00  0.00    -0.084 Cl
HETATM   35  C   UNL     1       2.911  30.424  50.994  1.00  0.00     0.050 C 
HETATM   36  C   UNL     1       3.190  28.758  52.851  1.00  0.00     0.011 A 
HETATM   37  C   UNL     1       3.958  27.871  53.610  1.00  0.00     0.031 A 
ENDBRANCH   1  30
BRANCH   6  38
HETATM   38  N   UNL     1       5.797  24.884  52.754  1.00  0.00    -0.384 N 
HETATM   39  H   UNL     1       6.240  24.882  51.846  1.00  0.00     0.157 HD
HETATM   40  H   UNL     1       4.913  24.400  52.852  1.00  0.00     0.157 HD
ENDBRANCH   6  38
TORSDOF 10
ENDMDL
MODEL 5
REMARK VINA RESULT:      -8.9      2.131      2.955
REMARK  10 active torsions:
REMARK  status: ('A' for Active; 'I' for Inactive)
REMARK    1  A    between atoms: C_6  and  N_7 
REMARK    2  A    between atoms: C_8  and  S_9 
REMARK    3  A    between atoms: S_9  and  C_10 
REMARK    4  A    between atoms: C_10  and  C_11 
REMARK       I    between atoms: C_11  and  N_12 
REMARK    5  A    between atoms: N_12  and  C_13 
REMARK    6  A    between atoms: C_13  and  C_14 
REMARK    7  A    between atoms: C_14  and  C_15 
REMARK    8  A    between atoms: C_17  and  O_18 
REMARK    9  A    between atoms: C_20  and  O_21 
REMARK   10  A    between atoms: C_29  and  N_30 
ROOT
HETATM    1  N   UNL     1       6.141  26.848  54.026  1.00  0.00    -0.276 N 
HETATM    2  C   UNL     1       6.556  27.749  55.046  1.00  0.00     0.177 A 
HETATM    3  N   UNL     1       6.036  28.932  55.275  1.00  0.00    -0.204 NA
HETATM    4  C   UNL     1       5.010  29.252  54.458  1.00  0.00     0.162 A 
HETATM    5  C   UNL     1       4.465  28.536  53.429  1.00  0.00     0.081 A 
HETATM    6  C   UNL     1       5.053  27.261  53.146  1.00  0.00     0.124 A 
HETATM    7  N   UNL     1       4.281  30.402  54.522  1.00  0.00    -0.260 N 
HETATM    8  H   UNL     1       4.390  31.174  55.171  1.00  0.00     0.191 HD
HETATM    9  N   UNL     1       3.304  30.461  53.590  1.00  0.00    -0.177 NA
HETATM   10  C   UNL     1       3.410  29.304  52.916  1.00  0.00     0.068 A 
HETATM   11  C   UNL     1       2.467  29.019  51.809  1.00  0.00     0.073 C 
ENDROOT
BRANCH   2  12
HETATM   12  S   UNL     1       7.874  27.288  56.150  1.00  0.00    -0.082 SA
BRANCH  12  13
HETATM   13  C   UNL     1       7.314  28.061  57.692  1.00  0.00     0.185 C 
BRANCH  13  14
HETATM   14  C   UNL     1       8.122  29.308  58.022  1.00  0.00     0.227 C 
HETATM   15  N   UNL     1       7.818  29.860  59.252  1.00  0.00    -0.360 N 
HETATM   16  H   UNL     1       7.054  29.490  59.801  1.00  0.00     0.162 HD
HETATM   17  O   UNL     1       9.006  29.753  57.295  1.00  0.00    -0.273 OA
BRANCH  15  18
HETATM   18  C   UNL     1       8.578  30.965  59.808  1.00  0.00     0.127 C 
BRANCH  18  19
HETATM   19  C   UNL     1       8.822  30.825  61.312  1.00  0.00     0.058 C 
BRANCH  19  20
HETATM   20  C   UNL     1       7.867  31.692  62.099  1.00  0.00    -0.054 A 
HETATM   21  C   UNL     1       6.593  31.986  61.589  1.00  0.00     0.046 A 
HETATM   22  C   UNL     1       5.716  32.827  62.286  1.00  0.00     0.102 A 
HETATM   23  C   UNL     1       6.119  33.387  63.515  1.00  0.00     0.101 A 
HETATM   24  C   UNL     1       7.387  33.090  64.024  1.00  0.00     0.040 A 
HETATM   25  C   UNL     1       8.255  32.250  63.319  1.00  0.00     0.010 A 
BRANCH  22  26
HETATM   26  O   UNL     1       4.459  33.170  61.852  1.00  0.00    -0.353 OA
HETATM   27  C   UNL     1       3.712  32.187  61.151  1.00  0.00     0.210 C 
ENDBRANCH  22  26
BRANCH  23  28
HETATM   28  O   UNL     1       5.206  34.206  64.133  1.00  0.00    -0.353 OA
HETATM   29  C   UNL     1       4.846  33.902  65.473  1.00  0.00     0.210 C 
ENDBRANCH  23  28
ENDBRANCH  19  20
ENDBRANCH  18  19
ENDBRANCH  15  18
ENDBRANCH  13  14
ENDBRANCH  12  13
ENDBRANCH   2  12
BRANCH   1  30
HETATM   30  C   UNL     1       6.738  25.563  53.863  1.00  0.00     0.045 A 
HETATM   31  C   UNL     1       6.681  24.603  54.881  1.00  0.00     0.054 A 
HETATM   32  C   UNL     1       7.351  23.382  54.743  1.00  0.00     0.042 A 
HETATM   33  C   UNL     1       8.105  23.102  53.594  1.00  0.00    -0.040 A 
HETATM   34 CL   UNL     1       7.232  22.251  56.044  1.00  0.00    -0.084 Cl
HETATM   35  C   UNL     1       8.839  21.801  53.420  1.00  0.00     0.050 C 
HETATM   36  C   UNL     1       8.156  24.063  52.575  1.00  0.00     0.011 A 
HETATM   37  C   UNL     1       7.482  25.280  52.708  1.00  0.00     0.031 A 
ENDBRANCH   1  30
BRANCH   6  38
HETATM   38  N   UNL     1       4.644  26.537  52.121  1.00  0.00    -0.384 N 
HETATM   39  H   UNL     1       4.656  25.527  52.142  1.00  0.00     0.157 HD
HETATM   40  H   UNL     1       4.274  26.991  51.294  1.00  0.00     0.157 HD
ENDBRANCH   6  38
TORSDOF 10
ENDMDL
MODEL 6
REMARK VINA RESULT:      -8.5      5.393      9.862
REMARK  10 active torsions:
REMARK  status: ('A' for Active; 'I' for Inactive)
REMARK    1  A    between atoms: C_6  and  N_7 
REMARK    2  A    between atoms: C_8  and  S_9 
REMARK    3  A    between atoms: S_9  and  C_10 
REMARK    4  A    between atoms: C_10  and  C_11 
REMARK       I    between atoms: C_11  and  N_12 
REMARK    5  A    between atoms: N_12  and  C_13 
REMARK    6  A    between atoms: C_13  and  C_14 
REMARK    7  A    between atoms: C_14  and  C_15 
REMARK    8  A    between atoms: C_17  and  O_18 
REMARK    9  A    between atoms: C_20  and  O_21 
REMARK   10  A    between atoms: C_29  and  N_30 
ROOT
HETATM    1  N   UNL     1       6.786  28.418  56.007  1.00  0.00    -0.276 N 
HETATM    2  C   UNL     1       5.574  29.161  55.953  1.00  0.00     0.177 A 
HETATM    3  N   UNL     1       5.312  30.242  56.650  1.00  0.00    -0.204 NA
HETATM    4  C   UNL     1       6.325  30.645  57.446  1.00  0.00     0.162 A 
HETATM    5  C   UNL     1       7.554  30.078  57.640  1.00  0.00     0.081 A 
HETATM    6  C   UNL     1       7.833  28.876  56.914  1.00  0.00     0.124 A 
HETATM    7  N   UNL     1       6.313  31.758  58.234  1.00  0.00    -0.260 N 
HETATM    8  H   UNL     1       5.567  32.436  58.342  1.00  0.00     0.191 HD
HETATM    9  N   UNL     1       7.464  31.931  58.920  1.00  0.00    -0.177 NA
HETATM   10  C   UNL     1       8.237  30.898  58.550  1.00  0.00     0.068 A 
HETATM   11  C   UNL     1       9.605  30.776  59.109  1.00  0.00     0.073 C 
ENDROOT
BRANCH   2  12
HETATM   12  S   UNL     1       4.270  28.647  54.856  1.00  0.00    -0.082 SA
BRANCH  12  13
HETATM   13  C   UNL     1       3.684  30.251  54.245  1.00  0.00     0.185 C 
BRANCH  13  14
HETATM   14  C   UNL     1       3.669  30.302  52.725  1.00  0.00     0.227 C 
HETATM   15  N   UNL     1       4.692  31.056  52.182  1.00  0.00    -0.360 N 
HETATM   16  H   UNL     1       5.309  31.586  52.784  1.00  0.00     0.162 HD
HETATM   17  O   UNL     1       2.863  29.684  52.035  1.00  0.00    -0.273 OA
BRANCH  15  18
HETATM   18  C   UNL     1       4.934  31.110  50.751  1.00  0.00     0.127 C 
BRANCH  18  19
HETATM   19  C   UNL     1       5.823  29.969  50.252  1.00  0.00     0.058 C 
BRANCH  19  20
HETATM   20  C   UNL     1       4.995  28.870  49.628  1.00  0.00    -0.054 A 
HETATM   21  C   UNL     1       4.085  29.165  48.602  1.00  0.00     0.046 A 
HETATM   22  C   UNL     1       3.277  28.163  48.048  1.00  0.00     0.102 A 
HETATM   23  C   UNL     1       3.379  26.842  48.529  1.00  0.00     0.101 A 
HETATM   24  C   UNL     1       4.289  26.550  49.549  1.00  0.00     0.040 A 
HETATM   25  C   UNL     1       5.089  27.557  50.096  1.00  0.00     0.010 A 
BRANCH  22  26
HETATM   26  O   UNL     1       2.357  28.371  47.049  1.00  0.00    -0.353 OA
HETATM   27  C   UNL     1       2.061  29.713  46.694  1.00  0.00     0.210 C 
ENDBRANCH  22  26
BRANCH  23  28
HETATM   28  O   UNL     1       2.548  25.920  47.941  1.00  0.00    -0.353 OA
HETATM   29  C   UNL     1       3.026  24.588  47.812  1.00  0.00     0.210 C 
ENDBRANCH  23  28
ENDBRANCH  19  20
ENDBRANCH  18  19
ENDBRANCH  15  18
ENDBRANCH  13  14
ENDBRANCH  12  13
ENDBRANCH   2  12
BRANCH   1  30
HETATM   30  C   UNL     1       7.006  27.269  55.190  1.00  0.00     0.045 A 
HETATM   31  C   UNL     1       6.889  25.976  55.712  1.00  0.00     0.054 A 
HETATM   32  C   UNL     1       7.197  24.861  54.923  1.00  0.00     0.042 A 
HETATM   33  C   UNL     1       7.646  25.017  53.603  1.00  0.00    -0.040 A 
HETATM   34 CL   UNL     1       7.028  23.299  55.641  1.00  0.00    -0.084 Cl
HETATM   35  C   UNL     1       7.991  23.839  52.734  1.00  0.00     0.050 C 
HETATM   36  C   UNL     1       7.758  26.314  53.082  1.00  0.00     0.011 A 
HETATM   37  C   UNL     1       7.444  27.427  53.867  1.00  0.00     0.031 A 
ENDBRANCH   1  30
BRANCH   6  38
HETATM   38  N   UNL     1       8.962  28.218  57.098  1.00  0.00    -0.384 N 
HETATM   39  H   UNL     1       9.761  28.346  56.494  1.00  0.00     0.157 HD
HETATM   40  H   UNL     1       9.058  27.585  57.883  1.00  0.00     0.157 HD
ENDBRANCH   6  38
TORSDOF 10
ENDMDL
MODEL 7
REMARK VINA RESULT:      -8.5      2.292      4.622
REMARK  10 active torsions:
REMARK  status: ('A' for Active; 'I' for Inactive)
REMARK    1  A    between atoms: C_6  and  N_7 
REMARK    2  A    between atoms: C_8  and  S_9 
REMARK    3  A    between atoms: S_9  and  C_10 
REMARK    4  A    between atoms: C_10  and  C_11 
REMARK       I    between atoms: C_11  and  N_12 
REMARK    5  A    between atoms: N_12  and  C_13 
REMARK    6  A    between atoms: C_13  and  C_14 
REMARK    7  A    between atoms: C_14  and  C_15 
REMARK    8  A    between atoms: C_17  and  O_18 
REMARK    9  A    between atoms: C_20  and  O_21 
REMARK   10  A    between atoms: C_29  and  N_30 
ROOT
HETATM    1  N   UNL     1       5.798  28.417  56.107  1.00  0.00    -0.276 N 
HETATM    2  C   UNL     1       6.864  28.647  57.021  1.00  0.00     0.177 A 
HETATM    3  N   UNL     1       7.800  27.782  57.333  1.00  0.00    -0.204 NA
HETATM    4  C   UNL     1       7.703  26.604  56.680  1.00  0.00     0.162 A 
HETATM    5  C   UNL     1       6.767  26.189  55.774  1.00  0.00     0.081 A 
HETATM    6  C   UNL     1       5.719  27.112  55.459  1.00  0.00     0.124 A 
HETATM    7  N   UNL     1       8.575  25.563  56.799  1.00  0.00    -0.260 N 
HETATM    8  H   UNL     1       9.406  25.510  57.378  1.00  0.00     0.191 HD
HETATM    9  N   UNL     1       8.246  24.507  56.023  1.00  0.00    -0.177 NA
HETATM   10  C   UNL     1       7.131  24.893  55.381  1.00  0.00     0.068 A 
HETATM   11  C   UNL     1       6.490  23.968  54.417  1.00  0.00     0.073 C 
ENDROOT
BRANCH   2  12
HETATM   12  S   UNL     1       7.007  30.225  57.831  1.00  0.00    -0.082 SA
BRANCH  12  13
HETATM   13  C   UNL     1       8.809  30.438  57.848  1.00  0.00     0.185 C 
BRANCH  13  14
HETATM   14  C   UNL     1       9.251  31.405  58.936  1.00  0.00     0.227 C 
HETATM   15  N   UNL     1       8.814  31.059  60.201  1.00  0.00    -0.360 N 
HETATM   16  H   UNL     1       8.179  30.281  60.325  1.00  0.00     0.162 HD
HETATM   17  O   UNL     1       9.979  32.372  58.728  1.00  0.00    -0.273 OA
BRANCH  15  18
HETATM   18  C   UNL     1       9.249  31.773  61.388  1.00  0.00     0.127 C 
BRANCH  18  19
HETATM   19  C   UNL     1       8.428  31.423  62.631  1.00  0.00     0.058 C 
BRANCH  19  20
HETATM   20  C   UNL     1       7.579  32.594  63.067  1.00  0.00    -0.054 A 
HETATM   21  C   UNL     1       6.793  33.287  62.133  1.00  0.00     0.046 A 
HETATM   22  C   UNL     1       6.039  34.403  62.516  1.00  0.00     0.102 A 
HETATM   23  C   UNL     1       6.071  34.838  63.856  1.00  0.00     0.101 A 
HETATM   24  C   UNL     1       6.851  34.144  64.786  1.00  0.00     0.040 A 
HETATM   25  C   UNL     1       7.601  33.032  64.394  1.00  0.00     0.010 A 
BRANCH  22  26
HETATM   26  O   UNL     1       5.254  35.139  61.662  1.00  0.00    -0.353 OA
HETATM   27  C   UNL     1       4.482  34.434  60.703  1.00  0.00     0.210 C 
ENDBRANCH  22  26
BRANCH  23  28
HETATM   28  O   UNL     1       5.311  35.944  64.150  1.00  0.00    -0.353 OA
HETATM   29  C   UNL     1       4.127  35.748  64.910  1.00  0.00     0.210 C 
ENDBRANCH  23  28
ENDBRANCH  19  20
ENDBRANCH  18  19
ENDBRANCH  15  18
ENDBRANCH  13  14
ENDBRANCH  12  13
ENDBRANCH   2  12
BRANCH   1  30
HETATM   30  C   UNL     1       4.836  29.424  55.797  1.00  0.00     0.045 A 
HETATM   31  C   UNL     1       4.940  30.192  54.631  1.00  0.00     0.054 A 
HETATM   32  C   UNL     1       4.043  31.238  54.387  1.00  0.00     0.042 A 
HETATM   33  C   UNL     1       3.035  31.549  55.311  1.00  0.00    -0.040 A 
HETATM   34 CL   UNL     1       4.239  32.138  52.926  1.00  0.00    -0.084 Cl
HETATM   35  C   UNL     1       2.060  32.671  55.079  1.00  0.00     0.050 C 
HETATM   36  C   UNL     1       2.930  30.776  56.476  1.00  0.00     0.011 A 
HETATM   37  C   UNL     1       3.822  29.727  56.717  1.00  0.00     0.031 A 
ENDBRANCH   1  30
BRANCH   6  38
HETATM   38  N   UNL     1       4.729  26.768  54.656  1.00  0.00    -0.384 N 
HETATM   39  H   UNL     1       3.928  27.364  54.510  1.00  0.00     0.157 HD
HETATM   40  H   UNL     1       4.774  25.897  54.140  1.00  0.00     0.157 HD
ENDBRANCH   6  38
TORSDOF 10
ENDMDL
MODEL 8
REMARK VINA RESULT:      -8.4      2.767      4.266
REMARK  10 active torsions:
REMARK  status: ('A' for Active; 'I' for Inactive)
REMARK    1  A    between atoms: C_6  and  N_7 
REMARK    2  A    between atoms: C_8  and  S_9 
REMARK    3  A    between atoms: S_9  and  C_10 
REMARK    4  A    between atoms: C_10  and  C_11 
REMARK       I    between atoms: C_11  and  N_12 
REMARK    5  A    between atoms: N_12  and  C_13 
REMARK    6  A    between atoms: C_13  and  C_14 
REMARK    7  A    between atoms: C_14  and  C_15 
REMARK    8  A    between atoms: C_17  and  O_18 
REMARK    9  A    between atoms: C_20  and  O_21 
REMARK   10  A    between atoms: C_29  and  N_30 
ROOT
HETATM    1  N   UNL     1       6.102  25.984  53.663  1.00  0.00    -0.276 N 
HETATM    2  C   UNL     1       5.373  26.789  54.583  1.00  0.00     0.177 A 
HETATM    3  N   UNL     1       4.557  27.765  54.260  1.00  0.00    -0.204 NA
HETATM    4  C   UNL     1       4.421  27.954  52.930  1.00  0.00     0.162 A 
HETATM    5  C   UNL     1       5.025  27.298  51.895  1.00  0.00     0.081 A 
HETATM    6  C   UNL     1       5.948  26.259  52.238  1.00  0.00     0.124 A 
HETATM    7  N   UNL     1       3.603  28.874  52.345  1.00  0.00    -0.260 N 
HETATM    8  H   UNL     1       2.987  29.540  52.800  1.00  0.00     0.191 HD
HETATM    9  N   UNL     1       3.653  28.843  50.995  1.00  0.00    -0.177 NA
HETATM   10  C   UNL     1       4.527  27.864  50.712  1.00  0.00     0.068 A 
HETATM   11  C   UNL     1       4.820  27.538  49.296  1.00  0.00     0.073 C 
ENDROOT
BRANCH   2  12
HETATM   12  S   UNL     1       5.521  26.488  56.330  1.00  0.00    -0.082 SA
BRANCH  12  13
HETATM   13  C   UNL     1       5.374  28.174  56.981  1.00  0.00     0.185 C 
BRANCH  13  14
HETATM   14  C   UNL     1       6.723  28.876  57.034  1.00  0.00     0.227 C 
HETATM   15  N   UNL     1       7.104  29.256  58.307  1.00  0.00    -0.360 N 
HETATM   16  H   UNL     1       6.466  29.145  59.084  1.00  0.00     0.162 HD
HETATM   17  O   UNL     1       7.441  29.038  56.051  1.00  0.00    -0.273 OA
BRANCH  15  18
HETATM   18  C   UNL     1       8.418  29.808  58.585  1.00  0.00     0.127 C 
BRANCH  18  19
HETATM   19  C   UNL     1       8.392  31.319  58.827  1.00  0.00     0.058 C 
BRANCH  19  20
HETATM   20  C   UNL     1       7.931  31.635  60.230  1.00  0.00    -0.054 A 
HETATM   21  C   UNL     1       6.662  32.193  60.450  1.00  0.00     0.046 A 
HETATM   22  C   UNL     1       6.242  32.534  61.742  1.00  0.00     0.102 A 
HETATM   23  C   UNL     1       7.104  32.316  62.836  1.00  0.00     0.101 A 
HETATM   24  C   UNL     1       8.367  31.757  62.615  1.00  0.00     0.040 A 
HETATM   25  C   UNL     1       8.777  31.421  61.322  1.00  0.00     0.010 A 
BRANCH  22  26
HETATM   26  O   UNL     1       5.022  33.091  62.040  1.00  0.00    -0.353 OA
HETATM   27  C   UNL     1       3.863  32.304  61.809  1.00  0.00     0.210 C 
ENDBRANCH  22  26
BRANCH  23  28
HETATM   28  O   UNL     1       6.622  32.684  64.068  1.00  0.00    -0.353 OA
HETATM   29  C   UNL     1       7.348  33.664  64.795  1.00  0.00     0.210 C 
ENDBRANCH  23  28
ENDBRANCH  19  20
ENDBRANCH  18  19
ENDBRANCH  15  18
ENDBRANCH  13  14
ENDBRANCH  12  13
ENDBRANCH   2  12
BRANCH   1  30
HETATM   30  C   UNL     1       6.946  24.918  54.095  1.00  0.00     0.045 A 
HETATM   31  C   UNL     1       6.906  23.665  53.473  1.00  0.00     0.054 A 
HETATM   32  C   UNL     1       7.673  22.603  53.967  1.00  0.00     0.042 A 
HETATM   33  C   UNL     1       8.481  22.767  55.102  1.00  0.00    -0.040 A 
HETATM   34 CL   UNL     1       7.567  21.087  53.145  1.00  0.00    -0.084 Cl
HETATM   35  C   UNL     1       9.311  21.643  55.658  1.00  0.00     0.050 C 
HETATM   36  C   UNL     1       8.523  24.025  55.719  1.00  0.00     0.011 A 
HETATM   37  C   UNL     1       7.763  25.088  55.222  1.00  0.00     0.031 A 
ENDBRANCH   1  30
BRANCH   6  38
HETATM   38  N   UNL     1       6.636  25.626  51.307  1.00  0.00    -0.384 N 
HETATM   39  H   UNL     1       6.438  25.742  50.324  1.00  0.00     0.157 HD
HETATM   40  H   UNL     1       7.410  25.025  51.567  1.00  0.00     0.157 HD
ENDBRANCH   6  38
TORSDOF 10
ENDMDL
MODEL 9
REMARK VINA RESULT:      -8.4      7.129     12.125
REMARK  10 active torsions:
REMARK  status: ('A' for Active; 'I' for Inactive)
REMARK    1  A    between atoms: C_6  and  N_7 
REMARK    2  A    between atoms: C_8  and  S_9 
REMARK    3  A    between atoms: S_9  and  C_10 
REMARK    4  A    between atoms: C_10  and  C_11 
REMARK       I    between atoms: C_11  and  N_12 
REMARK    5  A    between atoms: N_12  and  C_13 
REMARK    6  A    between atoms: C_13  and  C_14 
REMARK    7  A    between atoms: C_14  and  C_15 
REMARK    8  A    between atoms: C_17  and  O_18 
REMARK    9  A    between atoms: C_20  and  O_21 
REMARK   10  A    between atoms: C_29  and  N_30 
ROOT
HETATM    1  N   UNL     1       7.312  24.486  54.591  1.00  0.00    -0.276 N 
HETATM    2  C   UNL     1       7.402  24.401  53.173  1.00  0.00     0.177 A 
HETATM    3  N   UNL     1       7.717  23.324  52.493  1.00  0.00    -0.204 NA
HETATM    4  C   UNL     1       7.939  22.234  53.257  1.00  0.00     0.162 A 
HETATM    5  C   UNL     1       7.903  22.107  54.618  1.00  0.00     0.081 A 
HETATM    6  C   UNL     1       7.600  23.287  55.369  1.00  0.00     0.124 A 
HETATM    7  N   UNL     1       8.239  20.990  52.787  1.00  0.00    -0.260 N 
HETATM    8  H   UNL     1       8.341  20.697  51.821  1.00  0.00     0.191 HD
HETATM    9  N   UNL     1       8.400  20.078  53.770  1.00  0.00    -0.177 NA
HETATM   10  C   UNL     1       8.186  20.763  54.905  1.00  0.00     0.068 A 
HETATM   11  C   UNL     1       8.269  20.058  56.206  1.00  0.00     0.073 C 
ENDROOT
BRANCH   2  12
HETATM   12  S   UNL     1       7.052  25.836  52.178  1.00  0.00    -0.082 SA
BRANCH  12  13
HETATM   13  C   UNL     1       5.288  25.593  51.837  1.00  0.00     0.185 C 
BRANCH  13  14
HETATM   14  C   UNL     1       4.903  26.123  50.463  1.00  0.00     0.227 C 
HETATM   15  N   UNL     1       5.480  27.340  50.153  1.00  0.00    -0.360 N 
HETATM   16  H   UNL     1       6.020  27.838  50.849  1.00  0.00     0.162 HD
HETATM   17  O   UNL     1       4.196  25.504  49.673  1.00  0.00    -0.273 OA
BRANCH  15  18
HETATM   18  C   UNL     1       5.351  27.941  48.838  1.00  0.00     0.127 C 
BRANCH  18  19
HETATM   19  C   UNL     1       4.427  29.161  48.825  1.00  0.00     0.058 C 
BRANCH  19  20
HETATM   20  C   UNL     1       3.127  28.848  48.122  1.00  0.00    -0.054 A 
HETATM   21  C   UNL     1       2.099  29.802  48.077  1.00  0.00     0.046 A 
HETATM   22  C   UNL     1       0.872  29.506  47.470  1.00  0.00     0.102 A 
HETATM   23  C   UNL     1       0.666  28.234  46.898  1.00  0.00     0.101 A 
HETATM   24  C   UNL     1       1.693  27.287  46.941  1.00  0.00     0.040 A 
HETATM   25  C   UNL     1       2.914  27.591  47.550  1.00  0.00     0.010 A 
BRANCH  22  26
HETATM   26  O   UNL     1      -0.186  30.379  47.392  1.00  0.00    -0.353 OA
HETATM   27  C   UNL     1       0.095  31.767  47.487  1.00  0.00     0.210 C 
ENDBRANCH  22  26
BRANCH  23  28
HETATM   28  O   UNL     1      -0.566  28.020  46.330  1.00  0.00    -0.353 OA
HETATM   29  C   UNL     1      -0.602  27.476  45.018  1.00  0.00     0.210 C 
ENDBRANCH  23  28
ENDBRANCH  19  20
ENDBRANCH  18  19
ENDBRANCH  15  18
ENDBRANCH  13  14
ENDBRANCH  12  13
ENDBRANCH   2  12
BRANCH   1  30
HETATM   30  C   UNL     1       6.930  25.690  55.254  1.00  0.00     0.045 A 
HETATM   31  C   UNL     1       7.890  26.586  55.738  1.00  0.00     0.054 A 
HETATM   32  C   UNL     1       7.502  27.716  56.467  1.00  0.00     0.042 A 
HETATM   33  C   UNL     1       6.149  27.964  56.742  1.00  0.00    -0.040 A 
HETATM   34 CL   UNL     1       8.746  28.773  57.032  1.00  0.00    -0.084 Cl
HETATM   35  C   UNL     1       5.703  29.166  57.528  1.00  0.00     0.050 C 
HETATM   36  C   UNL     1       5.190  27.067  56.252  1.00  0.00     0.011 A 
HETATM   37  C   UNL     1       5.576  25.942  55.518  1.00  0.00     0.031 A 
ENDBRANCH   1  30
BRANCH   6  38
HETATM   38  N   UNL     1       7.622  23.275  56.689  1.00  0.00    -0.384 N 
HETATM   39  H   UNL     1       6.908  23.730  57.240  1.00  0.00     0.157 HD
HETATM   40  H   UNL     1       8.354  22.775  57.180  1.00  0.00     0.157 HD
ENDBRANCH   6  38
TORSDOF 10
ENDMDL
MODEL 10
REMARK VINA RESULT:      -8.4      4.944      8.358
REMARK  10 active torsions:
REMARK  status: ('A' for Active; 'I' for Inactive)
REMARK    1  A    between atoms: C_6  and  N_7 
REMARK    2  A    between atoms: C_8  and  S_9 
REMARK    3  A    between atoms: S_9  and  C_10 
REMARK    4  A    between atoms: C_10  and  C_11 
REMARK       I    between atoms: C_11  and  N_12 
REMARK    5  A    between atoms: N_12  and  C_13 
REMARK    6  A    between atoms: C_13  and  C_14 
REMARK    7  A    between atoms: C_14  and  C_15 
REMARK    8  A    between atoms: C_17  and  O_18 
REMARK    9  A    between atoms: C_20  and  O_21 
REMARK   10  A    between atoms: C_29  and  N_30 
ROOT
HETATM    1  N   UNL     1       6.740  25.425  54.689  1.00  0.00    -0.276 N 
HETATM    2  C   UNL     1       5.684  26.036  53.957  1.00  0.00     0.177 A 
HETATM    3  N   UNL     1       5.214  27.244  54.164  1.00  0.00    -0.204 NA
HETATM    4  C   UNL     1       5.844  27.921  55.149  1.00  0.00     0.162 A 
HETATM    5  C   UNL     1       6.868  27.518  55.960  1.00  0.00     0.081 A 
HETATM    6  C   UNL     1       7.359  26.187  55.768  1.00  0.00     0.124 A 
HETATM    7  N   UNL     1       5.570  29.202  55.524  1.00  0.00    -0.260 N 
HETATM    8  H   UNL     1       4.873  29.829  55.137  1.00  0.00     0.191 HD
HETATM    9  N   UNL     1       6.359  29.638  56.530  1.00  0.00    -0.177 NA
HETATM   10  C   UNL     1       7.169  28.601  56.798  1.00  0.00     0.068 A 
HETATM   11  C   UNL     1       8.194  28.735  57.861  1.00  0.00     0.073 C 
ENDROOT
BRANCH   2  12
HETATM   12  S   UNL     1       4.902  25.150  52.627  1.00  0.00    -0.082 SA
BRANCH  12  13
HETATM   13  C   UNL     1       5.746  25.873  51.193  1.00  0.00     0.185 C 
BRANCH  13  14
HETATM   14  C   UNL     1       4.774  26.606  50.280  1.00  0.00     0.227 C 
HETATM   15  N   UNL     1       4.151  27.685  50.878  1.00  0.00    -0.360 N 
HETATM   16  H   UNL     1       4.288  27.868  51.864  1.00  0.00     0.162 HD
HETATM   17  O   UNL     1       4.600  26.311  49.100  1.00  0.00    -0.273 OA
BRANCH  15  18
HETATM   18  C   UNL     1       3.301  28.595  50.132  1.00  0.00     0.127 C 
BRANCH  18  19
HETATM   19  C   UNL     1       2.359  29.403  51.028  1.00  0.00     0.058 C 
BRANCH  19  20
HETATM   20  C   UNL     1       3.084  30.561  51.672  1.00  0.00    -0.054 A 
HETATM   21  C   UNL     1       3.244  30.610  53.065  1.00  0.00     0.046 A 
HETATM   22  C   UNL     1       3.873  31.702  53.678  1.00  0.00     0.102 A 
HETATM   23  C   UNL     1       4.349  32.766  52.885  1.00  0.00     0.101 A 
HETATM   24  C   UNL     1       4.191  32.713  51.497  1.00  0.00     0.040 A 
HETATM   25  C   UNL     1       3.562  31.620  50.895  1.00  0.00     0.010 A 
BRANCH  22  26
HETATM   26  O   UNL     1       4.060  31.830  55.033  1.00  0.00    -0.353 OA
HETATM   27  C   UNL     1       2.933  31.644  55.875  1.00  0.00     0.210 C 
ENDBRANCH  22  26
BRANCH  23  28
HETATM   28  O   UNL     1       4.945  33.802  53.561  1.00  0.00    -0.353 OA
HETATM   29  C   UNL     1       5.045  35.053  52.896  1.00  0.00     0.210 C 
ENDBRANCH  23  28
ENDBRANCH  19  20
ENDBRANCH  18  19
ENDBRANCH  15  18
ENDBRANCH  13  14
ENDBRANCH  12  13
ENDBRANCH   2  12
BRANCH   1  30
HETATM   30  C   UNL     1       7.215  24.116  54.380  1.00  0.00     0.045 A 
HETATM   31  C   UNL     1       7.096  23.066  55.297  1.00  0.00     0.054 A 
HETATM   32  C   UNL     1       7.649  21.811  55.017  1.00  0.00     0.042 A 
HETATM   33  C   UNL     1       8.347  21.585  53.821  1.00  0.00    -0.040 A 
HETATM   34 CL   UNL     1       7.460  20.568  56.201  1.00  0.00    -0.084 Cl
HETATM   35  C   UNL     1       8.957  20.249  53.495  1.00  0.00     0.050 C 
HETATM   36  C   UNL     1       8.461  22.637  52.902  1.00  0.00     0.011 A 
HETATM   37  C   UNL     1       7.903  23.889  53.178  1.00  0.00     0.031 A 
ENDBRANCH   1  30
BRANCH   6  38
HETATM   38  N   UNL     1       8.291  25.687  56.558  1.00  0.00    -0.384 N 
HETATM   39  H   UNL     1       8.922  24.962  56.247  1.00  0.00     0.157 HD
HETATM   40  H   UNL     1       8.410  26.050  57.496  1.00  0.00     0.157 HD
ENDBRANCH   6  38
TORSDOF 10
ENDMDL
