MODEL 1
REMARK VINA RESULT:      -9.3      0.000      0.000
REMARK  6 active torsions:
REMARK  status: ('A' for Active; 'I' for Inactive)
REMARK    1  A    between atoms: C_2  and  O_3 
REMARK    2  A    between atoms: O_3  and  C_4 
REMARK    3  A    between atoms: C_5  and  O_6 
REMARK    4  A    between atoms: O_6  and  C_7 
REMARK    5  A    between atoms: C_7  and  C_8 
REMARK    6  A    between atoms: C_18  and  C_19 
ROOT
HETATM    1  C   UNL     1       8.346  29.268  57.393  1.00  0.00     0.103 A 
HETATM    2  C   UNL     1       7.776  30.008  58.430  1.00  0.00     0.112 A 
HETATM    3  C   UNL     1       6.449  30.428  58.372  1.00  0.00     0.041 A 
HETATM    4  C   UNL     1       5.644  29.998  57.317  1.00  0.00     0.014 A 
HETATM    5  C   UNL     1       6.156  29.145  56.316  1.00  0.00    -0.013 A 
HETATM    6  C   UNL     1       7.530  28.829  56.348  1.00  0.00     0.050 A 
ENDROOT
BRANCH   5   7
HETATM    7  C   UNL     1       5.193  28.543  55.292  1.00  0.00     0.219 C 
HETATM    8  N   UNL     1       5.791  28.243  54.012  1.00  0.00    -0.332 N 
HETATM    9  C   UNL     1       6.542  27.114  53.789  1.00  0.00     0.256 C 
HETATM   10  H   UNL     1       5.947  29.001  53.366  1.00  0.00     0.165 HD
HETATM   11  O   UNL     1       7.300  27.019  52.831  1.00  0.00    -0.267 OA
HETATM   12  C   UNL     1       6.388  26.065  54.783  1.00  0.00     0.073 A 
HETATM   13  C   UNL     1       5.408  26.207  55.738  1.00  0.00     0.088 A 
HETATM   14  C   UNL     1       7.136  24.862  54.969  1.00  0.00    -0.023 A 
HETATM   15  S   UNL     1       5.334  24.893  56.809  1.00  0.00    -0.074 SA
HETATM   16  N   UNL     1       4.619  27.306  55.811  1.00  0.00    -0.358 N 
HETATM   17  C   UNL     1       6.662  24.142  56.052  1.00  0.00     0.018 A 
HETATM   18  C   UNL     1       7.249  22.874  56.563  1.00  0.00     0.281 C 
HETATM   19  N   UNL     1       8.196  22.248  55.542  1.00  0.00    -0.070 N 
HETATM   20  C   UNL     1       9.099  23.297  54.897  1.00  0.00     0.239 C 
HETATM   21  H   UNL     1       8.811  21.623  56.078  1.00  0.00     0.279 HD
HETATM   22  C   UNL     1       7.479  21.384  54.546  1.00  0.00     0.270 C 
HETATM   23  C   UNL     1       8.296  24.379  54.151  1.00  0.00     0.068 C 
HETATM   24  H   UNL     1       4.072  27.428  56.659  1.00  0.00     0.162 HD
ENDBRANCH   5   7
BRANCH   1  25
HETATM   25  O   UNL     1       9.673  28.946  57.506  1.00  0.00    -0.349 OA
BRANCH  25  26
HETATM   26  C   UNL     1      10.541  29.676  56.634  1.00  0.00     0.171 C 
HETATM   27  C   UNL     1      11.716  30.178  57.454  1.00  0.00     0.034 C 
ENDBRANCH  25  26
ENDBRANCH   1  25
BRANCH   2  28
HETATM   28  O   UNL     1       8.569  30.344  59.528  1.00  0.00    -0.272 OA
BRANCH  28  29
HETATM   29  C   UNL     1       8.725  31.713  59.625  1.00  0.00     0.298 C 
HETATM   30  O   UNL     1       9.278  32.471  58.839  1.00  0.00    -0.259 OA
BRANCH  29  31
HETATM   31  C   UNL     1       8.133  32.179  60.899  1.00  0.00     0.040 A 
HETATM   32  C   UNL     1       8.801  31.889  62.094  1.00  0.00     0.019 A 
HETATM   33  C   UNL     1       8.302  32.369  63.307  1.00  0.00     0.020 A 
HETATM   34  C   UNL     1       7.147  33.152  63.317  1.00  0.00     0.011 A 
HETATM   35 BR   UNL     1       6.489  33.827  64.954  1.00  0.00    -0.051 Br
HETATM   36  C   UNL     1       6.482  33.452  62.127  1.00  0.00     0.020 A 
HETATM   37  C   UNL     1       6.972  32.964  60.914  1.00  0.00     0.019 A 
ENDBRANCH  29  31
ENDBRANCH  28  29
ENDBRANCH   2  28
TORSDOF 6
ENDMDL
MODEL 2
REMARK VINA RESULT:      -9.0      4.887      8.943
REMARK  6 active torsions:
REMARK  status: ('A' for Active; 'I' for Inactive)
REMARK    1  A    between atoms: C_2  and  O_3 
REMARK    2  A    between atoms: O_3  and  C_4 
REMARK    3  A    between atoms: C_5  and  O_6 
REMARK    4  A    between atoms: O_6  and  C_7 
REMARK    5  A    between atoms: C_7  and  C_8 
REMARK    6  A    between atoms: C_18  and  C_19 
ROOT
HETATM    1  C   UNL     1       7.108  29.329  56.272  1.00  0.00     0.103 A 
HETATM    2  C   UNL     1       6.682  28.041  55.948  1.00  0.00     0.112 A 
HETATM    3  C   UNL     1       5.359  27.649  56.134  1.00  0.00     0.041 A 
HETATM    4  C   UNL     1       4.418  28.597  56.537  1.00  0.00     0.014 A 
HETATM    5  C   UNL     1       4.791  29.941  56.753  1.00  0.00    -0.013 A 
HETATM    6  C   UNL     1       6.158  30.277  56.660  1.00  0.00     0.050 A 
ENDROOT
BRANCH   5   7
HETATM    7  C   UNL     1       3.699  30.983  57.001  1.00  0.00     0.219 C 
HETATM    8  N   UNL     1       4.191  32.287  57.379  1.00  0.00    -0.332 N 
HETATM    9  C   UNL     1       4.676  33.191  56.466  1.00  0.00     0.256 C 
HETATM   10  H   UNL     1       4.491  32.429  58.331  1.00  0.00     0.165 HD
HETATM   11  O   UNL     1       5.375  34.139  56.803  1.00  0.00    -0.267 OA
HETATM   12  C   UNL     1       4.323  32.921  55.083  1.00  0.00     0.073 A 
HETATM   13  C   UNL     1       3.417  31.919  54.823  1.00  0.00     0.088 A 
HETATM   14  C   UNL     1       4.799  33.528  53.880  1.00  0.00    -0.023 A 
HETATM   15  S   UNL     1       3.087  31.741  53.168  1.00  0.00    -0.074 SA
HETATM   16  N   UNL     1       2.884  31.150  55.802  1.00  0.00    -0.358 N 
HETATM   17  C   UNL     1       4.205  32.961  52.766  1.00  0.00     0.018 A 
HETATM   18  C   UNL     1       4.518  33.312  51.354  1.00  0.00     0.281 C 
HETATM   19  N   UNL     1       5.285  34.628  51.265  1.00  0.00    -0.070 N 
HETATM   20  C   UNL     1       6.378  34.714  52.328  1.00  0.00     0.239 C 
HETATM   21  H   UNL     1       5.763  34.612  50.355  1.00  0.00     0.279 HD
HETATM   22  C   UNL     1       4.378  35.824  51.244  1.00  0.00     0.270 C 
HETATM   23  C   UNL     1       5.810  34.628  53.757  1.00  0.00     0.068 C 
HETATM   24  H   UNL     1       2.395  30.307  55.514  1.00  0.00     0.162 HD
ENDBRANCH   5   7
BRANCH   1  25
HETATM   25  O   UNL     1       8.439  29.612  56.111  1.00  0.00    -0.349 OA
BRANCH  25  26
HETATM   26  C   UNL     1       9.190  29.661  57.328  1.00  0.00     0.171 C 
HETATM   27  C   UNL     1      10.661  29.533  56.976  1.00  0.00     0.034 C 
ENDBRANCH  25  26
ENDBRANCH   1  25
BRANCH   2  28
HETATM   28  O   UNL     1       7.616  27.132  55.449  1.00  0.00    -0.272 OA
BRANCH  28  29
HETATM   29  C   UNL     1       7.356  26.829  54.128  1.00  0.00     0.298 C 
HETATM   30  O   UNL     1       7.070  27.593  53.216  1.00  0.00    -0.259 OA
BRANCH  29  31
HETATM   31  C   UNL     1       7.437  25.363  53.941  1.00  0.00     0.040 A 
HETATM   32  C   UNL     1       7.802  24.866  52.684  1.00  0.00     0.019 A 
HETATM   33  C   UNL     1       7.949  23.490  52.493  1.00  0.00     0.020 A 
HETATM   34  C   UNL     1       7.746  22.619  53.564  1.00  0.00     0.011 A 
HETATM   35 BR   UNL     1       7.975  20.760  53.313  1.00  0.00    -0.051 Br
HETATM   36  C   UNL     1       7.391  23.109  54.821  1.00  0.00     0.020 A 
HETATM   37  C   UNL     1       7.233  24.483  55.013  1.00  0.00     0.019 A 
ENDBRANCH  29  31
ENDBRANCH  28  29
ENDBRANCH   2  28
TORSDOF 6
ENDMDL
MODEL 3
REMARK VINA RESULT:      -8.9      6.118      9.700
REMARK  6 active torsions:
REMARK  status: ('A' for Active; 'I' for Inactive)
REMARK    1  A    between atoms: C_2  and  O_3 
REMARK    2  A    between atoms: O_3  and  C_4 
REMARK    3  A    between atoms: C_5  and  O_6 
REMARK    4  A    between atoms: O_6  and  C_7 
REMARK    5  A    between atoms: C_7  and  C_8 
REMARK    6  A    between atoms: C_18  and  C_19 
ROOT
HETATM    1  C   UNL     1       5.348  27.421  53.170  1.00  0.00     0.103 A 
HETATM    2  C   UNL     1       5.252  26.146  53.729  1.00  0.00     0.112 A 
HETATM    3  C   UNL     1       4.857  25.051  52.966  1.00  0.00     0.041 A 
HETATM    4  C   UNL     1       4.669  25.210  51.593  1.00  0.00     0.014 A 
HETATM    5  C   UNL     1       4.879  26.460  50.972  1.00  0.00    -0.013 A 
HETATM    6  C   UNL     1       5.174  27.570  51.792  1.00  0.00     0.050 A 
ENDROOT
BRANCH   5   7
HETATM    7  C   UNL     1       4.854  26.544  49.446  1.00  0.00     0.219 C 
HETATM    8  N   UNL     1       3.534  26.459  48.863  1.00  0.00    -0.332 N 
HETATM    9  C   UNL     1       2.674  27.528  48.815  1.00  0.00     0.256 C 
HETATM   10  H   UNL     1       3.103  25.551  48.784  1.00  0.00     0.165 HD
HETATM   11  O   UNL     1       1.472  27.384  48.625  1.00  0.00    -0.267 OA
HETATM   12  C   UNL     1       3.289  28.827  49.032  1.00  0.00     0.073 A 
HETATM   13  C   UNL     1       4.662  28.898  49.092  1.00  0.00     0.088 A 
HETATM   14  C   UNL     1       2.685  30.106  49.234  1.00  0.00    -0.023 A 
HETATM   15  S   UNL     1       5.232  30.479  49.323  1.00  0.00    -0.074 SA
HETATM   16  N   UNL     1       5.450  27.800  49.003  1.00  0.00    -0.358 N 
HETATM   17  C   UNL     1       3.644  31.087  49.416  1.00  0.00     0.018 A 
HETATM   18  C   UNL     1       3.361  32.518  49.712  1.00  0.00     0.281 C 
HETATM   19  N   UNL     1       1.905  32.870  49.422  1.00  0.00    -0.070 N 
HETATM   20  C   UNL     1       0.954  31.788  49.928  1.00  0.00     0.239 C 
HETATM   21  H   UNL     1       1.706  33.714  49.972  1.00  0.00     0.279 HD
HETATM   22  C   UNL     1       1.678  33.239  47.984  1.00  0.00     0.270 C 
HETATM   23  C   UNL     1       1.220  30.422  49.269  1.00  0.00     0.068 C 
HETATM   24  H   UNL     1       6.426  27.909  49.265  1.00  0.00     0.162 HD
ENDBRANCH   5   7
BRANCH   1  25
HETATM   25  O   UNL     1       5.689  28.451  54.007  1.00  0.00    -0.349 OA
BRANCH  25  26
HETATM   26  C   UNL     1       4.632  29.376  54.279  1.00  0.00     0.171 C 
HETATM   27  C   UNL     1       4.138  29.123  55.691  1.00  0.00     0.034 C 
ENDBRANCH  25  26
ENDBRANCH   1  25
BRANCH   2  28
HETATM   28  O   UNL     1       5.542  25.985  55.085  1.00  0.00    -0.272 OA
BRANCH  28  29
HETATM   29  C   UNL     1       6.903  25.880  55.291  1.00  0.00     0.298 C 
HETATM   30  O   UNL     1       7.662  26.704  55.782  1.00  0.00    -0.259 OA
BRANCH  29  31
HETATM   31  C   UNL     1       7.371  24.572  54.780  1.00  0.00     0.040 A 
HETATM   32  C   UNL     1       7.121  23.426  55.545  1.00  0.00     0.019 A 
HETATM   33  C   UNL     1       7.493  22.169  55.061  1.00  0.00     0.020 A 
HETATM   34  C   UNL     1       8.099  22.064  53.809  1.00  0.00     0.011 A 
HETATM   35 BR   UNL     1       8.576  20.361  53.141  1.00  0.00    -0.051 Br
HETATM   36  C   UNL     1       8.344  23.202  53.039  1.00  0.00     0.020 A 
HETATM   37  C   UNL     1       7.982  24.460  53.524  1.00  0.00     0.019 A 
ENDBRANCH  29  31
ENDBRANCH  28  29
ENDBRANCH   2  28
TORSDOF 6
ENDMDL
MODEL 4
REMARK VINA RESULT:      -8.8      7.000     10.247
REMARK  6 active torsions:
REMARK  status: ('A' for Active; 'I' for Inactive)
REMARK    1  A    between atoms: C_2  and  O_3 
REMARK    2  A    between atoms: O_3  and  C_4 
REMARK    3  A    between atoms: C_5  and  O_6 
REMARK    4  A    between atoms: O_6  and  C_7 
REMARK    5  A    between atoms: C_7  and  C_8 
REMARK    6  A    between atoms: C_18  and  C_19 
ROOT
HETATM    1  C   UNL     1       4.937  26.850  51.155  1.00  0.00     0.103 A 
HETATM    2  C   UNL     1       5.357  26.254  52.344  1.00  0.00     0.112 A 
HETATM    3  C   UNL     1       5.464  26.989  53.522  1.00  0.00     0.041 A 
HETATM    4  C   UNL     1       5.028  28.314  53.540  1.00  0.00     0.014 A 
HETATM    5  C   UNL     1       4.480  28.912  52.385  1.00  0.00    -0.013 A 
HETATM    6  C   UNL     1       4.487  28.172  51.184  1.00  0.00     0.050 A 
ENDROOT
BRANCH   5   7
HETATM    7  C   UNL     1       3.836  30.294  52.500  1.00  0.00     0.219 C 
HETATM    8  N   UNL     1       4.654  31.378  52.006  1.00  0.00    -0.332 N 
HETATM    9  C   UNL     1       4.765  31.675  50.669  1.00  0.00     0.256 C 
HETATM   10  H   UNL     1       5.403  31.718  52.589  1.00  0.00     0.165 HD
HETATM   11  O   UNL     1       5.681  32.360  50.232  1.00  0.00    -0.267 OA
HETATM   12  C   UNL     1       3.737  31.095  49.821  1.00  0.00     0.073 A 
HETATM   13  C   UNL     1       2.673  30.463  50.422  1.00  0.00     0.088 A 
HETATM   14  C   UNL     1       3.649  31.038  48.396  1.00  0.00    -0.023 A 
HETATM   15  S   UNL     1       1.545  29.862  49.305  1.00  0.00    -0.074 SA
HETATM   16  N   UNL     1       2.576  30.323  51.766  1.00  0.00    -0.358 N 
HETATM   17  C   UNL     1       2.500  30.379  47.994  1.00  0.00     0.018 A 
HETATM   18  C   UNL     1       2.128  30.088  46.582  1.00  0.00     0.281 C 
HETATM   19  N   UNL     1       2.953  30.922  45.606  1.00  0.00    -0.070 N 
HETATM   20  C   UNL     1       4.425  30.966  46.009  1.00  0.00     0.239 C 
HETATM   21  H   UNL     1       2.910  30.424  44.708  1.00  0.00     0.279 HD
HETATM   22  C   UNL     1       2.359  32.280  45.365  1.00  0.00     0.270 C 
HETATM   23  C   UNL     1       4.630  31.585  47.404  1.00  0.00     0.068 C 
HETATM   24  H   UNL     1       1.880  29.670  52.114  1.00  0.00     0.162 HD
ENDBRANCH   5   7
BRANCH   1  25
HETATM   25  O   UNL     1       4.916  26.067  50.031  1.00  0.00    -0.349 OA
BRANCH  25  26
HETATM   26  C   UNL     1       4.210  26.631  48.922  1.00  0.00     0.171 C 
HETATM   27  C   UNL     1       3.342  25.543  48.316  1.00  0.00     0.034 C 
ENDBRANCH  25  26
ENDBRANCH   1  25
BRANCH   2  28
HETATM   28  O   UNL     1       5.695  24.900  52.332  1.00  0.00    -0.272 OA
BRANCH  28  29
HETATM   29  C   UNL     1       7.062  24.729  52.422  1.00  0.00     0.298 C 
HETATM   30  O   UNL     1       7.942  25.320  51.812  1.00  0.00    -0.259 OA
BRANCH  29  31
HETATM   31  C   UNL     1       7.352  23.646  53.389  1.00  0.00     0.040 A 
HETATM   32  C   UNL     1       7.896  22.449  52.910  1.00  0.00     0.019 A 
HETATM   33  C   UNL     1       8.241  21.432  53.804  1.00  0.00     0.020 A 
HETATM   34  C   UNL     1       8.055  21.624  55.173  1.00  0.00     0.011 A 
HETATM   35 BR   UNL     1       8.550  20.260  56.384  1.00  0.00    -0.051 Br
HETATM   36  C   UNL     1       7.521  22.819  55.657  1.00  0.00     0.020 A 
HETATM   37  C   UNL     1       7.166  23.834  54.766  1.00  0.00     0.019 A 
ENDBRANCH  29  31
ENDBRANCH  28  29
ENDBRANCH   2  28
TORSDOF 6
ENDMDL
MODEL 5
REMARK VINA RESULT:      -8.8      5.287      9.852
REMARK  6 active torsions:
REMARK  status: ('A' for Active; 'I' for Inactive)
REMARK    1  A    between atoms: C_2  and  O_3 
REMARK    2  A    between atoms: O_3  and  C_4 
REMARK    3  A    between atoms: C_5  and  O_6 
REMARK    4  A    between atoms: O_6  and  C_7 
REMARK    5  A    between atoms: C_7  and  C_8 
REMARK    6  A    between atoms: C_18  and  C_19 
ROOT
HETATM    1  C   UNL     1       4.951  27.605  52.193  1.00  0.00     0.103 A 
HETATM    2  C   UNL     1       5.504  26.761  51.230  1.00  0.00     0.112 A 
HETATM    3  C   UNL     1       6.147  25.579  51.588  1.00  0.00     0.041 A 
HETATM    4  C   UNL     1       6.132  25.173  52.923  1.00  0.00     0.014 A 
HETATM    5  C   UNL     1       5.473  25.941  53.906  1.00  0.00    -0.013 A 
HETATM    6  C   UNL     1       4.926  27.184  53.525  1.00  0.00     0.050 A 
ENDROOT
BRANCH   5   7
HETATM    7  C   UNL     1       5.312  25.364  55.313  1.00  0.00     0.219 C 
HETATM    8  N   UNL     1       6.549  24.949  55.934  1.00  0.00    -0.332 N 
HETATM    9  C   UNL     1       7.415  25.835  56.528  1.00  0.00     0.256 C 
HETATM   10  H   UNL     1       6.953  24.068  55.658  1.00  0.00     0.165 HD
HETATM   11  O   UNL     1       8.582  25.542  56.759  1.00  0.00    -0.267 OA
HETATM   12  C   UNL     1       6.853  27.140  56.830  1.00  0.00     0.073 A 
HETATM   13  C   UNL     1       5.499  27.323  56.666  1.00  0.00     0.088 A 
HETATM   14  C   UNL     1       7.499  28.339  57.263  1.00  0.00    -0.023 A 
HETATM   15  S   UNL     1       4.989  28.887  57.082  1.00  0.00    -0.074 SA
HETATM   16  N   UNL     1       4.687  26.349  56.190  1.00  0.00    -0.358 N 
HETATM   17  C   UNL     1       6.586  29.367  57.425  1.00  0.00     0.018 A 
HETATM   18  C   UNL     1       6.927  30.765  57.806  1.00  0.00     0.281 C 
HETATM   19  N   UNL     1       8.342  30.859  58.368  1.00  0.00    -0.070 N 
HETATM   20  C   UNL     1       9.330  30.035  57.546  1.00  0.00     0.239 C 
HETATM   21  H   UNL     1       8.621  31.842  58.260  1.00  0.00     0.279 HD
HETATM   22  C   UNL     1       8.398  30.564  59.839  1.00  0.00     0.270 C 
HETATM   23  C   UNL     1       8.962  28.540  57.519  1.00  0.00     0.068 C 
HETATM   24  H   UNL     1       3.753  26.624  55.902  1.00  0.00     0.162 HD
ENDBRANCH   5   7
BRANCH   1  25
HETATM   25  O   UNL     1       4.388  28.775  51.756  1.00  0.00    -0.349 OA
BRANCH  25  26
HETATM   26  C   UNL     1       3.007  28.935  52.094  1.00  0.00     0.171 C 
HETATM   27  C   UNL     1       2.384  29.884  51.086  1.00  0.00     0.034 C 
ENDBRANCH  25  26
ENDBRANCH   1  25
BRANCH   2  28
HETATM   28  O   UNL     1       5.422  27.132  49.887  1.00  0.00    -0.272 OA
BRANCH  28  29
HETATM   29  C   UNL     1       4.317  26.566  49.283  1.00  0.00     0.298 C 
HETATM   30  O   UNL     1       3.970  25.393  49.285  1.00  0.00    -0.259 OA
BRANCH  29  31
HETATM   31  C   UNL     1       3.571  27.616  48.554  1.00  0.00     0.040 A 
HETATM   32  C   UNL     1       4.273  28.734  48.088  1.00  0.00     0.019 A 
HETATM   33  C   UNL     1       3.610  29.712  47.341  1.00  0.00     0.020 A 
HETATM   34  C   UNL     1       2.255  29.558  47.051  1.00  0.00     0.011 A 
HETATM   35 BR   UNL     1       1.366  30.865  46.015  1.00  0.00    -0.051 Br
HETATM   36  C   UNL     1       1.552  28.441  47.506  1.00  0.00     0.020 A 
HETATM   37  C   UNL     1       2.209  27.467  48.261  1.00  0.00     0.019 A 
ENDBRANCH  29  31
ENDBRANCH  28  29
ENDBRANCH   2  28
TORSDOF 6
ENDMDL
MODEL 6
REMARK VINA RESULT:      -8.7      5.538      9.597
REMARK  6 active torsions:
REMARK  status: ('A' for Active; 'I' for Inactive)
REMARK    1  A    between atoms: C_2  and  O_3 
REMARK    2  A    between atoms: O_3  and  C_4 
REMARK    3  A    between atoms: C_5  and  O_6 
REMARK    4  A    between atoms: O_6  and  C_7 
REMARK    5  A    between atoms: C_7  and  C_8 
REMARK    6  A    between atoms: C_18  and  C_19 
ROOT
HETATM    1  C   UNL     1       5.247  27.764  54.202  1.00  0.00     0.103 A 
HETATM    2  C   UNL     1       6.422  27.766  54.954  1.00  0.00     0.112 A 
HETATM    3  C   UNL     1       6.733  28.824  55.804  1.00  0.00     0.041 A 
HETATM    4  C   UNL     1       5.797  29.840  55.998  1.00  0.00     0.014 A 
HETATM    5  C   UNL     1       4.544  29.805  55.349  1.00  0.00    -0.013 A 
HETATM    6  C   UNL     1       4.307  28.776  54.413  1.00  0.00     0.050 A 
ENDROOT
BRANCH   5   7
HETATM    7  C   UNL     1       3.477  30.829  55.739  1.00  0.00     0.219 C 
HETATM    8  N   UNL     1       3.984  31.977  56.454  1.00  0.00    -0.332 N 
HETATM    9  C   UNL     1       4.594  33.034  55.824  1.00  0.00     0.256 C 
HETATM   10  H   UNL     1       4.195  31.877  57.435  1.00  0.00     0.165 HD
HETATM   11  O   UNL     1       5.295  33.833  56.432  1.00  0.00    -0.267 OA
HETATM   12  C   UNL     1       4.368  33.112  54.391  1.00  0.00     0.073 A 
HETATM   13  C   UNL     1       3.451  32.256  53.826  1.00  0.00     0.088 A 
HETATM   14  C   UNL     1       4.984  33.948  53.409  1.00  0.00    -0.023 A 
HETATM   15  S   UNL     1       3.278  32.484  52.153  1.00  0.00    -0.074 SA
HETATM   16  N   UNL     1       2.793  31.318  54.547  1.00  0.00    -0.358 N 
HETATM   17  C   UNL     1       4.480  33.690  52.146  1.00  0.00     0.018 A 
HETATM   18  C   UNL     1       4.945  34.336  50.889  1.00  0.00     0.281 C 
HETATM   19  N   UNL     1       5.772  35.585  51.177  1.00  0.00    -0.070 N 
HETATM   20  C   UNL     1       6.757  35.356  52.321  1.00  0.00     0.239 C 
HETATM   21  H   UNL     1       6.336  35.748  50.334  1.00  0.00     0.279 HD
HETATM   22  C   UNL     1       4.921  36.809  51.359  1.00  0.00     0.270 C 
HETATM   23  C   UNL     1       6.048  34.980  53.635  1.00  0.00     0.068 C 
HETATM   24  H   UNL     1       2.300  30.597  54.029  1.00  0.00     0.162 HD
ENDBRANCH   5   7
BRANCH   1  25
HETATM   25  O   UNL     1       5.048  26.711  53.348  1.00  0.00    -0.349 OA
BRANCH  25  26
HETATM   26  C   UNL     1       4.984  27.068  51.964  1.00  0.00     0.171 C 
HETATM   27  C   UNL     1       5.350  25.843  51.146  1.00  0.00     0.034 C 
ENDBRANCH  25  26
ENDBRANCH   1  25
BRANCH   2  28
HETATM   28  O   UNL     1       7.303  26.691  54.824  1.00  0.00    -0.272 OA
BRANCH  28  29
HETATM   29  C   UNL     1       6.954  25.660  55.673  1.00  0.00     0.298 C 
HETATM   30  O   UNL     1       6.489  25.732  56.803  1.00  0.00    -0.259 OA
BRANCH  29  31
HETATM   31  C   UNL     1       7.263  24.369  55.020  1.00  0.00     0.040 A 
HETATM   32  C   UNL     1       7.573  24.366  53.655  1.00  0.00     0.019 A 
HETATM   33  C   UNL     1       7.931  23.172  53.023  1.00  0.00     0.020 A 
HETATM   34  C   UNL     1       7.994  21.992  53.763  1.00  0.00     0.011 A 
HETATM   35 BR   UNL     1       8.508  20.382  52.916  1.00  0.00    -0.051 Br
HETATM   36  C   UNL     1       7.695  21.990  55.127  1.00  0.00     0.020 A 
HETATM   37  C   UNL     1       7.326  23.179  55.759  1.00  0.00     0.019 A 
ENDBRANCH  29  31
ENDBRANCH  28  29
ENDBRANCH   2  28
TORSDOF 6
ENDMDL
MODEL 7
REMARK VINA RESULT:      -8.5      5.177      8.775
REMARK  6 active torsions:
REMARK  status: ('A' for Active; 'I' for Inactive)
REMARK    1  A    between atoms: C_2  and  O_3 
REMARK    2  A    between atoms: O_3  and  C_4 
REMARK    3  A    between atoms: C_5  and  O_6 
REMARK    4  A    between atoms: O_6  and  C_7 
REMARK    5  A    between atoms: C_7  and  C_8 
REMARK    6  A    between atoms: C_18  and  C_19 
ROOT
HETATM    1  C   UNL     1       6.911  29.130  55.697  1.00  0.00     0.103 A 
HETATM    2  C   UNL     1       6.568  27.920  55.093  1.00  0.00     0.112 A 
HETATM    3  C   UNL     1       5.254  27.646  54.721  1.00  0.00     0.041 A 
HETATM    4  C   UNL     1       4.289  28.645  54.844  1.00  0.00     0.014 A 
HETATM    5  C   UNL     1       4.628  29.924  55.335  1.00  0.00    -0.013 A 
HETATM    6  C   UNL     1       5.943  30.131  55.802  1.00  0.00     0.050 A 
ENDROOT
BRANCH   5   7
HETATM    7  C   UNL     1       3.588  31.043  55.270  1.00  0.00     0.219 C 
HETATM    8  N   UNL     1       4.145  32.373  55.183  1.00  0.00    -0.332 N 
HETATM    9  C   UNL     1       4.615  32.906  54.007  1.00  0.00     0.256 C 
HETATM   10  H   UNL     1       4.499  32.801  56.024  1.00  0.00     0.165 HD
HETATM   11  O   UNL     1       5.364  33.875  53.989  1.00  0.00    -0.267 OA
HETATM   12  C   UNL     1       4.182  32.220  52.802  1.00  0.00     0.073 A 
HETATM   13  C   UNL     1       3.229  31.234  52.917  1.00  0.00     0.088 A 
HETATM   14  C   UNL     1       4.616  32.378  51.450  1.00  0.00    -0.023 A 
HETATM   15  S   UNL     1       2.807  30.546  51.424  1.00  0.00    -0.074 SA
HETATM   16  N   UNL     1       2.720  30.853  54.113  1.00  0.00    -0.358 N 
HETATM   17  C   UNL     1       3.947  31.510  50.605  1.00  0.00     0.018 A 
HETATM   18  C   UNL     1       4.198  31.368  49.146  1.00  0.00     0.281 C 
HETATM   19  N   UNL     1       5.007  32.543  48.603  1.00  0.00    -0.070 N 
HETATM   20  C   UNL     1       6.155  32.915  49.539  1.00  0.00     0.239 C 
HETATM   21  H   UNL     1       5.437  32.208  47.732  1.00  0.00     0.279 HD
HETATM   22  C   UNL     1       4.143  33.711  48.226  1.00  0.00     0.270 C 
HETATM   23  C   UNL     1       5.659  33.326  50.937  1.00  0.00     0.068 C 
HETATM   24  H   UNL     1       2.187  29.988  54.134  1.00  0.00     0.162 HD
ENDBRANCH   5   7
BRANCH   1  25
HETATM   25  O   UNL     1       8.216  29.293  56.082  1.00  0.00    -0.349 OA
BRANCH  25  26
HETATM   26  C   UNL     1       8.439  29.197  57.492  1.00  0.00     0.171 C 
HETATM   27  C   UNL     1       9.599  30.109  57.847  1.00  0.00     0.034 C 
ENDBRANCH  25  26
ENDBRANCH   1  25
BRANCH   2  28
HETATM   28  O   UNL     1       7.567  26.968  54.884  1.00  0.00    -0.272 OA
BRANCH  28  29
HETATM   29  C   UNL     1       7.428  25.906  55.755  1.00  0.00     0.298 C 
HETATM   30  O   UNL     1       7.157  25.933  56.948  1.00  0.00    -0.259 OA
BRANCH  29  31
HETATM   31  C   UNL     1       7.700  24.645  55.029  1.00  0.00     0.040 A 
HETATM   32  C   UNL     1       8.365  23.614  55.703  1.00  0.00     0.019 A 
HETATM   33  C   UNL     1       8.580  22.388  55.067  1.00  0.00     0.020 A 
HETATM   34  C   UNL     1       8.115  22.196  53.766  1.00  0.00     0.011 A 
HETATM   35 BR   UNL     1       8.379  20.528  52.917  1.00  0.00    -0.051 Br
HETATM   36  C   UNL     1       7.444  23.217  53.092  1.00  0.00     0.020 A 
HETATM   37  C   UNL     1       7.237  24.446  53.721  1.00  0.00     0.019 A 
ENDBRANCH  29  31
ENDBRANCH  28  29
ENDBRANCH   2  28
TORSDOF 6
ENDMDL
MODEL 8
REMARK VINA RESULT:      -8.4      5.865     10.690
REMARK  6 active torsions:
REMARK  status: ('A' for Active; 'I' for Inactive)
REMARK    1  A    between atoms: C_2  and  O_3 
REMARK    2  A    between atoms: O_3  and  C_4 
REMARK    3  A    between atoms: C_5  and  O_6 
REMARK    4  A    between atoms: O_6  and  C_7 
REMARK    5  A    between atoms: C_7  and  C_8 
REMARK    6  A    between atoms: C_18  and  C_19 
ROOT
HETATM    1  C   UNL     1       6.517  32.392  61.173  1.00  0.00     0.103 A 
HETATM    2  C   UNL     1       7.677  31.782  61.653  1.00  0.00     0.112 A 
HETATM    3  C   UNL     1       8.253  32.172  62.859  1.00  0.00     0.041 A 
HETATM    4  C   UNL     1       7.592  33.105  63.658  1.00  0.00     0.014 A 
HETATM    5  C   UNL     1       6.352  33.650  63.262  1.00  0.00    -0.013 A 
HETATM    6  C   UNL     1       5.853  33.313  61.987  1.00  0.00     0.050 A 
ENDROOT
BRANCH   5   7
HETATM    7  C   UNL     1       5.571  34.514  64.253  1.00  0.00     0.219 C 
HETATM    8  N   UNL     1       6.051  35.872  64.370  1.00  0.00    -0.332 N 
HETATM    9  C   UNL     1       5.739  36.851  63.458  1.00  0.00     0.256 C 
HETATM   10  H   UNL     1       6.875  36.044  64.925  1.00  0.00     0.165 HD
HETATM   11  O   UNL     1       6.386  37.888  63.374  1.00  0.00    -0.267 OA
HETATM   12  C   UNL     1       4.612  36.550  62.592  1.00  0.00     0.073 A 
HETATM   13  C   UNL     1       3.862  35.428  62.859  1.00  0.00     0.088 A 
HETATM   14  C   UNL     1       4.138  37.238  61.432  1.00  0.00    -0.023 A 
HETATM   15  S   UNL     1       2.568  35.226  61.780  1.00  0.00    -0.074 SA
HETATM   16  N   UNL     1       4.166  34.575  63.866  1.00  0.00    -0.358 N 
HETATM   17  C   UNL     1       3.032  36.603  60.893  1.00  0.00     0.018 A 
HETATM   18  C   UNL     1       2.327  37.016  59.649  1.00  0.00     0.281 C 
HETATM   19  N   UNL     1       2.715  38.433  59.234  1.00  0.00    -0.070 N 
HETATM   20  C   UNL     1       4.218  38.666  59.368  1.00  0.00     0.239 C 
HETATM   21  H   UNL     1       2.497  38.500  58.232  1.00  0.00     0.279 HD
HETATM   22  C   UNL     1       1.886  39.481  59.918  1.00  0.00     0.270 C 
HETATM   23  C   UNL     1       4.712  38.477  60.814  1.00  0.00     0.068 C 
HETATM   24  H   UNL     1       3.698  33.673  63.866  1.00  0.00     0.162 HD
ENDBRANCH   5   7
BRANCH   1  25
HETATM   25  O   UNL     1       6.051  31.985  59.951  1.00  0.00    -0.349 OA
BRANCH  25  26
HETATM   26  C   UNL     1       5.064  32.844  59.372  1.00  0.00     0.171 C 
HETATM   27  C   UNL     1       3.839  32.005  59.056  1.00  0.00     0.034 C 
ENDBRANCH  25  26
ENDBRANCH   1  25
BRANCH   2  28
HETATM   28  O   UNL     1       8.272  30.778  60.887  1.00  0.00    -0.272 OA
BRANCH  28  29
HETATM   29  C   UNL     1       9.093  31.316  59.916  1.00  0.00     0.298 C 
HETATM   30  O   UNL     1       9.834  32.285  60.002  1.00  0.00    -0.259 OA
BRANCH  29  31
HETATM   31  C   UNL     1       8.930  30.546  58.663  1.00  0.00     0.040 A 
HETATM   32  C   UNL     1       7.669  30.020  58.358  1.00  0.00     0.019 A 
HETATM   33  C   UNL     1       7.468  29.343  57.152  1.00  0.00     0.020 A 
HETATM   34  C   UNL     1       8.524  29.210  56.251  1.00  0.00     0.011 A 
HETATM   35 BR   UNL     1       8.244  28.321  54.607  1.00  0.00    -0.051 Br
HETATM   36  C   UNL     1       9.782  29.739  56.546  1.00  0.00     0.020 A 
HETATM   37  C   UNL     1       9.989  30.408  57.754  1.00  0.00     0.019 A 
ENDBRANCH  29  31
ENDBRANCH  28  29
ENDBRANCH   2  28
TORSDOF 6
ENDMDL
MODEL 9
REMARK VINA RESULT:      -8.3      6.274      9.732
REMARK  6 active torsions:
REMARK  status: ('A' for Active; 'I' for Inactive)
REMARK    1  A    between atoms: C_2  and  O_3 
REMARK    2  A    between atoms: O_3  and  C_4 
REMARK    3  A    between atoms: C_5  and  O_6 
REMARK    4  A    between atoms: O_6  and  C_7 
REMARK    5  A    between atoms: C_7  and  C_8 
REMARK    6  A    between atoms: C_18  and  C_19 
ROOT
HETATM    1  C   UNL     1       5.112  26.191  53.729  1.00  0.00     0.103 A 
HETATM    2  C   UNL     1       5.464  25.727  52.461  1.00  0.00     0.112 A 
HETATM    3  C   UNL     1       5.206  26.480  51.319  1.00  0.00     0.041 A 
HETATM    4  C   UNL     1       4.697  27.772  51.456  1.00  0.00     0.014 A 
HETATM    5  C   UNL     1       4.447  28.321  52.732  1.00  0.00    -0.013 A 
HETATM    6  C   UNL     1       4.618  27.491  53.860  1.00  0.00     0.050 A 
ENDROOT
BRANCH   5   7
HETATM    7  C   UNL     1       4.078  29.801  52.843  1.00  0.00     0.219 C 
HETATM    8  N   UNL     1       5.015  30.700  52.210  1.00  0.00    -0.332 N 
HETATM    9  C   UNL     1       5.024  30.929  50.856  1.00  0.00     0.256 C 
HETATM   10  H   UNL     1       5.874  30.915  52.692  1.00  0.00     0.165 HD
HETATM   11  O   UNL     1       5.993  31.421  50.289  1.00  0.00    -0.267 OA
HETATM   12  C   UNL     1       3.820  30.521  50.152  1.00  0.00     0.073 A 
HETATM   13  C   UNL     1       2.735  30.114  50.894  1.00  0.00     0.088 A 
HETATM   14  C   UNL     1       3.561  30.436  48.749  1.00  0.00    -0.023 A 
HETATM   15  S   UNL     1       1.399  29.695  49.936  1.00  0.00    -0.074 SA
HETATM   16  N   UNL     1       2.768  30.037  52.246  1.00  0.00    -0.358 N 
HETATM   17  C   UNL     1       2.276  29.986  48.505  1.00  0.00     0.018 A 
HETATM   18  C   UNL     1       1.700  29.724  47.159  1.00  0.00     0.281 C 
HETATM   19  N   UNL     1       2.544  30.361  46.058  1.00  0.00    -0.070 N 
HETATM   20  C   UNL     1       4.036  30.148  46.300  1.00  0.00     0.239 C 
HETATM   21  H   UNL     1       2.311  29.852  45.197  1.00  0.00     0.279 HD
HETATM   22  C   UNL     1       2.179  31.797  45.811  1.00  0.00     0.270 C 
HETATM   23  C   UNL     1       4.506  30.762  47.632  1.00  0.00     0.068 C 
HETATM   24  H   UNL     1       2.011  29.534  52.700  1.00  0.00     0.162 HD
ENDBRANCH   5   7
BRANCH   1  25
HETATM   25  O   UNL     1       5.351  25.360  54.792  1.00  0.00    -0.349 OA
BRANCH  25  26
HETATM   26  C   UNL     1       5.274  25.992  56.074  1.00  0.00     0.171 C 
HETATM   27  C   UNL     1       6.690  26.211  56.575  1.00  0.00     0.034 C 
ENDBRANCH  25  26
ENDBRANCH   1  25
BRANCH   2  28
HETATM   28  O   UNL     1       6.065  24.472  52.350  1.00  0.00    -0.272 OA
BRANCH  28  29
HETATM   29  C   UNL     1       7.437  24.569  52.467  1.00  0.00     0.298 C 
HETATM   30  O   UNL     1       8.189  25.378  51.940  1.00  0.00    -0.259 OA
BRANCH  29  31
HETATM   31  C   UNL     1       7.928  23.479  53.341  1.00  0.00     0.040 A 
HETATM   32  C   UNL     1       8.408  23.807  54.614  1.00  0.00     0.019 A 
HETATM   33  C   UNL     1       8.819  22.795  55.487  1.00  0.00     0.020 A 
HETATM   34  C   UNL     1       8.731  21.462  55.087  1.00  0.00     0.011 A 
HETATM   35 BR   UNL     1       9.258  20.092  56.278  1.00  0.00    -0.051 Br
HETATM   36  C   UNL     1       8.246  21.129  53.821  1.00  0.00     0.020 A 
HETATM   37  C   UNL     1       7.844  22.138  52.943  1.00  0.00     0.019 A 
ENDBRANCH  29  31
ENDBRANCH  28  29
ENDBRANCH   2  28
TORSDOF 6
ENDMDL
MODEL 10
REMARK VINA RESULT:      -8.3      7.477     10.738
REMARK  6 active torsions:
REMARK  status: ('A' for Active; 'I' for Inactive)
REMARK    1  A    between atoms: C_2  and  O_3 
REMARK    2  A    between atoms: O_3  and  C_4 
REMARK    3  A    between atoms: C_5  and  O_6 
REMARK    4  A    between atoms: O_6  and  C_7 
REMARK    5  A    between atoms: C_7  and  C_8 
REMARK    6  A    between atoms: C_18  and  C_19 
ROOT
HETATM    1  C   UNL     1       4.725  27.224  50.368  1.00  0.00     0.103 A 
HETATM    2  C   UNL     1       5.547  27.082  51.486  1.00  0.00     0.112 A 
HETATM    3  C   UNL     1       5.735  28.130  52.383  1.00  0.00     0.041 A 
HETATM    4  C   UNL     1       4.994  29.301  52.227  1.00  0.00     0.014 A 
HETATM    5  C   UNL     1       4.058  29.432  51.178  1.00  0.00    -0.013 A 
HETATM    6  C   UNL     1       3.973  28.394  50.227  1.00  0.00     0.050 A 
ENDROOT
BRANCH   5   7
HETATM    7  C   UNL     1       3.131  30.648  51.160  1.00  0.00     0.219 C 
HETATM    8  N   UNL     1       3.721  31.859  51.682  1.00  0.00    -0.332 N 
HETATM    9  C   UNL     1       4.570  32.648  50.945  1.00  0.00     0.256 C 
HETATM   10  H   UNL     1       3.785  31.969  52.682  1.00  0.00     0.165 HD
HETATM   11  O   UNL     1       5.307  33.472  51.472  1.00  0.00    -0.267 OA
HETATM   12  C   UNL     1       4.545  32.411  49.512  1.00  0.00     0.073 A 
HETATM   13  C   UNL     1       3.582  31.570  49.004  1.00  0.00     0.088 A 
HETATM   14  C   UNL     1       5.410  32.903  48.486  1.00  0.00    -0.023 A 
HETATM   15  S   UNL     1       3.664  31.414  47.316  1.00  0.00    -0.074 SA
HETATM   16  N   UNL     1       2.693  30.923  49.795  1.00  0.00    -0.358 N 
HETATM   17  C   UNL     1       5.037  32.419  47.244  1.00  0.00     0.018 A 
HETATM   18  C   UNL     1       5.757  32.682  45.969  1.00  0.00     0.281 C 
HETATM   19  N   UNL     1       6.732  33.848  46.110  1.00  0.00    -0.070 N 
HETATM   20  C   UNL     1       7.512  33.773  47.421  1.00  0.00     0.239 C 
HETATM   21  H   UNL     1       7.418  33.732  45.355  1.00  0.00     0.279 HD
HETATM   22  C   UNL     1       6.075  35.179  45.883  1.00  0.00     0.270 C 
HETATM   23  C   UNL     1       6.589  33.814  48.653  1.00  0.00     0.068 C 
HETATM   24  H   UNL     1       2.160  30.169  49.372  1.00  0.00     0.162 HD
ENDBRANCH   5   7
BRANCH   1  25
HETATM   25  O   UNL     1       4.642  26.161  49.508  1.00  0.00    -0.349 OA
BRANCH  25  26
HETATM   26  C   UNL     1       4.077  26.470  48.230  1.00  0.00     0.171 C 
HETATM   27  C   UNL     1       3.169  25.321  47.829  1.00  0.00     0.034 C 
ENDBRANCH  25  26
ENDBRANCH   1  25
BRANCH   2  28
HETATM   28  O   UNL     1       6.205  25.866  51.684  1.00  0.00    -0.272 OA
BRANCH  28  29
HETATM   29  C   UNL     1       5.532  25.083  52.599  1.00  0.00     0.298 C 
HETATM   30  O   UNL     1       4.339  25.084  52.868  1.00  0.00    -0.259 OA
BRANCH  29  31
HETATM   31  C   UNL     1       6.502  24.203  53.290  1.00  0.00     0.040 A 
HETATM   32  C   UNL     1       6.445  24.109  54.686  1.00  0.00     0.019 A 
HETATM   33  C   UNL     1       7.305  23.239  55.362  1.00  0.00     0.020 A 
HETATM   34  C   UNL     1       8.204  22.457  54.638  1.00  0.00     0.011 A 
HETATM   35 BR   UNL     1       9.346  21.258  55.551  1.00  0.00    -0.051 Br
HETATM   36  C   UNL     1       8.260  22.540  53.246  1.00  0.00     0.020 A 
HETATM   37  C   UNL     1       7.409  23.416  52.568  1.00  0.00     0.019 A 
ENDBRANCH  29  31
ENDBRANCH  28  29
ENDBRANCH   2  28
TORSDOF 6
ENDMDL
