MODEL 1
REMARK VINA RESULT:     -10.6      0.000      0.000
REMARK  9 active torsions:
REMARK  status: ('A' for Active; 'I' for Inactive)
REMARK    1  A    between atoms: C_2  and  N_3 
REMARK    2  A    between atoms: C_2  and  C_11 
REMARK    3  A    between atoms: N_3  and  C_4 
REMARK    4  A    between atoms: N_12  and  C_13 
REMARK    5  A    between atoms: C_19  and  S_20 
REMARK    6  A    between atoms: S_20  and  C_21 
REMARK    7  A    between atoms: C_21  and  C_22 
REMARK       I    between atoms: C_22  and  N_23 
REMARK    8  A    between atoms: N_23  and  C_24 
REMARK    9  A    between atoms: C_26  and  N_27 
REMARK       I    between atoms: N_27  and  C_28 
ROOT
HETATM    1  C   UNL     1       6.048  27.629  56.481  1.00  0.00     0.158 A 
HETATM    2  N   UNL     1       6.531  28.917  56.715  1.00  0.00    -0.274 N 
HETATM    3  C   UNL     1       5.391  29.705  56.682  1.00  0.00     0.196 A 
HETATM    4  N   UNL     1       4.344  28.982  56.355  1.00  0.00    -0.122 NA
HETATM    5  N   UNL     1       4.749  27.691  56.232  1.00  0.00    -0.131 NA
ENDROOT
BRANCH   3   6
HETATM    6  S   UNL     1       5.335  31.432  56.836  1.00  0.00    -0.080 SA
BRANCH   6   7
HETATM    7  C   UNL     1       4.628  31.611  58.504  1.00  0.00     0.185 C 
BRANCH   7   8
HETATM    8  C   UNL     1       5.685  32.130  59.466  1.00  0.00     0.231 C 
HETATM    9  N   UNL     1       5.348  31.969  60.802  1.00  0.00    -0.326 N 
HETATM   10  H   UNL     1       4.432  31.564  60.993  1.00  0.00     0.169 HD
HETATM   11  O   UNL     1       6.713  32.643  59.032  1.00  0.00    -0.272 OA
BRANCH   9  12
HETATM   12  C   UNL     1       6.092  32.390  61.928  1.00  0.00     0.036 A 
HETATM   13  C   UNL     1       5.582  33.474  62.668  1.00  0.00     0.059 A 
HETATM   14  C   UNL     1       6.259  33.967  63.788  1.00  0.00     0.036 A 
HETATM   15  C   UNL     1       7.470  33.365  64.153  1.00  0.00     0.029 A 
HETATM   16  C   UNL     1       7.979  32.286  63.434  1.00  0.00     0.004 A 
HETATM   17  C   UNL     1       7.289  31.799  62.326  1.00  0.00     0.029 A 
BRANCH  14  18
HETATM   18  N   UNL     1       5.851  35.051  64.588  1.00  0.00    -0.327 N 
HETATM   19  C   UNL     1       5.097  35.178  65.713  1.00  0.00     0.218 C 
HETATM   20  C   UNL     1       4.577  33.989  66.461  1.00  0.00     0.117 C 
HETATM   21  O   UNL     1       4.869  36.320  66.125  1.00  0.00    -0.274 OA
HETATM   22  H   UNL     1       6.179  35.964  64.291  1.00  0.00     0.169 HD
ENDBRANCH  14  18
ENDBRANCH   9  12
ENDBRANCH   7   8
ENDBRANCH   6   7
ENDBRANCH   3   6
BRANCH   2  23
HETATM   23  C   UNL     1       7.877  29.314  56.932  1.00  0.00     0.043 A 
HETATM   24  C   UNL     1       8.296  29.694  58.214  1.00  0.00     0.030 A 
HETATM   25  C   UNL     1       9.618  30.092  58.427  1.00  0.00     0.002 A 
HETATM   26  C   UNL     1      10.523  30.108  57.369  1.00  0.00     0.000 A 
HETATM   27  C   UNL     1      10.112  29.724  56.094  1.00  0.00     0.002 A 
HETATM   28  C   UNL     1       8.792  29.326  55.872  1.00  0.00     0.030 A 
ENDBRANCH   2  23
BRANCH   1  29
HETATM   29  C   UNL     1       6.820  26.334  56.634  1.00  0.00     0.150 C 
HETATM   30  C   UNL     1       5.864  25.166  56.919  1.00  0.00     0.040 C 
BRANCH  29  31
HETATM   31  N   UNL     1       7.574  26.024  55.407  1.00  0.00    -0.379 N 
HETATM   32  H   UNL     1       7.433  26.736  54.693  1.00  0.00     0.160 HD
BRANCH  31  33
HETATM   33  C   UNL     1       7.738  24.737  54.913  1.00  0.00     0.028 A 
HETATM   34  C   UNL     1       7.150  24.405  53.682  1.00  0.00     0.030 A 
HETATM   35  C   UNL     1       7.327  23.144  53.104  1.00  0.00     0.021 A 
HETATM   36  C   UNL     1       8.124  22.202  53.744  1.00  0.00     0.011 A 
HETATM   37 BR   UNL     1       8.392  20.505  52.959  1.00  0.00    -0.051 Br
HETATM   38  C   UNL     1       8.736  22.513  54.954  1.00  0.00     0.021 A 
HETATM   39  C   UNL     1       8.543  23.775  55.530  1.00  0.00     0.030 A 
ENDBRANCH  31  33
ENDBRANCH  29  31
ENDBRANCH   1  29
TORSDOF 9
ENDMDL
MODEL 2
REMARK VINA RESULT:     -10.4      2.129      3.475
REMARK  9 active torsions:
REMARK  status: ('A' for Active; 'I' for Inactive)
REMARK    1  A    between atoms: C_2  and  N_3 
REMARK    2  A    between atoms: C_2  and  C_11 
REMARK    3  A    between atoms: N_3  and  C_4 
REMARK    4  A    between atoms: N_12  and  C_13 
REMARK    5  A    between atoms: C_19  and  S_20 
REMARK    6  A    between atoms: S_20  and  C_21 
REMARK    7  A    between atoms: C_21  and  C_22 
REMARK       I    between atoms: C_22  and  N_23 
REMARK    8  A    between atoms: N_23  and  C_24 
REMARK    9  A    between atoms: C_26  and  N_27 
REMARK       I    between atoms: N_27  and  C_28 
ROOT
HETATM    1  C   UNL     1       5.467  29.158  55.340  1.00  0.00     0.158 A 
HETATM    2  N   UNL     1       6.189  28.512  56.345  1.00  0.00    -0.274 N 
HETATM    3  C   UNL     1       6.627  29.551  57.152  1.00  0.00     0.196 A 
HETATM    4  N   UNL     1       6.294  30.709  56.629  1.00  0.00    -0.122 NA
HETATM    5  N   UNL     1       5.571  30.467  55.504  1.00  0.00    -0.131 NA
ENDROOT
BRANCH   3   6
HETATM    6  S   UNL     1       7.648  29.403  58.547  1.00  0.00    -0.080 SA
BRANCH   6   7
HETATM    7  C   UNL     1       8.696  30.881  58.371  1.00  0.00     0.185 C 
BRANCH   7   8
HETATM    8  C   UNL     1       8.572  31.758  59.607  1.00  0.00     0.231 C 
HETATM    9  N   UNL     1       7.706  31.251  60.565  1.00  0.00    -0.326 N 
HETATM   10  H   UNL     1       7.227  30.382  60.328  1.00  0.00     0.169 HD
HETATM   11  O   UNL     1       9.200  32.811  59.680  1.00  0.00    -0.272 OA
BRANCH   9  12
HETATM   12  C   UNL     1       7.343  31.849  61.792  1.00  0.00     0.036 A 
HETATM   13  C   UNL     1       5.969  32.054  62.027  1.00  0.00     0.059 A 
HETATM   14  C   UNL     1       5.520  32.654  63.208  1.00  0.00     0.036 A 
HETATM   15  C   UNL     1       6.470  33.063  64.152  1.00  0.00     0.029 A 
HETATM   16  C   UNL     1       7.830  32.857  63.934  1.00  0.00     0.004 A 
HETATM   17  C   UNL     1       8.264  32.250  62.758  1.00  0.00     0.029 A 
BRANCH  14  18
HETATM   18  N   UNL     1       4.178  32.920  63.538  1.00  0.00    -0.327 N 
HETATM   19  C   UNL     1       3.211  33.731  63.028  1.00  0.00     0.218 C 
HETATM   20  C   UNL     1       3.416  34.523  61.774  1.00  0.00     0.117 C 
HETATM   21  O   UNL     1       2.128  33.777  63.623  1.00  0.00    -0.274 OA
HETATM   22  H   UNL     1       3.809  32.405  64.330  1.00  0.00     0.169 HD
ENDBRANCH  14  18
ENDBRANCH   9  12
ENDBRANCH   7   8
ENDBRANCH   6   7
ENDBRANCH   3   6
BRANCH   2  23
HETATM   23  C   UNL     1       6.417  27.119  56.492  1.00  0.00     0.043 A 
HETATM   24  C   UNL     1       5.343  26.259  56.758  1.00  0.00     0.030 A 
HETATM   25  C   UNL     1       5.567  24.889  56.911  1.00  0.00     0.002 A 
HETATM   26  C   UNL     1       6.856  24.372  56.794  1.00  0.00     0.000 A 
HETATM   27  C   UNL     1       7.925  25.223  56.522  1.00  0.00     0.002 A 
HETATM   28  C   UNL     1       7.710  26.595  56.369  1.00  0.00     0.030 A 
ENDBRANCH   2  23
BRANCH   1  29
HETATM   29  C   UNL     1       4.570  28.502  54.309  1.00  0.00     0.150 C 
HETATM   30  C   UNL     1       3.516  29.497  53.800  1.00  0.00     0.040 C 
BRANCH  29  31
HETATM   31  N   UNL     1       5.354  28.030  53.156  1.00  0.00    -0.379 N 
HETATM   32  H   UNL     1       4.989  28.398  52.280  1.00  0.00     0.160 HD
BRANCH  31  33
HETATM   33  C   UNL     1       5.889  26.752  53.064  1.00  0.00     0.028 A 
HETATM   34  C   UNL     1       7.277  26.608  52.915  1.00  0.00     0.030 A 
HETATM   35  C   UNL     1       7.882  25.347  52.875  1.00  0.00     0.021 A 
HETATM   36  C   UNL     1       7.099  24.207  53.012  1.00  0.00     0.011 A 
HETATM   37 BR   UNL     1       7.907  22.500  52.986  1.00  0.00    -0.051 Br
HETATM   38  C   UNL     1       5.723  24.322  53.183  1.00  0.00     0.021 A 
HETATM   39  C   UNL     1       5.126  25.589  53.210  1.00  0.00     0.030 A 
ENDBRANCH  31  33
ENDBRANCH  29  31
ENDBRANCH   1  29
TORSDOF 9
ENDMDL
MODEL 3
REMARK VINA RESULT:     -10.2      1.978      2.840
REMARK  9 active torsions:
REMARK  status: ('A' for Active; 'I' for Inactive)
REMARK    1  A    between atoms: C_2  and  N_3 
REMARK    2  A    between atoms: C_2  and  C_11 
REMARK    3  A    between atoms: N_3  and  C_4 
REMARK    4  A    between atoms: N_12  and  C_13 
REMARK    5  A    between atoms: C_19  and  S_20 
REMARK    6  A    between atoms: S_20  and  C_21 
REMARK    7  A    between atoms: C_21  and  C_22 
REMARK       I    between atoms: C_22  and  N_23 
REMARK    8  A    between atoms: N_23  and  C_24 
REMARK    9  A    between atoms: C_26  and  N_27 
REMARK       I    between atoms: N_27  and  C_28 
ROOT
HETATM    1  C   UNL     1       4.855  27.425  54.021  1.00  0.00     0.158 A 
HETATM    2  N   UNL     1       5.409  28.420  54.826  1.00  0.00    -0.274 N 
HETATM    3  C   UNL     1       4.591  29.517  54.601  1.00  0.00     0.196 A 
HETATM    4  N   UNL     1       3.702  29.242  53.674  1.00  0.00    -0.122 NA
HETATM    5  N   UNL     1       3.862  27.941  53.313  1.00  0.00    -0.131 NA
ENDROOT
BRANCH   3   6
HETATM    6  S   UNL     1       4.801  31.105  55.266  1.00  0.00    -0.080 SA
BRANCH   6   7
HETATM    7  C   UNL     1       4.657  30.760  57.047  1.00  0.00     0.185 C 
BRANCH   7   8
HETATM    8  C   UNL     1       5.695  31.559  57.819  1.00  0.00     0.231 C 
HETATM    9  N   UNL     1       6.562  30.773  58.564  1.00  0.00    -0.326 N 
HETATM   10  H   UNL     1       6.392  29.767  58.545  1.00  0.00     0.169 HD
HETATM   11  O   UNL     1       5.701  32.786  57.754  1.00  0.00    -0.272 OA
BRANCH   9  12
HETATM   12  C   UNL     1       7.596  31.214  59.420  1.00  0.00     0.036 A 
HETATM   13  C   UNL     1       7.264  31.436  60.770  1.00  0.00     0.059 A 
HETATM   14  C   UNL     1       8.221  31.887  61.686  1.00  0.00     0.036 A 
HETATM   15  C   UNL     1       9.521  32.130  61.225  1.00  0.00     0.029 A 
HETATM   16  C   UNL     1       9.863  31.906  59.894  1.00  0.00     0.004 A 
HETATM   17  C   UNL     1       8.903  31.447  58.995  1.00  0.00     0.029 A 
BRANCH  14  18
HETATM   18  N   UNL     1       7.995  32.156  63.049  1.00  0.00    -0.327 N 
HETATM   19  C   UNL     1       7.301  33.104  63.734  1.00  0.00     0.218 C 
HETATM   20  C   UNL     1       6.445  34.120  63.041  1.00  0.00     0.117 C 
HETATM   21  O   UNL     1       7.374  33.091  64.967  1.00  0.00    -0.274 OA
HETATM   22  H   UNL     1       8.431  31.513  63.701  1.00  0.00     0.169 HD
ENDBRANCH  14  18
ENDBRANCH   9  12
ENDBRANCH   7   8
ENDBRANCH   6   7
ENDBRANCH   3   6
BRANCH   2  23
HETATM   23  C   UNL     1       6.545  28.321  55.672  1.00  0.00     0.043 A 
HETATM   24  C   UNL     1       6.462  27.604  56.873  1.00  0.00     0.030 A 
HETATM   25  C   UNL     1       7.577  27.512  57.709  1.00  0.00     0.002 A 
HETATM   26  C   UNL     1       8.774  28.127  57.351  1.00  0.00     0.000 A 
HETATM   27  C   UNL     1       8.862  28.835  56.153  1.00  0.00     0.002 A 
HETATM   28  C   UNL     1       7.752  28.933  55.312  1.00  0.00     0.030 A 
ENDBRANCH   2  23
BRANCH   1  29
HETATM   29  C   UNL     1       5.202  25.949  54.041  1.00  0.00     0.150 C 
HETATM   30  C   UNL     1       4.500  25.215  52.889  1.00  0.00     0.040 C 
BRANCH  29  31
HETATM   31  N   UNL     1       6.654  25.750  53.900  1.00  0.00    -0.379 N 
HETATM   32  H   UNL     1       7.008  26.176  53.045  1.00  0.00     0.160 HD
BRANCH  31  33
HETATM   33  C   UNL     1       7.307  24.584  54.275  1.00  0.00     0.028 A 
HETATM   34  C   UNL     1       7.298  24.208  55.628  1.00  0.00     0.030 A 
HETATM   35  C   UNL     1       7.888  23.016  56.060  1.00  0.00     0.021 A 
HETATM   36  C   UNL     1       8.475  22.166  55.131  1.00  0.00     0.011 A 
HETATM   37 BR   UNL     1       9.251  20.540  55.699  1.00  0.00    -0.051 Br
HETATM   38  C   UNL     1       8.478  22.503  53.781  1.00  0.00     0.021 A 
HETATM   39  C   UNL     1       7.895  23.704  53.360  1.00  0.00     0.030 A 
ENDBRANCH  31  33
ENDBRANCH  29  31
ENDBRANCH   1  29
TORSDOF 9
ENDMDL
MODEL 4
REMARK VINA RESULT:      -9.6      3.399      4.797
REMARK  9 active torsions:
REMARK  status: ('A' for Active; 'I' for Inactive)
REMARK    1  A    between atoms: C_2  and  N_3 
REMARK    2  A    between atoms: C_2  and  C_11 
REMARK    3  A    between atoms: N_3  and  C_4 
REMARK    4  A    between atoms: N_12  and  C_13 
REMARK    5  A    between atoms: C_19  and  S_20 
REMARK    6  A    between atoms: S_20  and  C_21 
REMARK    7  A    between atoms: C_21  and  C_22 
REMARK       I    between atoms: C_22  and  N_23 
REMARK    8  A    between atoms: N_23  and  C_24 
REMARK    9  A    between atoms: C_26  and  N_27 
REMARK       I    between atoms: N_27  and  C_28 
ROOT
HETATM    1  C   UNL     1       5.251  29.807  55.108  1.00  0.00     0.158 A 
HETATM    2  N   UNL     1       6.094  28.839  55.656  1.00  0.00    -0.274 N 
HETATM    3  C   UNL     1       6.578  29.439  56.808  1.00  0.00     0.196 A 
HETATM    4  N   UNL     1       6.154  30.680  56.890  1.00  0.00    -0.122 NA
HETATM    5  N   UNL     1       5.328  30.911  55.836  1.00  0.00    -0.131 NA
ENDROOT
BRANCH   3   6
HETATM    6  S   UNL     1       7.741  28.764  57.903  1.00  0.00    -0.080 SA
BRANCH   6   7
HETATM    7  C   UNL     1       9.124  29.931  57.707  1.00  0.00     0.185 C 
BRANCH   7   8
HETATM    8  C   UNL     1       9.053  31.008  58.778  1.00  0.00     0.231 C 
HETATM    9  N   UNL     1       8.179  30.708  59.812  1.00  0.00    -0.326 N 
HETATM   10  H   UNL     1       7.659  29.834  59.728  1.00  0.00     0.169 HD
HETATM   11  O   UNL     1       9.726  32.030  58.669  1.00  0.00    -0.272 OA
BRANCH   9  12
HETATM   12  C   UNL     1       7.856  31.519  60.923  1.00  0.00     0.036 A 
HETATM   13  C   UNL     1       6.845  32.483  60.744  1.00  0.00     0.059 A 
HETATM   14  C   UNL     1       6.471  33.340  61.786  1.00  0.00     0.036 A 
HETATM   15  C   UNL     1       7.138  33.229  63.012  1.00  0.00     0.029 A 
HETATM   16  C   UNL     1       8.133  32.274  63.203  1.00  0.00     0.004 A 
HETATM   17  C   UNL     1       8.489  31.421  62.160  1.00  0.00     0.029 A 
BRANCH  14  18
HETATM   18  N   UNL     1       5.489  34.345  61.713  1.00  0.00    -0.327 N 
HETATM   19  C   UNL     1       4.132  34.365  61.813  1.00  0.00     0.218 C 
HETATM   20  C   UNL     1       3.343  33.144  62.172  1.00  0.00     0.117 C 
HETATM   21  O   UNL     1       3.558  35.443  61.622  1.00  0.00    -0.274 OA
HETATM   22  H   UNL     1       5.834  35.286  61.555  1.00  0.00     0.169 HD
ENDBRANCH  14  18
ENDBRANCH   9  12
ENDBRANCH   7   8
ENDBRANCH   6   7
ENDBRANCH   3   6
BRANCH   2  23
HETATM   23  C   UNL     1       6.382  27.548  55.141  1.00  0.00     0.043 A 
HETATM   24  C   UNL     1       7.467  27.366  54.274  1.00  0.00     0.030 A 
HETATM   25  C   UNL     1       7.747  26.098  53.761  1.00  0.00     0.002 A 
HETATM   26  C   UNL     1       6.952  25.009  54.113  1.00  0.00     0.000 A 
HETATM   27  C   UNL     1       5.876  25.184  54.981  1.00  0.00     0.002 A 
HETATM   28  C   UNL     1       5.589  26.449  55.497  1.00  0.00     0.030 A 
ENDBRANCH   2  23
BRANCH   1  29
HETATM   29  C   UNL     1       4.275  29.613  53.965  1.00  0.00     0.150 C 
HETATM   30  C   UNL     1       3.242  30.750  53.939  1.00  0.00     0.040 C 
BRANCH  29  31
HETATM   31  N   UNL     1       4.979  29.598  52.671  1.00  0.00    -0.379 N 
HETATM   32  H   UNL     1       5.229  30.539  52.372  1.00  0.00     0.160 HD
BRANCH  31  33
HETATM   33  C   UNL     1       4.661  28.730  51.636  1.00  0.00     0.028 A 
HETATM   34  C   UNL     1       3.807  29.177  50.616  1.00  0.00     0.030 A 
HETATM   35  C   UNL     1       3.495  28.370  49.517  1.00  0.00     0.021 A 
HETATM   36  C   UNL     1       4.062  27.106  49.412  1.00  0.00     0.011 A 
HETATM   37 BR   UNL     1       3.670  26.017  47.919  1.00  0.00    -0.051 Br
HETATM   38  C   UNL     1       4.930  26.647  50.398  1.00  0.00     0.021 A 
HETATM   39  C   UNL     1       5.226  27.458  51.500  1.00  0.00     0.030 A 
ENDBRANCH  31  33
ENDBRANCH  29  31
ENDBRANCH   1  29
TORSDOF 9
ENDMDL
MODEL 5
REMARK VINA RESULT:      -9.6      1.567      2.844
REMARK  9 active torsions:
REMARK  status: ('A' for Active; 'I' for Inactive)
REMARK    1  A    between atoms: C_2  and  N_3 
REMARK    2  A    between atoms: C_2  and  C_11 
REMARK    3  A    between atoms: N_3  and  C_4 
REMARK    4  A    between atoms: N_12  and  C_13 
REMARK    5  A    between atoms: C_19  and  S_20 
REMARK    6  A    between atoms: S_20  and  C_21 
REMARK    7  A    between atoms: C_21  and  C_22 
REMARK       I    between atoms: C_22  and  N_23 
REMARK    8  A    between atoms: N_23  and  C_24 
REMARK    9  A    between atoms: C_26  and  N_27 
REMARK       I    between atoms: N_27  and  C_28 
ROOT
HETATM    1  C   UNL     1       7.163  27.240  57.283  1.00  0.00     0.158 A 
HETATM    2  N   UNL     1       6.675  28.354  56.598  1.00  0.00    -0.274 N 
HETATM    3  C   UNL     1       7.133  29.426  57.347  1.00  0.00     0.196 A 
HETATM    4  N   UNL     1       7.743  29.001  58.430  1.00  0.00    -0.122 NA
HETATM    5  N   UNL     1       7.765  27.642  58.391  1.00  0.00    -0.131 NA
ENDROOT
BRANCH   3   6
HETATM    6  S   UNL     1       6.796  31.102  57.050  1.00  0.00    -0.080 SA
BRANCH   6   7
HETATM    7  C   UNL     1       5.303  31.343  58.064  1.00  0.00     0.185 C 
BRANCH   7   8
HETATM    8  C   UNL     1       5.630  32.196  59.279  1.00  0.00     0.231 C 
HETATM    9  N   UNL     1       6.220  31.486  60.315  1.00  0.00    -0.326 N 
HETATM   10  H   UNL     1       6.335  30.483  60.169  1.00  0.00     0.169 HD
HETATM   11  O   UNL     1       5.359  33.394  59.282  1.00  0.00    -0.272 OA
BRANCH   9  12
HETATM   12  C   UNL     1       6.595  31.978  61.585  1.00  0.00     0.036 A 
HETATM   13  C   UNL     1       5.557  32.324  62.473  1.00  0.00     0.059 A 
HETATM   14  C   UNL     1       5.836  32.833  63.746  1.00  0.00     0.036 A 
HETATM   15  C   UNL     1       7.175  33.008  64.116  1.00  0.00     0.029 A 
HETATM   16  C   UNL     1       8.209  32.662  63.250  1.00  0.00     0.004 A 
HETATM   17  C   UNL     1       7.918  32.146  61.989  1.00  0.00     0.029 A 
BRANCH  14  18
HETATM   18  N   UNL     1       4.881  33.224  64.704  1.00  0.00    -0.327 N 
HETATM   19  C   UNL     1       4.254  34.393  65.007  1.00  0.00     0.218 C 
HETATM   20  C   UNL     1       4.427  35.627  64.176  1.00  0.00     0.117 C 
HETATM   21  O   UNL     1       3.502  34.404  65.987  1.00  0.00    -0.274 OA
HETATM   22  H   UNL     1       4.559  32.492  65.328  1.00  0.00     0.169 HD
ENDBRANCH  14  18
ENDBRANCH   9  12
ENDBRANCH   7   8
ENDBRANCH   6   7
ENDBRANCH   3   6
BRANCH   2  23
HETATM   23  C   UNL     1       5.891  28.370  55.414  1.00  0.00     0.043 A 
HETATM   24  C   UNL     1       6.513  28.286  54.162  1.00  0.00     0.030 A 
HETATM   25  C   UNL     1       5.743  28.310  52.997  1.00  0.00     0.002 A 
HETATM   26  C   UNL     1       4.357  28.412  53.076  1.00  0.00     0.000 A 
HETATM   27  C   UNL     1       3.733  28.489  54.319  1.00  0.00     0.002 A 
HETATM   28  C   UNL     1       4.495  28.468  55.489  1.00  0.00     0.030 A 
ENDBRANCH   2  23
BRANCH   1  29
HETATM   29  C   UNL     1       7.162  25.806  56.792  1.00  0.00     0.150 C 
HETATM   30  C   UNL     1       5.727  25.262  56.720  1.00  0.00     0.040 C 
BRANCH  29  31
HETATM   31  N   UNL     1       7.760  25.710  55.450  1.00  0.00    -0.379 N 
HETATM   32  H   UNL     1       7.465  26.481  54.854  1.00  0.00     0.160 HD
BRANCH  31  33
HETATM   33  C   UNL     1       7.956  24.509  54.783  1.00  0.00     0.028 A 
HETATM   34  C   UNL     1       8.708  23.502  55.408  1.00  0.00     0.030 A 
HETATM   35  C   UNL     1       8.893  22.250  54.813  1.00  0.00     0.021 A 
HETATM   36  C   UNL     1       8.299  21.981  53.586  1.00  0.00     0.011 A 
HETATM   37 BR   UNL     1       8.518  20.284  52.785  1.00  0.00    -0.051 Br
HETATM   38  C   UNL     1       7.530  22.953  52.955  1.00  0.00     0.021 A 
HETATM   39  C   UNL     1       7.361  24.207  53.554  1.00  0.00     0.030 A 
ENDBRANCH  31  33
ENDBRANCH  29  31
ENDBRANCH   1  29
TORSDOF 9
ENDMDL
MODEL 6
REMARK VINA RESULT:      -9.5      4.312      6.025
REMARK  9 active torsions:
REMARK  status: ('A' for Active; 'I' for Inactive)
REMARK    1  A    between atoms: C_2  and  N_3 
REMARK    2  A    between atoms: C_2  and  C_11 
REMARK    3  A    between atoms: N_3  and  C_4 
REMARK    4  A    between atoms: N_12  and  C_13 
REMARK    5  A    between atoms: C_19  and  S_20 
REMARK    6  A    between atoms: S_20  and  C_21 
REMARK    7  A    between atoms: C_21  and  C_22 
REMARK       I    between atoms: C_22  and  N_23 
REMARK    8  A    between atoms: N_23  and  C_24 
REMARK    9  A    between atoms: C_26  and  N_27 
REMARK       I    between atoms: N_27  and  C_28 
ROOT
HETATM    1  C   UNL     1       6.255  26.836  52.267  1.00  0.00     0.158 A 
HETATM    2  N   UNL     1       6.735  26.270  53.449  1.00  0.00    -0.274 N 
HETATM    3  C   UNL     1       6.699  27.320  54.353  1.00  0.00     0.196 A 
HETATM    4  N   UNL     1       6.339  28.430  53.752  1.00  0.00    -0.122 NA
HETATM    5  N   UNL     1       6.060  28.132  52.455  1.00  0.00    -0.131 NA
ENDROOT
BRANCH   3   6
HETATM    6  S   UNL     1       7.243  27.272  56.000  1.00  0.00    -0.080 SA
BRANCH   6   7
HETATM    7  C   UNL     1       7.528  29.040  56.326  1.00  0.00     0.185 C 
BRANCH   7   8
HETATM    8  C   UNL     1       7.837  29.256  57.799  1.00  0.00     0.231 C 
HETATM    9  N   UNL     1       7.916  30.592  58.160  1.00  0.00    -0.326 N 
HETATM   10  H   UNL     1       7.798  31.273  57.410  1.00  0.00     0.169 HD
HETATM   11  O   UNL     1       8.003  28.291  58.541  1.00  0.00    -0.272 OA
BRANCH   9  12
HETATM   12  C   UNL     1       8.234  31.117  59.433  1.00  0.00     0.036 A 
HETATM   13  C   UNL     1       7.204  31.143  60.394  1.00  0.00     0.059 A 
HETATM   14  C   UNL     1       7.425  31.659  61.676  1.00  0.00     0.036 A 
HETATM   15  C   UNL     1       8.695  32.166  61.981  1.00  0.00     0.029 A 
HETATM   16  C   UNL     1       9.722  32.137  61.042  1.00  0.00     0.004 A 
HETATM   17  C   UNL     1       9.492  31.612  59.772  1.00  0.00     0.029 A 
BRANCH  14  18
HETATM   18  N   UNL     1       6.469  31.749  62.705  1.00  0.00    -0.327 N 
HETATM   19  C   UNL     1       5.643  32.730  63.160  1.00  0.00     0.218 C 
HETATM   20  C   UNL     1       5.525  34.054  62.470  1.00  0.00     0.117 C 
HETATM   21  O   UNL     1       4.961  32.488  64.161  1.00  0.00    -0.274 OA
HETATM   22  H   UNL     1       6.332  30.906  63.252  1.00  0.00     0.169 HD
ENDBRANCH  14  18
ENDBRANCH   9  12
ENDBRANCH   7   8
ENDBRANCH   6   7
ENDBRANCH   3   6
BRANCH   2  23
HETATM   23  C   UNL     1       7.158  24.931  53.661  1.00  0.00     0.043 A 
HETATM   24  C   UNL     1       6.804  24.264  54.841  1.00  0.00     0.030 A 
HETATM   25  C   UNL     1       7.226  22.950  55.054  1.00  0.00     0.002 A 
HETATM   26  C   UNL     1       7.996  22.298  54.093  1.00  0.00     0.000 A 
HETATM   27  C   UNL     1       8.344  22.955  52.915  1.00  0.00     0.002 A 
HETATM   28  C   UNL     1       7.927  24.270  52.695  1.00  0.00     0.030 A 
ENDBRANCH   2  23
BRANCH   1  29
HETATM   29  C   UNL     1       5.862  26.095  51.005  1.00  0.00     0.150 C 
HETATM   30  C   UNL     1       4.529  25.358  51.206  1.00  0.00     0.040 C 
BRANCH  29  31
HETATM   31  N   UNL     1       5.708  27.027  49.875  1.00  0.00    -0.379 N 
HETATM   32  H   UNL     1       6.235  27.886  50.025  1.00  0.00     0.160 HD
BRANCH  31  33
HETATM   33  C   UNL     1       4.521  27.195  49.177  1.00  0.00     0.028 A 
HETATM   34  C   UNL     1       4.262  26.367  48.073  1.00  0.00     0.030 A 
HETATM   35  C   UNL     1       3.059  26.448  47.363  1.00  0.00     0.021 A 
HETATM   36  C   UNL     1       2.082  27.347  47.772  1.00  0.00     0.011 A 
HETATM   37 BR   UNL     1       0.442  27.447  46.839  1.00  0.00    -0.051 Br
HETATM   38  C   UNL     1       2.303  28.164  48.877  1.00  0.00     0.021 A 
HETATM   39  C   UNL     1       3.516  28.083  49.573  1.00  0.00     0.030 A 
ENDBRANCH  31  33
ENDBRANCH  29  31
ENDBRANCH   1  29
TORSDOF 9
ENDMDL
MODEL 7
REMARK VINA RESULT:      -9.5      6.160     10.558
REMARK  9 active torsions:
REMARK  status: ('A' for Active; 'I' for Inactive)
REMARK    1  A    between atoms: C_2  and  N_3 
REMARK    2  A    between atoms: C_2  and  C_11 
REMARK    3  A    between atoms: N_3  and  C_4 
REMARK    4  A    between atoms: N_12  and  C_13 
REMARK    5  A    between atoms: C_19  and  S_20 
REMARK    6  A    between atoms: S_20  and  C_21 
REMARK    7  A    between atoms: C_21  and  C_22 
REMARK       I    between atoms: C_22  and  N_23 
REMARK    8  A    between atoms: N_23  and  C_24 
REMARK    9  A    between atoms: C_26  and  N_27 
REMARK       I    between atoms: N_27  and  C_28 
ROOT
HETATM    1  C   UNL     1       6.336  27.672  55.692  1.00  0.00     0.158 A 
HETATM    2  N   UNL     1       5.521  27.655  54.559  1.00  0.00    -0.274 N 
HETATM    3  C   UNL     1       4.749  28.799  54.694  1.00  0.00     0.196 A 
HETATM    4  N   UNL     1       4.997  29.386  55.842  1.00  0.00    -0.122 NA
HETATM    5  N   UNL     1       5.985  28.689  56.464  1.00  0.00    -0.131 NA
ENDROOT
BRANCH   3   6
HETATM    6  S   UNL     1       3.478  29.308  53.628  1.00  0.00    -0.080 SA
BRANCH   6   7
HETATM    7  C   UNL     1       4.354  30.522  52.594  1.00  0.00     0.185 C 
BRANCH   7   8
HETATM    8  C   UNL     1       4.325  30.085  51.138  1.00  0.00     0.231 C 
HETATM    9  N   UNL     1       3.735  28.845  50.941  1.00  0.00    -0.326 N 
HETATM   10  H   UNL     1       3.424  28.353  51.779  1.00  0.00     0.169 HD
HETATM   11  O   UNL     1       4.809  30.806  50.269  1.00  0.00    -0.272 OA
BRANCH   9  12
HETATM   12  C   UNL     1       3.601  28.146  49.721  1.00  0.00     0.036 A 
HETATM   13  C   UNL     1       2.305  28.039  49.179  1.00  0.00     0.059 A 
HETATM   14  C   UNL     1       2.076  27.352  47.982  1.00  0.00     0.036 A 
HETATM   15  C   UNL     1       3.166  26.754  47.338  1.00  0.00     0.029 A 
HETATM   16  C   UNL     1       4.453  26.860  47.860  1.00  0.00     0.004 A 
HETATM   17  C   UNL     1       4.669  27.557  49.047  1.00  0.00     0.029 A 
BRANCH  14  18
HETATM   18  N   UNL     1       0.826  27.171  47.362  1.00  0.00    -0.327 N 
HETATM   19  C   UNL     1       0.006  27.960  46.616  1.00  0.00     0.218 C 
HETATM   20  C   UNL     1       0.407  29.335  46.179  1.00  0.00     0.117 C 
HETATM   21  O   UNL     1      -1.088  27.494  46.279  1.00  0.00    -0.274 OA
HETATM   22  H   UNL     1       0.411  26.252  47.469  1.00  0.00     0.169 HD
ENDBRANCH  14  18
ENDBRANCH   9  12
ENDBRANCH   7   8
ENDBRANCH   6   7
ENDBRANCH   3   6
BRANCH   2  23
HETATM   23  C   UNL     1       5.497  26.687  53.521  1.00  0.00     0.043 A 
HETATM   24  C   UNL     1       4.633  25.588  53.610  1.00  0.00     0.030 A 
HETATM   25  C   UNL     1       4.614  24.630  52.593  1.00  0.00     0.002 A 
HETATM   26  C   UNL     1       5.449  24.767  51.487  1.00  0.00     0.000 A 
HETATM   27  C   UNL     1       6.305  25.863  51.391  1.00  0.00     0.002 A 
HETATM   28  C   UNL     1       6.331  26.824  52.404  1.00  0.00     0.030 A 
ENDBRANCH   2  23
BRANCH   1  29
HETATM   29  C   UNL     1       7.537  26.785  55.954  1.00  0.00     0.150 C 
HETATM   30  C   UNL     1       8.419  27.385  57.059  1.00  0.00     0.040 C 
BRANCH  29  31
HETATM   31  N   UNL     1       7.114  25.441  56.379  1.00  0.00    -0.379 N 
HETATM   32  H   UNL     1       7.179  25.331  57.389  1.00  0.00     0.160 HD
BRANCH  31  33
HETATM   33  C   UNL     1       7.385  24.288  55.656  1.00  0.00     0.028 A 
HETATM   34  C   UNL     1       7.923  24.409  54.365  1.00  0.00     0.030 A 
HETATM   35  C   UNL     1       8.272  23.285  53.609  1.00  0.00     0.021 A 
HETATM   36  C   UNL     1       8.110  22.016  54.153  1.00  0.00     0.011 A 
HETATM   37 BR   UNL     1       8.603  20.491  53.153  1.00  0.00    -0.051 Br
HETATM   38  C   UNL     1       7.601  21.868  55.439  1.00  0.00     0.021 A 
HETATM   39  C   UNL     1       7.244  23.000  56.183  1.00  0.00     0.030 A 
ENDBRANCH  31  33
ENDBRANCH  29  31
ENDBRANCH   1  29
TORSDOF 9
ENDMDL
MODEL 8
REMARK VINA RESULT:      -9.5      4.644     11.108
REMARK  9 active torsions:
REMARK  status: ('A' for Active; 'I' for Inactive)
REMARK    1  A    between atoms: C_2  and  N_3 
REMARK    2  A    between atoms: C_2  and  C_11 
REMARK    3  A    between atoms: N_3  and  C_4 
REMARK    4  A    between atoms: N_12  and  C_13 
REMARK    5  A    between atoms: C_19  and  S_20 
REMARK    6  A    between atoms: S_20  and  C_21 
REMARK    7  A    between atoms: C_21  and  C_22 
REMARK       I    between atoms: C_22  and  N_23 
REMARK    8  A    between atoms: N_23  and  C_24 
REMARK    9  A    between atoms: C_26  and  N_27 
REMARK       I    between atoms: N_27  and  C_28 
ROOT
HETATM    1  C   UNL     1       4.893  33.235  60.800  1.00  0.00     0.158 A 
HETATM    2  N   UNL     1       5.847  32.408  60.206  1.00  0.00    -0.274 N 
HETATM    3  C   UNL     1       5.249  32.018  59.018  1.00  0.00     0.196 A 
HETATM    4  N   UNL     1       4.019  32.476  58.953  1.00  0.00    -0.122 NA
HETATM    5  N   UNL     1       3.796  33.234  60.059  1.00  0.00    -0.131 NA
ENDROOT
BRANCH   3   6
HETATM    6  S   UNL     1       5.909  30.916  57.852  1.00  0.00    -0.080 SA
BRANCH   6   7
HETATM    7  C   UNL     1       4.443  29.916  57.448  1.00  0.00     0.185 C 
BRANCH   7   8
HETATM    8  C   UNL     1       4.734  29.024  56.252  1.00  0.00     0.231 C 
HETATM    9  N   UNL     1       5.915  28.307  56.367  1.00  0.00    -0.326 N 
HETATM   10  H   UNL     1       6.470  28.478  57.205  1.00  0.00     0.169 HD
HETATM   11  O   UNL     1       3.958  28.997  55.300  1.00  0.00    -0.272 OA
BRANCH   9  12
HETATM   12  C   UNL     1       6.484  27.435  55.411  1.00  0.00     0.036 A 
HETATM   13  C   UNL     1       6.408  26.054  55.673  1.00  0.00     0.059 A 
HETATM   14  C   UNL     1       6.958  25.119  54.789  1.00  0.00     0.036 A 
HETATM   15  C   UNL     1       7.603  25.589  53.638  1.00  0.00     0.029 A 
HETATM   16  C   UNL     1       7.676  26.952  53.364  1.00  0.00     0.004 A 
HETATM   17  C   UNL     1       7.116  27.872  54.248  1.00  0.00     0.029 A 
BRANCH  14  18
HETATM   18  N   UNL     1       6.953  23.722  54.958  1.00  0.00    -0.327 N 
HETATM   19  C   UNL     1       7.632  22.853  55.757  1.00  0.00     0.218 C 
HETATM   20  C   UNL     1       8.571  23.323  56.825  1.00  0.00     0.117 C 
HETATM   21  O   UNL     1       7.430  21.646  55.594  1.00  0.00    -0.274 OA
HETATM   22  H   UNL     1       6.304  23.209  54.371  1.00  0.00     0.169 HD
ENDBRANCH  14  18
ENDBRANCH   9  12
ENDBRANCH   7   8
ENDBRANCH   6   7
ENDBRANCH   3   6
BRANCH   2  23
HETATM   23  C   UNL     1       7.126  32.055  60.711  1.00  0.00     0.043 A 
HETATM   24  C   UNL     1       7.230  31.331  61.907  1.00  0.00     0.030 A 
HETATM   25  C   UNL     1       8.488  30.990  62.409  1.00  0.00     0.002 A 
HETATM   26  C   UNL     1       9.641  31.362  61.722  1.00  0.00     0.000 A 
HETATM   27  C   UNL     1       9.541  32.076  60.530  1.00  0.00     0.002 A 
HETATM   28  C   UNL     1       8.288  32.422  60.021  1.00  0.00     0.030 A 
ENDBRANCH   2  23
BRANCH   1  29
HETATM   29  C   UNL     1       5.098  34.125  62.010  1.00  0.00     0.150 C 
HETATM   30  C   UNL     1       4.436  35.494  61.789  1.00  0.00     0.040 C 
BRANCH  29  31
HETATM   31  N   UNL     1       4.510  33.517  63.215  1.00  0.00    -0.379 N 
HETATM   32  H   UNL     1       3.493  33.488  63.161  1.00  0.00     0.160 HD
BRANCH  31  33
HETATM   33  C   UNL     1       5.013  33.711  64.494  1.00  0.00     0.028 A 
HETATM   34  C   UNL     1       6.402  33.650  64.691  1.00  0.00     0.030 A 
HETATM   35  C   UNL     1       6.974  33.893  65.945  1.00  0.00     0.021 A 
HETATM   36  C   UNL     1       6.156  34.230  67.017  1.00  0.00     0.011 A 
HETATM   37 BR   UNL     1       6.919  34.587  68.708  1.00  0.00    -0.051 Br
HETATM   38  C   UNL     1       4.779  34.319  66.844  1.00  0.00     0.021 A 
HETATM   39  C   UNL     1       4.215  34.062  65.588  1.00  0.00     0.030 A 
ENDBRANCH  31  33
ENDBRANCH  29  31
ENDBRANCH   1  29
TORSDOF 9
ENDMDL
MODEL 9
REMARK VINA RESULT:      -9.3      4.590     10.646
REMARK  9 active torsions:
REMARK  status: ('A' for Active; 'I' for Inactive)
REMARK    1  A    between atoms: C_2  and  N_3 
REMARK    2  A    between atoms: C_2  and  C_11 
REMARK    3  A    between atoms: N_3  and  C_4 
REMARK    4  A    between atoms: N_12  and  C_13 
REMARK    5  A    between atoms: C_19  and  S_20 
REMARK    6  A    between atoms: S_20  and  C_21 
REMARK    7  A    between atoms: C_21  and  C_22 
REMARK       I    between atoms: C_22  and  N_23 
REMARK    8  A    between atoms: N_23  and  C_24 
REMARK    9  A    between atoms: C_26  and  N_27 
REMARK       I    between atoms: N_27  and  C_28 
ROOT
HETATM    1  C   UNL     1       7.455  30.889  59.192  1.00  0.00     0.158 A 
HETATM    2  N   UNL     1       6.279  31.235  58.526  1.00  0.00    -0.274 N 
HETATM    3  C   UNL     1       6.362  30.537  57.331  1.00  0.00     0.196 A 
HETATM    4  N   UNL     1       7.518  29.920  57.241  1.00  0.00    -0.122 NA
HETATM    5  N   UNL     1       8.199  30.135  58.397  1.00  0.00    -0.131 NA
ENDROOT
BRANCH   3   6
HETATM    6  S   UNL     1       5.223  30.604  56.024  1.00  0.00    -0.080 SA
BRANCH   6   7
HETATM    7  C   UNL     1       4.554  28.912  56.056  1.00  0.00     0.185 C 
BRANCH   7   8
HETATM    8  C   UNL     1       5.651  27.911  55.729  1.00  0.00     0.231 C 
HETATM    9  N   UNL     1       5.861  26.971  56.727  1.00  0.00    -0.326 N 
HETATM   10  H   UNL     1       5.296  27.070  57.570  1.00  0.00     0.169 HD
HETATM   11  O   UNL     1       6.264  27.994  54.668  1.00  0.00    -0.272 OA
BRANCH   9  12
HETATM   12  C   UNL     1       6.834  25.947  56.746  1.00  0.00     0.036 A 
HETATM   13  C   UNL     1       6.689  24.902  55.813  1.00  0.00     0.059 A 
HETATM   14  C   UNL     1       7.597  23.839  55.770  1.00  0.00     0.036 A 
HETATM   15  C   UNL     1       8.652  23.826  56.691  1.00  0.00     0.029 A 
HETATM   16  C   UNL     1       8.811  24.857  57.613  1.00  0.00     0.004 A 
HETATM   17  C   UNL     1       7.905  25.916  57.638  1.00  0.00     0.029 A 
BRANCH  14  18
HETATM   18  N   UNL     1       7.539  22.740  54.893  1.00  0.00    -0.327 N 
HETATM   19  C   UNL     1       7.637  22.586  53.545  1.00  0.00     0.218 C 
HETATM   20  C   UNL     1       7.976  23.728  52.637  1.00  0.00     0.117 C 
HETATM   21  O   UNL     1       7.462  21.454  53.081  1.00  0.00    -0.274 OA
HETATM   22  H   UNL     1       7.396  21.835  55.330  1.00  0.00     0.169 HD
ENDBRANCH  14  18
ENDBRANCH   9  12
ENDBRANCH   7   8
ENDBRANCH   6   7
ENDBRANCH   3   6
BRANCH   2  23
HETATM   23  C   UNL     1       5.248  32.101  58.976  1.00  0.00     0.043 A 
HETATM   24  C   UNL     1       4.282  31.631  59.876  1.00  0.00     0.030 A 
HETATM   25  C   UNL     1       3.264  32.481  60.314  1.00  0.00     0.002 A 
HETATM   26  C   UNL     1       3.207  33.797  59.862  1.00  0.00     0.000 A 
HETATM   27  C   UNL     1       4.170  34.270  58.973  1.00  0.00     0.002 A 
HETATM   28  C   UNL     1       5.191  33.428  58.529  1.00  0.00     0.030 A 
ENDBRANCH   2  23
BRANCH   1  29
HETATM   29  C   UNL     1       7.790  31.179  60.642  1.00  0.00     0.150 C 
HETATM   30  C   UNL     1       9.222  30.724  60.965  1.00  0.00     0.040 C 
BRANCH  29  31
HETATM   31  N   UNL     1       7.688  32.620  60.926  1.00  0.00    -0.379 N 
HETATM   32  H   UNL     1       8.457  33.139  60.506  1.00  0.00     0.160 HD
BRANCH  31  33
HETATM   33  C   UNL     1       7.242  33.132  62.137  1.00  0.00     0.028 A 
HETATM   34  C   UNL     1       6.159  34.025  62.137  1.00  0.00     0.030 A 
HETATM   35  C   UNL     1       5.627  34.531  63.327  1.00  0.00     0.021 A 
HETATM   36  C   UNL     1       6.160  34.122  64.544  1.00  0.00     0.011 A 
HETATM   37 BR   UNL     1       5.432  34.776  66.160  1.00  0.00    -0.051 Br
HETATM   38  C   UNL     1       7.219  33.219  64.574  1.00  0.00     0.021 A 
HETATM   39  C   UNL     1       7.752  32.729  63.376  1.00  0.00     0.030 A 
ENDBRANCH  31  33
ENDBRANCH  29  31
ENDBRANCH   1  29
TORSDOF 9
ENDMDL
MODEL 10
REMARK VINA RESULT:      -9.2      4.515     11.428
REMARK  9 active torsions:
REMARK  status: ('A' for Active; 'I' for Inactive)
REMARK    1  A    between atoms: C_2  and  N_3 
REMARK    2  A    between atoms: C_2  and  C_11 
REMARK    3  A    between atoms: N_3  and  C_4 
REMARK    4  A    between atoms: N_12  and  C_13 
REMARK    5  A    between atoms: C_19  and  S_20 
REMARK    6  A    between atoms: S_20  and  C_21 
REMARK    7  A    between atoms: C_21  and  C_22 
REMARK       I    between atoms: C_22  and  N_23 
REMARK    8  A    between atoms: N_23  and  C_24 
REMARK    9  A    between atoms: C_26  and  N_27 
REMARK       I    between atoms: N_27  and  C_28 
ROOT
HETATM    1  C   UNL     1       5.571  34.660  64.825  1.00  0.00     0.158 A 
HETATM    2  N   UNL     1       5.435  33.890  63.669  1.00  0.00    -0.274 N 
HETATM    3  C   UNL     1       6.367  32.878  63.839  1.00  0.00     0.196 A 
HETATM    4  N   UNL     1       7.067  33.078  64.933  1.00  0.00    -0.122 NA
HETATM    5  N   UNL     1       6.573  34.184  65.549  1.00  0.00    -0.131 NA
ENDROOT
BRANCH   3   6
HETATM    6  S   UNL     1       6.736  31.624  62.698  1.00  0.00    -0.080 SA
BRANCH   6   7
HETATM    7  C   UNL     1       8.391  32.135  62.141  1.00  0.00     0.185 C 
BRANCH   7   8
HETATM    8  C   UNL     1       8.924  31.149  61.113  1.00  0.00     0.231 C 
HETATM    9  N   UNL     1       8.796  31.586  59.803  1.00  0.00    -0.326 N 
HETATM   10  H   UNL     1       8.334  32.486  59.669  1.00  0.00     0.169 HD
HETATM   11  O   UNL     1       9.399  30.076  61.478  1.00  0.00    -0.272 OA
BRANCH   9  12
HETATM   12  C   UNL     1       9.147  30.884  58.628  1.00  0.00     0.036 A 
HETATM   13  C   UNL     1       8.172  30.035  58.069  1.00  0.00     0.059 A 
HETATM   14  C   UNL     1       8.439  29.291  56.915  1.00  0.00     0.036 A 
HETATM   15  C   UNL     1       9.708  29.395  56.332  1.00  0.00     0.029 A 
HETATM   16  C   UNL     1      10.677  30.238  56.871  1.00  0.00     0.004 A 
HETATM   17  C   UNL     1      10.395  30.982  58.015  1.00  0.00     0.029 A 
BRANCH  14  18
HETATM   18  N   UNL     1       7.548  28.403  56.283  1.00  0.00    -0.327 N 
HETATM   19  C   UNL     1       7.311  27.066  56.366  1.00  0.00     0.218 C 
HETATM   20  C   UNL     1       7.999  26.197  57.373  1.00  0.00     0.117 C 
HETATM   21  O   UNL     1       6.479  26.581  55.591  1.00  0.00    -0.274 OA
HETATM   22  H   UNL     1       6.918  28.820  55.606  1.00  0.00     0.169 HD
ENDBRANCH  14  18
ENDBRANCH   9  12
ENDBRANCH   7   8
ENDBRANCH   6   7
ENDBRANCH   3   6
BRANCH   2  23
HETATM   23  C   UNL     1       4.549  34.105  62.581  1.00  0.00     0.043 A 
HETATM   24  C   UNL     1       5.054  34.504  61.336  1.00  0.00     0.030 A 
HETATM   25  C   UNL     1       4.182  34.723  60.268  1.00  0.00     0.002 A 
HETATM   26  C   UNL     1       2.810  34.543  60.434  1.00  0.00     0.000 A 
HETATM   27  C   UNL     1       2.306  34.140  61.669  1.00  0.00     0.002 A 
HETATM   28  C   UNL     1       3.170  33.920  62.743  1.00  0.00     0.030 A 
ENDBRANCH   2  23
BRANCH   1  29
HETATM   29  C   UNL     1       4.645  35.768  65.286  1.00  0.00     0.150 C 
HETATM   30  C   UNL     1       4.559  35.796  66.819  1.00  0.00     0.040 C 
BRANCH  29  31
HETATM   31  N   UNL     1       5.129  37.081  64.827  1.00  0.00    -0.379 N 
HETATM   32  H   UNL     1       5.020  37.792  65.548  1.00  0.00     0.160 HD
BRANCH  31  33
HETATM   33  C   UNL     1       4.964  37.548  63.530  1.00  0.00     0.028 A 
HETATM   34  C   UNL     1       6.105  37.830  62.762  1.00  0.00     0.030 A 
HETATM   35  C   UNL     1       6.006  38.248  61.431  1.00  0.00     0.021 A 
HETATM   36  C   UNL     1       4.753  38.362  60.840  1.00  0.00     0.011 A 
HETATM   37 BR   UNL     1       4.608  38.899  59.034  1.00  0.00    -0.051 Br
HETATM   38  C   UNL     1       3.607  38.067  61.571  1.00  0.00     0.021 A 
HETATM   39  C   UNL     1       3.717  37.661  62.907  1.00  0.00     0.030 A 
ENDBRANCH  31  33
ENDBRANCH  29  31
ENDBRANCH   1  29
TORSDOF 9
ENDMDL
