MODEL 1
REMARK VINA RESULT:      -8.3      0.000      0.000
REMARK  7 active torsions:
REMARK  status: ('A' for Active; 'I' for Inactive)
REMARK    1  A    between atoms: C_2  and  C_3 
REMARK    2  A    between atoms: C_3  and  N_4 
REMARK    3  A    between atoms: C_7  and  C_8 
REMARK       I    between atoms: C_8  and  N_9 
REMARK    4  A    between atoms: N_9  and  C_10 
REMARK    5  A    between atoms: C_11  and  O_12 
REMARK    6  A    between atoms: C_16  and  C_17 
REMARK       I    between atoms: C_17  and  N_18 
REMARK    7  A    between atoms: C_23  and  C_24 
ROOT
HETATM    1  C   UNL     1       5.437  26.291  56.414  1.00  0.00     0.259 C 
HETATM    2  N   UNL     1       5.338  25.584  55.241  1.00  0.00    -0.320 N 
HETATM    3  O   UNL     1       4.410  26.414  57.084  1.00  0.00    -0.267 OA
HETATM    4  H   UNL     1       4.377  25.532  54.912  1.00  0.00     0.169 HD
ENDROOT
BRANCH   2   5
HETATM    5  C   UNL     1       6.269  24.936  54.409  1.00  0.00     0.069 A 
HETATM    6  C   UNL     1       6.444  25.485  53.120  1.00  0.00     0.095 A 
HETATM    7  C   UNL     1       7.341  24.901  52.226  1.00  0.00     0.040 A 
HETATM    8  C   UNL     1       8.051  23.761  52.606  1.00  0.00     0.020 A 
HETATM    9  C   UNL     1       7.848  23.185  53.866  1.00  0.00     0.034 A 
HETATM   10  C   UNL     1       6.959  23.777  54.775  1.00  0.00     0.049 A 
BRANCH   6  11
HETATM   11  O   UNL     1       5.682  26.594  52.836  1.00  0.00    -0.354 OA
HETATM   12  C   UNL     1       5.402  26.822  51.458  1.00  0.00     0.210 C 
ENDBRANCH   6  11
BRANCH   9  13
HETATM   13  C   UNL     1       8.593  21.938  54.180  1.00  0.00     0.251 C 
HETATM   14  N   UNL     1       8.788  21.666  55.519  1.00  0.00    -0.361 N 
HETATM   15  C   UNL     1       9.347  20.399  55.927  1.00  0.00     0.149 C 
HETATM   16  H   UNL     1       8.273  22.197  56.208  1.00  0.00     0.162 HD
HETATM   17  O   UNL     1       8.943  21.188  53.276  1.00  0.00    -0.268 OA
ENDBRANCH   9  13
ENDBRANCH   2   5
BRANCH   1  18
HETATM   18  C   UNL     1       6.672  26.990  56.757  1.00  0.00     0.076 A 
HETATM   19  C   UNL     1       7.848  26.447  57.322  1.00  0.00     0.158 A 
HETATM   20  N   UNL     1       8.832  27.332  57.437  1.00  0.00    -0.183 NA
HETATM   21  N   UNL     1       8.321  28.463  56.904  1.00  0.00    -0.268 N 
HETATM   22  C   UNL     1       7.049  28.289  56.409  1.00  0.00     0.052 A 
BRANCH  21  23
HETATM   23  C   UNL     1       9.127  29.673  57.021  1.00  0.00     0.106 C 
HETATM   24  C   UNL     1      10.585  29.386  56.657  1.00  0.00     0.034 C 
BRANCH  23  25
HETATM   25  C   UNL     1       9.023  30.333  58.413  1.00  0.00     0.022 C 
HETATM   26  C   UNL     1       9.948  31.536  58.560  1.00  0.00     0.007 C 
ENDBRANCH  23  25
ENDBRANCH  21  23
BRANCH  22  27
HETATM   27  C   UNL     1       6.159  29.216  55.576  1.00  0.00     0.038 A 
HETATM   28  C   UNL     1       4.714  29.561  55.805  1.00  0.00     0.011 A 
HETATM   29  C   UNL     1       5.772  30.521  56.241  1.00  0.00     0.011 A 
ENDBRANCH  22  27
ENDBRANCH   1  18
TORSDOF 7
ENDMDL
MODEL 2
REMARK VINA RESULT:      -8.0      1.741      3.933
REMARK  7 active torsions:
REMARK  status: ('A' for Active; 'I' for Inactive)
REMARK    1  A    between atoms: C_2  and  C_3 
REMARK    2  A    between atoms: C_3  and  N_4 
REMARK    3  A    between atoms: C_7  and  C_8 
REMARK       I    between atoms: C_8  and  N_9 
REMARK    4  A    between atoms: N_9  and  C_10 
REMARK    5  A    between atoms: C_11  and  O_12 
REMARK    6  A    between atoms: C_16  and  C_17 
REMARK       I    between atoms: C_17  and  N_18 
REMARK    7  A    between atoms: C_23  and  C_24 
ROOT
HETATM    1  C   UNL     1       5.370  25.602  56.876  1.00  0.00     0.259 C 
HETATM    2  N   UNL     1       4.930  25.352  55.600  1.00  0.00    -0.320 N 
HETATM    3  O   UNL     1       4.703  25.135  57.802  1.00  0.00    -0.267 OA
HETATM    4  H   UNL     1       3.946  25.098  55.584  1.00  0.00     0.169 HD
ENDROOT
BRANCH   2   5
HETATM    5  C   UNL     1       5.540  25.381  54.333  1.00  0.00     0.069 A 
HETATM    6  C   UNL     1       6.563  24.435  54.109  1.00  0.00     0.095 A 
HETATM    7  C   UNL     1       7.228  24.400  52.883  1.00  0.00     0.040 A 
HETATM    8  C   UNL     1       6.888  25.314  51.886  1.00  0.00     0.020 A 
HETATM    9  C   UNL     1       5.905  26.285  52.118  1.00  0.00     0.034 A 
HETATM   10  C   UNL     1       5.223  26.316  53.343  1.00  0.00     0.049 A 
BRANCH   6  11
HETATM   11  O   UNL     1       6.839  23.594  55.161  1.00  0.00    -0.354 OA
HETATM   12  C   UNL     1       7.621  22.444  54.853  1.00  0.00     0.210 C 
ENDBRANCH   6  11
BRANCH   9  13
HETATM   13  C   UNL     1       5.637  27.265  51.034  1.00  0.00     0.251 C 
HETATM   14  N   UNL     1       5.347  26.736  49.792  1.00  0.00    -0.361 N 
HETATM   15  C   UNL     1       4.906  27.598  48.722  1.00  0.00     0.149 C 
HETATM   16  H   UNL     1       5.146  25.749  49.714  1.00  0.00     0.162 HD
HETATM   17  O   UNL     1       5.620  28.466  51.282  1.00  0.00    -0.268 OA
ENDBRANCH   9  13
ENDBRANCH   2   5
BRANCH   1  18
HETATM   18  C   UNL     1       6.488  26.510  57.111  1.00  0.00     0.076 A 
HETATM   19  C   UNL     1       7.865  26.195  57.172  1.00  0.00     0.158 A 
HETATM   20  N   UNL     1       8.642  27.263  57.317  1.00  0.00    -0.183 NA
HETATM   21  N   UNL     1       7.778  28.301  57.309  1.00  0.00    -0.268 N 
HETATM   22  C   UNL     1       6.475  27.907  57.110  1.00  0.00     0.052 A 
BRANCH  21  23
HETATM   23  C   UNL     1       8.327  29.621  57.602  1.00  0.00     0.106 C 
HETATM   24  C   UNL     1       9.797  29.697  57.186  1.00  0.00     0.034 C 
BRANCH  23  25
HETATM   25  C   UNL     1       8.148  30.033  59.079  1.00  0.00     0.022 C 
HETATM   26  C   UNL     1       7.497  31.403  59.229  1.00  0.00     0.007 C 
ENDBRANCH  23  25
ENDBRANCH  21  23
BRANCH  22  27
HETATM   27  C   UNL     1       5.206  28.725  56.855  1.00  0.00     0.038 A 
HETATM   28  C   UNL     1       5.090  30.210  56.644  1.00  0.00     0.011 A 
HETATM   29  C   UNL     1       5.067  29.300  55.461  1.00  0.00     0.011 A 
ENDBRANCH  22  27
ENDBRANCH   1  18
TORSDOF 7
ENDMDL
MODEL 3
REMARK VINA RESULT:      -7.6      1.856      4.531
REMARK  7 active torsions:
REMARK  status: ('A' for Active; 'I' for Inactive)
REMARK    1  A    between atoms: C_2  and  C_3 
REMARK    2  A    between atoms: C_3  and  N_4 
REMARK    3  A    between atoms: C_7  and  C_8 
REMARK       I    between atoms: C_8  and  N_9 
REMARK    4  A    between atoms: N_9  and  C_10 
REMARK    5  A    between atoms: C_11  and  O_12 
REMARK    6  A    between atoms: C_16  and  C_17 
REMARK       I    between atoms: C_17  and  N_18 
REMARK    7  A    between atoms: C_23  and  C_24 
ROOT
HETATM    1  C   UNL     1       5.125  25.601  56.708  1.00  0.00     0.259 C 
HETATM    2  N   UNL     1       4.870  25.128  55.444  1.00  0.00    -0.320 N 
HETATM    3  O   UNL     1       4.607  24.995  57.648  1.00  0.00    -0.267 OA
HETATM    4  H   UNL     1       4.036  24.548  55.419  1.00  0.00     0.169 HD
ENDROOT
BRANCH   2   5
HETATM    5  C   UNL     1       5.503  25.282  54.197  1.00  0.00     0.069 A 
HETATM    6  C   UNL     1       6.508  24.341  53.885  1.00  0.00     0.095 A 
HETATM    7  C   UNL     1       7.194  24.424  52.673  1.00  0.00     0.040 A 
HETATM    8  C   UNL     1       6.893  25.452  51.779  1.00  0.00     0.020 A 
HETATM    9  C   UNL     1       5.930  26.415  52.102  1.00  0.00     0.034 A 
HETATM   10  C   UNL     1       5.226  26.328  53.312  1.00  0.00     0.049 A 
BRANCH   6  11
HETATM   11  O   UNL     1       6.745  23.382  54.842  1.00  0.00    -0.354 OA
HETATM   12  C   UNL     1       7.641  22.339  54.472  1.00  0.00     0.210 C 
ENDBRANCH   6  11
BRANCH   9  13
HETATM   13  C   UNL     1       5.704  27.515  51.129  1.00  0.00     0.251 C 
HETATM   14  N   UNL     1       5.513  27.138  49.815  1.00  0.00    -0.361 N 
HETATM   15  C   UNL     1       5.118  28.115  48.830  1.00  0.00     0.149 C 
HETATM   16  H   UNL     1       5.347  26.164  49.604  1.00  0.00     0.162 HD
HETATM   17  O   UNL     1       5.635  28.676  51.520  1.00  0.00    -0.268 OA
ENDBRANCH   9  13
ENDBRANCH   2   5
BRANCH   1  18
HETATM   18  C   UNL     1       5.847  26.854  56.899  1.00  0.00     0.076 A 
HETATM   19  C   UNL     1       5.344  28.171  56.795  1.00  0.00     0.158 A 
HETATM   20  N   UNL     1       6.238  29.102  57.112  1.00  0.00    -0.183 NA
HETATM   21  N   UNL     1       7.333  28.397  57.470  1.00  0.00    -0.268 N 
HETATM   22  C   UNL     1       7.125  27.037  57.434  1.00  0.00     0.052 A 
BRANCH  21  23
HETATM   23  C   UNL     1       8.551  29.155  57.735  1.00  0.00     0.106 C 
HETATM   24  C   UNL     1       8.215  30.519  58.340  1.00  0.00     0.034 C 
BRANCH  23  25
HETATM   25  C   UNL     1       9.446  29.309  56.486  1.00  0.00     0.022 C 
HETATM   26  C   UNL     1      10.903  29.586  56.842  1.00  0.00     0.007 C 
ENDBRANCH  23  25
ENDBRANCH  21  23
BRANCH  22  27
HETATM   27  C   UNL     1       7.998  25.874  57.915  1.00  0.00     0.038 A 
HETATM   28  C   UNL     1       8.053  24.474  57.370  1.00  0.00     0.011 A 
HETATM   29  C   UNL     1       9.106  25.455  56.971  1.00  0.00     0.011 A 
ENDBRANCH  22  27
ENDBRANCH   1  18
TORSDOF 7
ENDMDL
MODEL 4
REMARK VINA RESULT:      -7.6      7.711     11.443
REMARK  7 active torsions:
REMARK  status: ('A' for Active; 'I' for Inactive)
REMARK    1  A    between atoms: C_2  and  C_3 
REMARK    2  A    between atoms: C_3  and  N_4 
REMARK    3  A    between atoms: C_7  and  C_8 
REMARK       I    between atoms: C_8  and  N_9 
REMARK    4  A    between atoms: N_9  and  C_10 
REMARK    5  A    between atoms: C_11  and  O_12 
REMARK    6  A    between atoms: C_16  and  C_17 
REMARK       I    between atoms: C_17  and  N_18 
REMARK    7  A    between atoms: C_23  and  C_24 
ROOT
HETATM    1  C   UNL     1       3.096  33.736  63.007  1.00  0.00     0.259 C 
HETATM    2  N   UNL     1       4.038  32.796  63.345  1.00  0.00    -0.320 N 
HETATM    3  O   UNL     1       2.037  33.722  63.637  1.00  0.00    -0.267 OA
HETATM    4  H   UNL     1       3.625  32.009  63.840  1.00  0.00     0.169 HD
ENDROOT
BRANCH   2   5
HETATM    5  C   UNL     1       5.427  32.688  63.148  1.00  0.00     0.069 A 
HETATM    6  C   UNL     1       6.244  33.070  64.234  1.00  0.00     0.095 A 
HETATM    7  C   UNL     1       7.633  33.004  64.122  1.00  0.00     0.040 A 
HETATM    8  C   UNL     1       8.210  32.575  62.927  1.00  0.00     0.020 A 
HETATM    9  C   UNL     1       7.406  32.238  61.831  1.00  0.00     0.034 A 
HETATM   10  C   UNL     1       6.009  32.287  61.942  1.00  0.00     0.049 A 
BRANCH   6  11
HETATM   11  O   UNL     1       5.580  33.500  65.359  1.00  0.00    -0.354 OA
HETATM   12  C   UNL     1       6.389  34.070  66.382  1.00  0.00     0.210 C 
ENDBRANCH   6  11
BRANCH   9  13
HETATM   13  C   UNL     1       8.089  31.847  60.571  1.00  0.00     0.251 C 
HETATM   14  N   UNL     1       7.974  30.522  60.200  1.00  0.00    -0.361 N 
HETATM   15  C   UNL     1       8.455  30.085  58.912  1.00  0.00     0.149 C 
HETATM   16  H   UNL     1       7.299  29.937  60.673  1.00  0.00     0.162 HD
HETATM   17  O   UNL     1       8.660  32.695  59.893  1.00  0.00    -0.268 OA
ENDBRANCH   9  13
ENDBRANCH   2   5
BRANCH   1  18
HETATM   18  C   UNL     1       3.295  34.600  61.848  1.00  0.00     0.076 A 
HETATM   19  C   UNL     1       3.096  34.283  60.485  1.00  0.00     0.158 A 
HETATM   20  N   UNL     1       3.284  35.318  59.672  1.00  0.00    -0.183 NA
HETATM   21  N   UNL     1       3.569  36.342  60.505  1.00  0.00    -0.268 N 
HETATM   22  C   UNL     1       3.513  35.980  61.832  1.00  0.00     0.052 A 
BRANCH  21  23
HETATM   23  C   UNL     1       3.976  37.602  59.891  1.00  0.00     0.106 C 
HETATM   24  C   UNL     1       2.871  38.650  60.031  1.00  0.00     0.034 C 
BRANCH  23  25
HETATM   25  C   UNL     1       4.402  37.441  58.415  1.00  0.00     0.022 C 
HETATM   26  C   UNL     1       5.304  38.575  57.941  1.00  0.00     0.007 C 
ENDBRANCH  23  25
ENDBRANCH  21  23
BRANCH  22  27
HETATM   27  C   UNL     1       3.584  36.824  63.107  1.00  0.00     0.038 A 
HETATM   28  C   UNL     1       4.380  36.549  64.353  1.00  0.00     0.011 A 
HETATM   29  C   UNL     1       4.903  37.527  63.353  1.00  0.00     0.011 A 
ENDBRANCH  22  27
ENDBRANCH   1  18
TORSDOF 7
ENDMDL
MODEL 5
REMARK VINA RESULT:      -7.6      1.850      4.572
REMARK  7 active torsions:
REMARK  status: ('A' for Active; 'I' for Inactive)
REMARK    1  A    between atoms: C_2  and  C_3 
REMARK    2  A    between atoms: C_3  and  N_4 
REMARK    3  A    between atoms: C_7  and  C_8 
REMARK       I    between atoms: C_8  and  N_9 
REMARK    4  A    between atoms: N_9  and  C_10 
REMARK    5  A    between atoms: C_11  and  O_12 
REMARK    6  A    between atoms: C_16  and  C_17 
REMARK       I    between atoms: C_17  and  N_18 
REMARK    7  A    between atoms: C_23  and  C_24 
ROOT
HETATM    1  C   UNL     1       8.044  24.984  57.408  1.00  0.00     0.259 C 
HETATM    2  N   UNL     1       8.178  23.895  56.582  1.00  0.00    -0.320 N 
HETATM    3  O   UNL     1       8.731  24.999  58.431  1.00  0.00    -0.267 OA
HETATM    4  H   UNL     1       8.574  23.097  57.071  1.00  0.00     0.169 HD
ENDROOT
BRANCH   2   5
HETATM    5  C   UNL     1       7.879  23.654  55.229  1.00  0.00     0.069 A 
HETATM    6  C   UNL     1       8.616  22.626  54.599  1.00  0.00     0.095 A 
HETATM    7  C   UNL     1       8.391  22.325  53.256  1.00  0.00     0.040 A 
HETATM    8  C   UNL     1       7.447  23.055  52.533  1.00  0.00     0.020 A 
HETATM    9  C   UNL     1       6.745  24.105  53.139  1.00  0.00     0.034 A 
HETATM   10  C   UNL     1       6.956  24.402  54.493  1.00  0.00     0.049 A 
BRANCH   6  11
HETATM   11  O   UNL     1       9.538  21.983  55.391  1.00  0.00    -0.354 OA
HETATM   12  C   UNL     1       9.260  20.618  55.689  1.00  0.00     0.210 C 
ENDBRANCH   6  11
BRANCH   9  13
HETATM   13  C   UNL     1       5.799  24.878  52.294  1.00  0.00     0.251 C 
HETATM   14  N   UNL     1       6.362  25.813  51.448  1.00  0.00    -0.361 N 
HETATM   15  C   UNL     1       5.546  26.489  50.469  1.00  0.00     0.149 C 
HETATM   16  H   UNL     1       7.362  25.801  51.299  1.00  0.00     0.162 HD
HETATM   17  O   UNL     1       4.599  24.627  52.327  1.00  0.00    -0.268 OA
ENDBRANCH   9  13
ENDBRANCH   2   5
BRANCH   1  18
HETATM   18  C   UNL     1       7.018  25.988  57.151  1.00  0.00     0.076 A 
HETATM   19  C   UNL     1       5.619  25.861  57.311  1.00  0.00     0.158 A 
HETATM   20  N   UNL     1       4.958  26.988  57.071  1.00  0.00    -0.183 NA
HETATM   21  N   UNL     1       5.928  27.885  56.792  1.00  0.00    -0.268 N 
HETATM   22  C   UNL     1       7.192  27.352  56.902  1.00  0.00     0.052 A 
BRANCH  21  23
HETATM   23  C   UNL     1       5.500  29.204  56.336  1.00  0.00     0.106 C 
HETATM   24  C   UNL     1       4.690  29.912  57.424  1.00  0.00     0.034 C 
BRANCH  23  25
HETATM   25  C   UNL     1       4.718  29.155  55.006  1.00  0.00     0.022 C 
HETATM   26  C   UNL     1       5.523  28.521  53.878  1.00  0.00     0.007 C 
ENDBRANCH  23  25
ENDBRANCH  21  23
BRANCH  22  27
HETATM   27  C   UNL     1       8.570  28.017  56.854  1.00  0.00     0.038 A 
HETATM   28  C   UNL     1       8.929  29.360  56.282  1.00  0.00     0.011 A 
HETATM   29  C   UNL     1       8.747  29.220  57.757  1.00  0.00     0.011 A 
ENDBRANCH  22  27
ENDBRANCH   1  18
TORSDOF 7
ENDMDL
MODEL 6
REMARK VINA RESULT:      -7.5      7.861     11.631
REMARK  7 active torsions:
REMARK  status: ('A' for Active; 'I' for Inactive)
REMARK    1  A    between atoms: C_2  and  C_3 
REMARK    2  A    between atoms: C_3  and  N_4 
REMARK    3  A    between atoms: C_7  and  C_8 
REMARK       I    between atoms: C_8  and  N_9 
REMARK    4  A    between atoms: N_9  and  C_10 
REMARK    5  A    between atoms: C_11  and  O_12 
REMARK    6  A    between atoms: C_16  and  C_17 
REMARK       I    between atoms: C_17  and  N_18 
REMARK    7  A    between atoms: C_23  and  C_24 
ROOT
HETATM    1  C   UNL     1       2.946  33.988  63.367  1.00  0.00     0.259 C 
HETATM    2  N   UNL     1       3.843  32.966  63.551  1.00  0.00    -0.320 N 
HETATM    3  O   UNL     1       1.788  33.794  63.742  1.00  0.00    -0.267 OA
HETATM    4  H   UNL     1       3.375  32.071  63.670  1.00  0.00     0.169 HD
ENDROOT
BRANCH   2   5
HETATM    5  C   UNL     1       5.247  32.894  63.600  1.00  0.00     0.069 A 
HETATM    6  C   UNL     1       5.868  33.520  64.703  1.00  0.00     0.095 A 
HETATM    7  C   UNL     1       7.257  33.506  64.825  1.00  0.00     0.040 A 
HETATM    8  C   UNL     1       8.031  32.884  63.845  1.00  0.00     0.020 A 
HETATM    9  C   UNL     1       7.424  32.301  62.725  1.00  0.00     0.034 A 
HETATM   10  C   UNL     1       6.027  32.299  62.604  1.00  0.00     0.049 A 
BRANCH   6  11
HETATM   11  O   UNL     1       5.019  34.124  65.601  1.00  0.00    -0.354 OA
HETATM   12  C   UNL     1       5.548  34.350  66.904  1.00  0.00     0.210 C 
ENDBRANCH   6  11
BRANCH   9  13
HETATM   13  C   UNL     1       8.312  31.710  61.691  1.00  0.00     0.251 C 
HETATM   14  N   UNL     1       7.709  30.868  60.778  1.00  0.00    -0.361 N 
HETATM   15  C   UNL     1       8.451  30.384  59.639  1.00  0.00     0.149 C 
HETATM   16  H   UNL     1       6.700  30.839  60.730  1.00  0.00     0.162 HD
HETATM   17  O   UNL     1       9.496  32.027  61.645  1.00  0.00    -0.268 OA
ENDBRANCH   9  13
ENDBRANCH   2   5
BRANCH   1  18
HETATM   18  C   UNL     1       3.325  35.182  62.618  1.00  0.00     0.076 A 
HETATM   19  C   UNL     1       3.832  36.400  63.125  1.00  0.00     0.158 A 
HETATM   20  N   UNL     1       4.162  37.268  62.175  1.00  0.00    -0.183 NA
HETATM   21  N   UNL     1       3.913  36.606  61.024  1.00  0.00    -0.268 N 
HETATM   22  C   UNL     1       3.480  35.316  61.236  1.00  0.00     0.052 A 
BRANCH  21  23
HETATM   23  C   UNL     1       4.040  37.363  59.783  1.00  0.00     0.106 C 
HETATM   24  C   UNL     1       4.898  38.610  59.999  1.00  0.00     0.034 C 
BRANCH  23  25
HETATM   25  C   UNL     1       2.676  37.730  59.161  1.00  0.00     0.022 C 
HETATM   26  C   UNL     1       2.110  39.030  59.720  1.00  0.00     0.007 C 
ENDBRANCH  23  25
ENDBRANCH  21  23
BRANCH  22  27
HETATM   27  C   UNL     1       3.251  34.161  60.259  1.00  0.00     0.038 A 
HETATM   28  C   UNL     1       3.413  34.168  58.764  1.00  0.00     0.011 A 
HETATM   29  C   UNL     1       4.498  33.593  59.613  1.00  0.00     0.011 A 
ENDBRANCH  22  27
ENDBRANCH   1  18
TORSDOF 7
ENDMDL
MODEL 7
REMARK VINA RESULT:      -7.2      2.135      4.579
REMARK  7 active torsions:
REMARK  status: ('A' for Active; 'I' for Inactive)
REMARK    1  A    between atoms: C_2  and  C_3 
REMARK    2  A    between atoms: C_3  and  N_4 
REMARK    3  A    between atoms: C_7  and  C_8 
REMARK       I    between atoms: C_8  and  N_9 
REMARK    4  A    between atoms: N_9  and  C_10 
REMARK    5  A    between atoms: C_11  and  O_12 
REMARK    6  A    between atoms: C_16  and  C_17 
REMARK       I    between atoms: C_17  and  N_18 
REMARK    7  A    between atoms: C_23  and  C_24 
ROOT
HETATM    1  C   UNL     1       5.054  25.787  56.718  1.00  0.00     0.259 C 
HETATM    2  N   UNL     1       5.222  24.985  55.617  1.00  0.00    -0.320 N 
HETATM    3  O   UNL     1       4.774  25.229  57.781  1.00  0.00    -0.267 OA
HETATM    4  H   UNL     1       4.779  24.078  55.740  1.00  0.00     0.169 HD
ENDROOT
BRANCH   2   5
HETATM    5  C   UNL     1       5.858  25.153  54.373  1.00  0.00     0.069 A 
HETATM    6  C   UNL     1       7.105  24.510  54.216  1.00  0.00     0.095 A 
HETATM    7  C   UNL     1       7.808  24.631  53.018  1.00  0.00     0.040 A 
HETATM    8  C   UNL     1       7.282  25.404  51.982  1.00  0.00     0.020 A 
HETATM    9  C   UNL     1       6.068  26.081  52.149  1.00  0.00     0.034 A 
HETATM   10  C   UNL     1       5.348  25.951  53.345  1.00  0.00     0.049 A 
BRANCH   6  11
HETATM   11  O   UNL     1       7.547  23.791  55.302  1.00  0.00    -0.354 OA
HETATM   12  C   UNL     1       8.815  23.160  55.158  1.00  0.00     0.210 C 
ENDBRANCH   6  11
BRANCH   9  13
HETATM   13  C   UNL     1       5.597  26.935  51.027  1.00  0.00     0.251 C 
HETATM   14  N   UNL     1       5.156  26.271  49.899  1.00  0.00    -0.361 N 
HETATM   15  C   UNL     1       4.523  27.003  48.829  1.00  0.00     0.149 C 
HETATM   16  H   UNL     1       4.994  25.275  49.949  1.00  0.00     0.162 HD
HETATM   17  O   UNL     1       5.558  28.154  51.157  1.00  0.00    -0.268 OA
ENDBRANCH   9  13
ENDBRANCH   2   5
BRANCH   1  18
HETATM   18  C   UNL     1       5.054  27.240  56.584  1.00  0.00     0.076 A 
HETATM   19  C   UNL     1       3.981  28.076  56.200  1.00  0.00     0.158 A 
HETATM   20  N   UNL     1       4.279  29.370  56.255  1.00  0.00    -0.183 NA
HETATM   21  N   UNL     1       5.546  29.397  56.721  1.00  0.00    -0.268 N 
HETATM   22  C   UNL     1       6.033  28.142  57.009  1.00  0.00     0.052 A 
BRANCH  21  23
HETATM   23  C   UNL     1       6.213  30.694  56.752  1.00  0.00     0.106 C 
HETATM   24  C   UNL     1       6.610  31.062  58.182  1.00  0.00     0.034 C 
BRANCH  23  25
HETATM   25  C   UNL     1       5.374  31.817  56.104  1.00  0.00     0.022 C 
HETATM   26  C   UNL     1       4.991  32.907  57.099  1.00  0.00     0.007 C 
ENDBRANCH  23  25
ENDBRANCH  21  23
BRANCH  22  27
HETATM   27  C   UNL     1       7.321  27.701  57.708  1.00  0.00     0.038 A 
HETATM   28  C   UNL     1       8.296  26.643  57.269  1.00  0.00     0.011 A 
HETATM   29  C   UNL     1       8.609  28.079  57.006  1.00  0.00     0.011 A 
ENDBRANCH  22  27
ENDBRANCH   1  18
TORSDOF 7
ENDMDL
MODEL 8
REMARK VINA RESULT:      -7.0      2.949      5.994
REMARK  7 active torsions:
REMARK  status: ('A' for Active; 'I' for Inactive)
REMARK    1  A    between atoms: C_2  and  C_3 
REMARK    2  A    between atoms: C_3  and  N_4 
REMARK    3  A    between atoms: C_7  and  C_8 
REMARK       I    between atoms: C_8  and  N_9 
REMARK    4  A    between atoms: N_9  and  C_10 
REMARK    5  A    between atoms: C_11  and  O_12 
REMARK    6  A    between atoms: C_16  and  C_17 
REMARK       I    between atoms: C_17  and  N_18 
REMARK    7  A    between atoms: C_23  and  C_24 
ROOT
HETATM    1  C   UNL     1       6.041  26.585  54.053  1.00  0.00     0.259 C 
HETATM    2  N   UNL     1       4.753  27.060  54.088  1.00  0.00    -0.320 N 
HETATM    3  O   UNL     1       6.208  25.447  53.610  1.00  0.00    -0.267 OA
HETATM    4  H   UNL     1       4.073  26.305  54.053  1.00  0.00     0.169 HD
ENDROOT
BRANCH   2   5
HETATM    5  C   UNL     1       4.188  28.345  54.171  1.00  0.00     0.069 A 
HETATM    6  C   UNL     1       3.924  28.992  52.944  1.00  0.00     0.095 A 
HETATM    7  C   UNL     1       3.371  30.273  52.934  1.00  0.00     0.040 A 
HETATM    8  C   UNL     1       3.096  30.917  54.141  1.00  0.00     0.020 A 
HETATM    9  C   UNL     1       3.398  30.299  55.360  1.00  0.00     0.034 A 
HETATM   10  C   UNL     1       3.939  29.005  55.378  1.00  0.00     0.049 A 
BRANCH   6  11
HETATM   11  O   UNL     1       4.251  28.283  51.813  1.00  0.00    -0.354 OA
HETATM   12  C   UNL     1       5.296  28.829  51.014  1.00  0.00     0.210 C 
ENDBRANCH   6  11
BRANCH   9  13
HETATM   13  C   UNL     1       3.135  31.067  56.605  1.00  0.00     0.251 C 
HETATM   14  N   UNL     1       3.496  30.454  57.788  1.00  0.00    -0.361 N 
HETATM   15  C   UNL     1       3.440  31.186  59.030  1.00  0.00     0.149 C 
HETATM   16  H   UNL     1       4.077  29.628  57.754  1.00  0.00     0.162 HD
HETATM   17  O   UNL     1       2.680  32.204  56.539  1.00  0.00    -0.268 OA
ENDBRANCH   9  13
ENDBRANCH   2   5
BRANCH   1  18
HETATM   18  C   UNL     1       7.129  27.345  54.662  1.00  0.00     0.076 A 
HETATM   19  C   UNL     1       7.970  28.300  54.048  1.00  0.00     0.158 A 
HETATM   20  N   UNL     1       8.813  28.880  54.896  1.00  0.00    -0.183 NA
HETATM   21  N   UNL     1       8.501  28.336  56.092  1.00  0.00    -0.268 N 
HETATM   22  C   UNL     1       7.440  27.462  56.019  1.00  0.00     0.052 A 
BRANCH  21  23
HETATM   23  C   UNL     1       9.367  28.671  57.217  1.00  0.00     0.106 C 
HETATM   24  C   UNL     1       8.614  29.520  58.243  1.00  0.00     0.034 C 
BRANCH  23  25
HETATM   25  C   UNL     1      10.677  29.363  56.782  1.00  0.00     0.022 C 
HETATM   26  C   UNL     1      10.894  30.699  57.484  1.00  0.00     0.007 C 
ENDBRANCH  23  25
ENDBRANCH  21  23
BRANCH  22  27
HETATM   27  C   UNL     1       6.639  26.760  57.118  1.00  0.00     0.038 A 
HETATM   28  C   UNL     1       6.148  25.339  57.140  1.00  0.00     0.011 A 
HETATM   29  C   UNL     1       7.387  25.696  57.894  1.00  0.00     0.011 A 
ENDBRANCH  22  27
ENDBRANCH   1  18
TORSDOF 7
ENDMDL
MODEL 9
REMARK VINA RESULT:      -7.0      3.244      6.304
REMARK  7 active torsions:
REMARK  status: ('A' for Active; 'I' for Inactive)
REMARK    1  A    between atoms: C_2  and  C_3 
REMARK    2  A    between atoms: C_3  and  N_4 
REMARK    3  A    between atoms: C_7  and  C_8 
REMARK       I    between atoms: C_8  and  N_9 
REMARK    4  A    between atoms: N_9  and  C_10 
REMARK    5  A    between atoms: C_11  and  O_12 
REMARK    6  A    between atoms: C_16  and  C_17 
REMARK       I    between atoms: C_17  and  N_18 
REMARK    7  A    between atoms: C_23  and  C_24 
ROOT
HETATM    1  C   UNL     1       4.419  28.140  53.609  1.00  0.00     0.259 C 
HETATM    2  N   UNL     1       4.548  29.003  52.548  1.00  0.00    -0.320 N 
HETATM    3  O   UNL     1       3.801  28.550  54.593  1.00  0.00    -0.267 OA
HETATM    4  H   UNL     1       4.407  29.969  52.829  1.00  0.00     0.169 HD
ENDROOT
BRANCH   2   5
HETATM    5  C   UNL     1       4.840  28.835  51.182  1.00  0.00     0.069 A 
HETATM    6  C   UNL     1       5.472  29.922  50.539  1.00  0.00     0.095 A 
HETATM    7  C   UNL     1       5.789  29.844  49.183  1.00  0.00     0.040 A 
HETATM    8  C   UNL     1       5.464  28.695  48.462  1.00  0.00     0.020 A 
HETATM    9  C   UNL     1       4.796  27.632  49.083  1.00  0.00     0.034 A 
HETATM   10  C   UNL     1       4.488  27.698  50.449  1.00  0.00     0.049 A 
BRANCH   6  11
HETATM   11  O   UNL     1       5.729  31.015  51.332  1.00  0.00    -0.354 OA
HETATM   12  C   UNL     1       5.246  32.264  50.847  1.00  0.00     0.210 C 
ENDBRANCH   6  11
BRANCH   9  13
HETATM   13  C   UNL     1       4.427  26.466  48.240  1.00  0.00     0.251 C 
HETATM   14  N   UNL     1       3.414  25.661  48.722  1.00  0.00    -0.361 N 
HETATM   15  C   UNL     1       2.870  24.609  47.899  1.00  0.00     0.149 C 
HETATM   16  H   UNL     1       2.855  25.989  49.497  1.00  0.00     0.162 HD
HETATM   17  O   UNL     1       4.970  26.297  47.154  1.00  0.00    -0.268 OA
ENDBRANCH   9  13
ENDBRANCH   2   5
BRANCH   1  18
HETATM   18  C   UNL     1       5.121  26.861  53.614  1.00  0.00     0.076 A 
HETATM   19  C   UNL     1       4.703  25.639  53.041  1.00  0.00     0.158 A 
HETATM   20  N   UNL     1       5.609  24.672  53.145  1.00  0.00    -0.183 NA
HETATM   21  N   UNL     1       6.656  25.269  53.755  1.00  0.00    -0.268 N 
HETATM   22  C   UNL     1       6.443  26.608  53.989  1.00  0.00     0.052 A 
BRANCH  21  23
HETATM   23  C   UNL     1       7.771  24.411  54.145  1.00  0.00     0.106 C 
HETATM   24  C   UNL     1       8.074  23.390  53.048  1.00  0.00     0.034 C 
BRANCH  23  25
HETATM   25  C   UNL     1       7.544  23.714  55.504  1.00  0.00     0.022 C 
HETATM   26  C   UNL     1       8.094  22.292  55.530  1.00  0.00     0.007 C 
ENDBRANCH  23  25
ENDBRANCH  21  23
BRANCH  22  27
HETATM   27  C   UNL     1       7.390  27.704  54.483  1.00  0.00     0.038 A 
HETATM   28  C   UNL     1       7.100  28.801  55.471  1.00  0.00     0.011 A 
HETATM   29  C   UNL     1       7.835  27.583  55.925  1.00  0.00     0.011 A 
ENDBRANCH  22  27
ENDBRANCH   1  18
TORSDOF 7
ENDMDL
MODEL 10
REMARK VINA RESULT:      -7.0      0.784      1.985
REMARK  7 active torsions:
REMARK  status: ('A' for Active; 'I' for Inactive)
REMARK    1  A    between atoms: C_2  and  C_3 
REMARK    2  A    between atoms: C_3  and  N_4 
REMARK    3  A    between atoms: C_7  and  C_8 
REMARK       I    between atoms: C_8  and  N_9 
REMARK    4  A    between atoms: N_9  and  C_10 
REMARK    5  A    between atoms: C_11  and  O_12 
REMARK    6  A    between atoms: C_16  and  C_17 
REMARK       I    between atoms: C_17  and  N_18 
REMARK    7  A    between atoms: C_23  and  C_24 
ROOT
HETATM    1  C   UNL     1       5.149  26.722  56.237  1.00  0.00     0.259 C 
HETATM    2  N   UNL     1       5.162  25.717  55.302  1.00  0.00    -0.320 N 
HETATM    3  O   UNL     1       4.227  26.716  57.055  1.00  0.00    -0.267 OA
HETATM    4  H   UNL     1       4.246  25.289  55.195  1.00  0.00     0.169 HD
ENDROOT
BRANCH   2   5
HETATM    5  C   UNL     1       6.155  25.172  54.468  1.00  0.00     0.069 A 
HETATM    6  C   UNL     1       6.322  25.787  53.208  1.00  0.00     0.095 A 
HETATM    7  C   UNL     1       7.278  25.305  52.315  1.00  0.00     0.040 A 
HETATM    8  C   UNL     1       8.057  24.201  52.665  1.00  0.00     0.020 A 
HETATM    9  C   UNL     1       7.865  23.559  53.895  1.00  0.00     0.034 A 
HETATM   10  C   UNL     1       6.916  24.048  54.804  1.00  0.00     0.049 A 
BRANCH   6  11
HETATM   11  O   UNL     1       5.491  26.852  52.950  1.00  0.00    -0.354 OA
HETATM   12  C   UNL     1       5.081  27.009  51.595  1.00  0.00     0.210 C 
ENDBRANCH   6  11
BRANCH   9  13
HETATM   13  C   UNL     1       8.687  22.353  54.176  1.00  0.00     0.251 C 
HETATM   14  N   UNL     1       8.712  21.925  55.489  1.00  0.00    -0.361 N 
HETATM   15  C   UNL     1       9.339  20.672  55.830  1.00  0.00     0.149 C 
HETATM   16  H   UNL     1       8.047  22.312  56.143  1.00  0.00     0.162 HD
HETATM   17  O   UNL     1       9.246  21.763  53.258  1.00  0.00    -0.268 OA
ENDBRANCH   9  13
ENDBRANCH   2   5
BRANCH   1  18
HETATM   18  C   UNL     1       6.100  27.826  56.154  1.00  0.00     0.076 A 
HETATM   19  C   UNL     1       5.918  29.083  55.533  1.00  0.00     0.158 A 
HETATM   20  N   UNL     1       6.947  29.906  55.703  1.00  0.00    -0.183 NA
HETATM   21  N   UNL     1       7.803  29.207  56.480  1.00  0.00    -0.268 N 
HETATM   22  C   UNL     1       7.305  27.976  56.844  1.00  0.00     0.052 A 
BRANCH  21  23
HETATM   23  C   UNL     1       9.114  29.801  56.722  1.00  0.00     0.106 C 
HETATM   24  C   UNL     1      10.209  28.984  56.035  1.00  0.00     0.034 C 
BRANCH  23  25
HETATM   25  C   UNL     1       9.421  29.987  58.223  1.00  0.00     0.022 C 
HETATM   26  C   UNL     1       9.851  31.411  58.559  1.00  0.00     0.007 C 
ENDBRANCH  23  25
ENDBRANCH  21  23
BRANCH  22  27
HETATM   27  C   UNL     1       7.829  26.935  57.836  1.00  0.00     0.038 A 
HETATM   28  C   UNL     1       7.439  25.487  57.949  1.00  0.00     0.011 A 
HETATM   29  C   UNL     1       8.705  25.851  57.245  1.00  0.00     0.011 A 
ENDBRANCH  22  27
ENDBRANCH   1  18
TORSDOF 7
ENDMDL
