MODEL 1
REMARK VINA RESULT:      -9.4      0.000      0.000
REMARK  8 active torsions:
REMARK  status: ('A' for Active; 'I' for Inactive)
REMARK    1  A    between atoms: C_2  and  C_3 
REMARK    2  A    between atoms: C_4  and  O_5 
REMARK    3  A    between atoms: O_5  and  C_6 
REMARK    4  A    between atoms: C_6  and  C_7 
REMARK    5  A    between atoms: C_15  and  O_16 
REMARK    6  A    between atoms: C_17  and  C_18 
REMARK    7  A    between atoms: C_22  and  N_23 
REMARK    8  A    between atoms: C_24  and  C_25 
ROOT
HETATM    1  C   UNL     1       8.746  29.835  57.774  1.00  0.00    -0.024 A 
HETATM    2  C   UNL     1       7.526  30.486  58.010  1.00  0.00     0.078 A 
HETATM    3  C   UNL     1       6.312  29.814  57.847  1.00  0.00     0.074 A 
HETATM    4  C   UNL     1       6.309  28.457  57.513  1.00  0.00     0.081 A 
HETATM    5  C   UNL     1       7.514  27.765  57.335  1.00  0.00     0.029 A 
HETATM    6  C   UNL     1       8.724  28.467  57.454  1.00  0.00     0.026 A 
ENDROOT
BRANCH   5   7
HETATM    7  C   UNL     1       7.544  26.327  57.077  1.00  0.00     0.107 A 
HETATM    8  N   UNL     1       8.061  25.499  58.004  1.00  0.00    -0.172 NA
HETATM    9  N   UNL     1       7.938  24.283  57.461  1.00  0.00    -0.262 N 
HETATM   10  H   UNL     1       8.255  23.487  57.998  1.00  0.00     0.191 HD
HETATM   11  C   UNL     1       7.406  24.276  56.202  1.00  0.00     0.131 A 
HETATM   12  C   UNL     1       7.148  25.603  55.907  1.00  0.00     0.076 A 
BRANCH  11  13
HETATM   13  N   UNL     1       7.249  23.116  55.528  1.00  0.00    -0.384 N 
HETATM   14  H   UNL     1       7.515  22.212  55.909  1.00  0.00     0.157 HD
HETATM   15  H   UNL     1       6.565  23.050  54.775  1.00  0.00     0.157 HD
ENDBRANCH  11  13
BRANCH  12  16
HETATM   16  C   UNL     1       6.578  26.154  54.633  1.00  0.00     0.114 A 
HETATM   17  S   UNL     1       7.378  26.077  53.107  1.00  0.00    -0.079 SA
HETATM   18  C   UNL     1       6.078  26.914  52.377  1.00  0.00     0.078 A 
HETATM   19  C   UNL     1       5.111  27.197  53.319  1.00  0.00     0.038 A 
HETATM   20  C   UNL     1       3.828  27.910  53.094  1.00  0.00     0.071 C 
HETATM   21  N   UNL     1       5.408  26.762  54.599  1.00  0.00    -0.245 NA
ENDBRANCH  12  16
ENDBRANCH   5   7
BRANCH   4  22
HETATM   22  O   UNL     1       5.113  27.811  57.342  1.00  0.00    -0.360 OA
HETATM   23  H   UNL     1       4.606  28.258  56.647  1.00  0.00     0.217 HD
ENDBRANCH   4  22
BRANCH   1  24
HETATM   24  C   UNL     1      10.066  30.559  57.850  1.00  0.00     0.037 C 
HETATM   25  C   UNL     1      11.179  29.805  57.136  1.00  0.00     0.010 C 
ENDBRANCH   1  24
BRANCH   2  26
HETATM   26  O   UNL     1       7.543  31.817  58.346  1.00  0.00    -0.346 OA
BRANCH  26  27
HETATM   27  C   UNL     1       6.497  32.131  59.278  1.00  0.00     0.214 C 
BRANCH  27  28
HETATM   28  C   UNL     1       7.052  32.204  60.684  1.00  0.00    -0.034 A 
HETATM   29  C   UNL     1       6.236  32.573  61.765  1.00  0.00     0.016 A 
HETATM   30  C   UNL     1       6.759  32.693  63.059  1.00  0.00    -0.061 A 
HETATM   31  C   UNL     1       5.884  33.107  64.205  1.00  0.00     0.048 C 
HETATM   32  C   UNL     1       8.123  32.461  63.267  1.00  0.00     0.007 A 
HETATM   33  C   UNL     1       8.947  32.103  62.201  1.00  0.00     0.001 A 
HETATM   34  C   UNL     1       8.416  31.980  60.916  1.00  0.00     0.009 A 
ENDBRANCH  27  28
ENDBRANCH  26  27
ENDBRANCH   2  26
TORSDOF 8
ENDMDL
MODEL 2
REMARK VINA RESULT:      -9.3      1.962      3.420
REMARK  8 active torsions:
REMARK  status: ('A' for Active; 'I' for Inactive)
REMARK    1  A    between atoms: C_2  and  C_3 
REMARK    2  A    between atoms: C_4  and  O_5 
REMARK    3  A    between atoms: O_5  and  C_6 
REMARK    4  A    between atoms: C_6  and  C_7 
REMARK    5  A    between atoms: C_15  and  O_16 
REMARK    6  A    between atoms: C_17  and  C_18 
REMARK    7  A    between atoms: C_22  and  N_23 
REMARK    8  A    between atoms: C_24  and  C_25 
ROOT
HETATM    1  C   UNL     1       8.102  28.368  56.601  1.00  0.00    -0.024 A 
HETATM    2  C   UNL     1       7.292  28.772  57.672  1.00  0.00     0.078 A 
HETATM    3  C   UNL     1       5.899  28.708  57.580  1.00  0.00     0.074 A 
HETATM    4  C   UNL     1       5.303  28.169  56.436  1.00  0.00     0.081 A 
HETATM    5  C   UNL     1       6.090  27.698  55.377  1.00  0.00     0.029 A 
HETATM    6  C   UNL     1       7.487  27.816  55.465  1.00  0.00     0.026 A 
ENDROOT
BRANCH   5   7
HETATM    7  C   UNL     1       5.499  27.046  54.212  1.00  0.00     0.107 A 
HETATM    8  N   UNL     1       4.653  27.737  53.424  1.00  0.00    -0.172 NA
HETATM    9  N   UNL     1       4.304  26.863  52.475  1.00  0.00    -0.262 N 
HETATM   10  H   UNL     1       3.671  27.175  51.750  1.00  0.00     0.191 HD
HETATM   11  C   UNL     1       4.843  25.616  52.626  1.00  0.00     0.131 A 
HETATM   12  C   UNL     1       5.623  25.692  53.766  1.00  0.00     0.076 A 
BRANCH  11  13
HETATM   13  N   UNL     1       4.552  24.630  51.749  1.00  0.00    -0.384 N 
HETATM   14  H   UNL     1       3.827  23.936  51.914  1.00  0.00     0.157 HD
HETATM   15  H   UNL     1       4.794  24.733  50.765  1.00  0.00     0.157 HD
ENDBRANCH  11  13
BRANCH  12  16
HETATM   16  C   UNL     1       6.422  24.586  54.391  1.00  0.00     0.114 A 
HETATM   17  S   UNL     1       6.630  24.391  56.092  1.00  0.00    -0.079 SA
HETATM   18  C   UNL     1       7.617  23.021  55.821  1.00  0.00     0.078 A 
HETATM   19  C   UNL     1       7.729  22.782  54.467  1.00  0.00     0.038 A 
HETATM   20  C   UNL     1       8.496  21.691  53.814  1.00  0.00     0.071 C 
HETATM   21  N   UNL     1       7.047  23.680  53.664  1.00  0.00    -0.245 NA
ENDBRANCH  12  16
ENDBRANCH   5   7
BRANCH   4  22
HETATM   22  O   UNL     1       3.936  28.123  56.351  1.00  0.00    -0.360 OA
HETATM   23  H   UNL     1       3.606  27.412  56.921  1.00  0.00     0.217 HD
ENDBRANCH   4  22
BRANCH   1  24
HETATM   24  C   UNL     1       9.603  28.515  56.635  1.00  0.00     0.037 C 
HETATM   25  C   UNL     1      10.084  29.714  55.829  1.00  0.00     0.010 C 
ENDBRANCH   1  24
BRANCH   2  26
HETATM   26  O   UNL     1       7.890  29.291  58.794  1.00  0.00    -0.346 OA
BRANCH  26  27
HETATM   27  C   UNL     1       7.832  30.725  58.797  1.00  0.00     0.214 C 
BRANCH  27  28
HETATM   28  C   UNL     1       7.922  31.250  60.214  1.00  0.00    -0.034 A 
HETATM   29  C   UNL     1       7.152  32.348  60.628  1.00  0.00     0.016 A 
HETATM   30  C   UNL     1       7.272  32.870  61.923  1.00  0.00    -0.061 A 
HETATM   31  C   UNL     1       6.459  34.056  62.352  1.00  0.00     0.048 C 
HETATM   32  C   UNL     1       8.193  32.295  62.806  1.00  0.00     0.007 A 
HETATM   33  C   UNL     1       8.971  31.210  62.405  1.00  0.00     0.001 A 
HETATM   34  C   UNL     1       8.840  30.694  61.115  1.00  0.00     0.009 A 
ENDBRANCH  27  28
ENDBRANCH  26  27
ENDBRANCH   2  26
TORSDOF 8
ENDMDL
MODEL 3
REMARK VINA RESULT:      -9.2      3.660      8.734
REMARK  8 active torsions:
REMARK  status: ('A' for Active; 'I' for Inactive)
REMARK    1  A    between atoms: C_2  and  C_3 
REMARK    2  A    between atoms: C_4  and  O_5 
REMARK    3  A    between atoms: O_5  and  C_6 
REMARK    4  A    between atoms: C_6  and  C_7 
REMARK    5  A    between atoms: C_15  and  O_16 
REMARK    6  A    between atoms: C_17  and  C_18 
REMARK    7  A    between atoms: C_22  and  N_23 
REMARK    8  A    between atoms: C_24  and  C_25 
ROOT
HETATM    1  C   UNL     1       6.986  25.990  56.242  1.00  0.00    -0.024 A 
HETATM    2  C   UNL     1       7.263  26.061  54.870  1.00  0.00     0.078 A 
HETATM    3  C   UNL     1       6.824  27.147  54.106  1.00  0.00     0.074 A 
HETATM    4  C   UNL     1       6.162  28.209  54.726  1.00  0.00     0.081 A 
HETATM    5  C   UNL     1       5.928  28.194  56.107  1.00  0.00     0.029 A 
HETATM    6  C   UNL     1       6.332  27.074  56.852  1.00  0.00     0.026 A 
ENDROOT
BRANCH   5   7
HETATM    7  C   UNL     1       5.323  29.331  56.796  1.00  0.00     0.107 A 
HETATM    8  N   UNL     1       4.017  29.600  56.608  1.00  0.00    -0.172 NA
HETATM    9  N   UNL     1       3.794  30.680  57.365  1.00  0.00    -0.262 N 
HETATM   10  H   UNL     1       2.856  31.058  57.390  1.00  0.00     0.191 HD
HETATM   11  C   UNL     1       4.901  31.161  58.006  1.00  0.00     0.131 A 
HETATM   12  C   UNL     1       5.930  30.310  57.645  1.00  0.00     0.076 A 
BRANCH  11  13
HETATM   13  N   UNL     1       4.820  32.263  58.785  1.00  0.00    -0.384 N 
HETATM   14  H   UNL     1       5.471  33.040  58.715  1.00  0.00     0.157 HD
HETATM   15  H   UNL     1       3.936  32.515  59.222  1.00  0.00     0.157 HD
ENDBRANCH  11  13
BRANCH  12  16
HETATM   16  C   UNL     1       7.369  30.404  58.059  1.00  0.00     0.114 A 
HETATM   17  S   UNL     1       7.894  30.984  59.597  1.00  0.00    -0.079 SA
HETATM   18  C   UNL     1       9.524  30.759  59.133  1.00  0.00     0.078 A 
HETATM   19  C   UNL     1       9.583  30.252  57.851  1.00  0.00     0.038 A 
HETATM   20  C   UNL     1      10.807  29.917  57.080  1.00  0.00     0.071 C 
HETATM   21  N   UNL     1       8.352  30.056  57.251  1.00  0.00    -0.245 NA
ENDBRANCH  12  16
ENDBRANCH   5   7
BRANCH   4  22
HETATM   22  O   UNL     1       5.724  29.261  53.965  1.00  0.00    -0.360 OA
HETATM   23  H   UNL     1       6.001  29.126  53.046  1.00  0.00     0.217 HD
ENDBRANCH   4  22
BRANCH   1  24
HETATM   24  C   UNL     1       7.363  24.789  57.073  1.00  0.00     0.037 C 
HETATM   25  C   UNL     1       8.814  24.837  57.532  1.00  0.00     0.010 C 
ENDBRANCH   1  24
BRANCH   2  26
HETATM   26  O   UNL     1       7.923  25.015  54.274  1.00  0.00    -0.346 OA
BRANCH  26  27
HETATM   27  C   UNL     1       6.999  24.069  53.716  1.00  0.00     0.214 C 
BRANCH  27  28
HETATM   28  C   UNL     1       7.525  22.660  53.885  1.00  0.00    -0.034 A 
HETATM   29  C   UNL     1       7.812  22.143  55.158  1.00  0.00     0.016 A 
HETATM   30  C   UNL     1       8.350  20.858  55.314  1.00  0.00    -0.061 A 
HETATM   31  C   UNL     1       8.672  20.320  56.676  1.00  0.00     0.048 C 
HETATM   32  C   UNL     1       8.621  20.090  54.175  1.00  0.00     0.007 A 
HETATM   33  C   UNL     1       8.349  20.595  52.904  1.00  0.00     0.001 A 
HETATM   34  C   UNL     1       7.809  21.874  52.760  1.00  0.00     0.009 A 
ENDBRANCH  27  28
ENDBRANCH  26  27
ENDBRANCH   2  26
TORSDOF 8
ENDMDL
MODEL 4
REMARK VINA RESULT:      -9.2      3.589      8.351
REMARK  8 active torsions:
REMARK  status: ('A' for Active; 'I' for Inactive)
REMARK    1  A    between atoms: C_2  and  C_3 
REMARK    2  A    between atoms: C_4  and  O_5 
REMARK    3  A    between atoms: O_5  and  C_6 
REMARK    4  A    between atoms: C_6  and  C_7 
REMARK    5  A    between atoms: C_15  and  O_16 
REMARK    6  A    between atoms: C_17  and  C_18 
REMARK    7  A    between atoms: C_22  and  N_23 
REMARK    8  A    between atoms: C_24  and  C_25 
ROOT
HETATM    1  C   UNL     1       6.306  26.152  55.768  1.00  0.00    -0.024 A 
HETATM    2  C   UNL     1       6.994  26.243  54.550  1.00  0.00     0.078 A 
HETATM    3  C   UNL     1       7.779  27.361  54.253  1.00  0.00     0.074 A 
HETATM    4  C   UNL     1       7.939  28.370  55.206  1.00  0.00     0.081 A 
HETATM    5  C   UNL     1       7.315  28.274  56.457  1.00  0.00     0.029 A 
HETATM    6  C   UNL     1       6.490  27.169  56.720  1.00  0.00     0.026 A 
ENDROOT
BRANCH   5   7
HETATM    7  C   UNL     1       7.539  29.266  57.505  1.00  0.00     0.107 A 
HETATM    8  N   UNL     1       8.591  29.129  58.333  1.00  0.00    -0.172 NA
HETATM    9  N   UNL     1       8.500  30.180  59.154  1.00  0.00    -0.262 N 
HETATM   10  H   UNL     1       9.210  30.292  59.865  1.00  0.00     0.191 HD
HETATM   11  C   UNL     1       7.411  30.978  58.935  1.00  0.00     0.131 A 
HETATM   12  C   UNL     1       6.745  30.401  57.868  1.00  0.00     0.076 A 
BRANCH  11  13
HETATM   13  N   UNL     1       7.186  32.061  59.710  1.00  0.00    -0.384 N 
HETATM   14  H   UNL     1       6.884  31.998  60.679  1.00  0.00     0.157 HD
HETATM   15  H   UNL     1       7.622  32.953  59.482  1.00  0.00     0.157 HD
ENDBRANCH  11  13
BRANCH  12  16
HETATM   16  C   UNL     1       5.468  30.872  57.237  1.00  0.00     0.114 A 
HETATM   17  S   UNL     1       3.970  31.008  58.081  1.00  0.00    -0.079 SA
HETATM   18  C   UNL     1       3.202  31.532  56.646  1.00  0.00     0.078 A 
HETATM   19  C   UNL     1       4.117  31.583  55.614  1.00  0.00     0.038 A 
HETATM   20  C   UNL     1       3.855  31.986  54.210  1.00  0.00     0.071 C 
HETATM   21  N   UNL     1       5.401  31.203  55.963  1.00  0.00    -0.245 NA
ENDBRANCH  12  16
ENDBRANCH   5   7
BRANCH   4  22
HETATM   22  O   UNL     1       8.700  29.467  54.899  1.00  0.00    -0.360 OA
HETATM   23  H   UNL     1       9.140  29.321  54.048  1.00  0.00     0.217 HD
ENDBRANCH   4  22
BRANCH   1  24
HETATM   24  C   UNL     1       5.377  25.005  56.077  1.00  0.00     0.037 C 
HETATM   25  C   UNL     1       4.639  25.199  57.395  1.00  0.00     0.010 C 
ENDBRANCH   1  24
BRANCH   2  26
HETATM   26  O   UNL     1       6.836  25.241  53.625  1.00  0.00    -0.346 OA
BRANCH  26  27
HETATM   27  C   UNL     1       8.083  24.588  53.348  1.00  0.00     0.214 C 
BRANCH  27  28
HETATM   28  C   UNL     1       8.025  23.138  53.780  1.00  0.00    -0.034 A 
HETATM   29  C   UNL     1       8.192  22.778  55.126  1.00  0.00     0.016 A 
HETATM   30  C   UNL     1       8.191  21.433  55.521  1.00  0.00    -0.061 A 
HETATM   31  C   UNL     1       8.390  21.055  56.959  1.00  0.00     0.048 C 
HETATM   32  C   UNL     1       8.042  20.438  54.549  1.00  0.00     0.007 A 
HETATM   33  C   UNL     1       7.884  20.782  53.207  1.00  0.00     0.001 A 
HETATM   34  C   UNL     1       7.881  22.124  52.824  1.00  0.00     0.009 A 
ENDBRANCH  27  28
ENDBRANCH  26  27
ENDBRANCH   2  26
TORSDOF 8
ENDMDL
MODEL 5
REMARK VINA RESULT:      -9.0      3.508      8.397
REMARK  8 active torsions:
REMARK  status: ('A' for Active; 'I' for Inactive)
REMARK    1  A    between atoms: C_2  and  C_3 
REMARK    2  A    between atoms: C_4  and  O_5 
REMARK    3  A    between atoms: O_5  and  C_6 
REMARK    4  A    between atoms: C_6  and  C_7 
REMARK    5  A    between atoms: C_15  and  O_16 
REMARK    6  A    between atoms: C_17  and  C_18 
REMARK    7  A    between atoms: C_22  and  N_23 
REMARK    8  A    between atoms: C_24  and  C_25 
ROOT
HETATM    1  C   UNL     1       6.066  27.338  56.224  1.00  0.00    -0.024 A 
HETATM    2  C   UNL     1       6.742  27.175  55.007  1.00  0.00     0.078 A 
HETATM    3  C   UNL     1       7.836  27.981  54.680  1.00  0.00     0.074 A 
HETATM    4  C   UNL     1       8.308  28.917  55.605  1.00  0.00     0.081 A 
HETATM    5  C   UNL     1       7.692  29.057  56.855  1.00  0.00     0.029 A 
HETATM    6  C   UNL     1       6.565  28.273  57.148  1.00  0.00     0.026 A 
ENDROOT
BRANCH   5   7
HETATM    7  C   UNL     1       8.221  29.959  57.875  1.00  0.00     0.107 A 
HETATM    8  N   UNL     1       9.472  29.776  58.337  1.00  0.00    -0.172 NA
HETATM    9  N   UNL     1       9.633  30.749  59.240  1.00  0.00    -0.262 N 
HETATM   10  H   UNL     1      10.523  30.815  59.714  1.00  0.00     0.191 HD
HETATM   11  C   UNL     1       8.531  31.535  59.428  1.00  0.00     0.131 A 
HETATM   12  C   UNL     1       7.575  31.038  58.559  1.00  0.00     0.076 A 
BRANCH  11  13
HETATM   13  N   UNL     1       8.549  32.541  60.330  1.00  0.00    -0.384 N 
HETATM   14  H   UNL     1       8.837  32.414  61.296  1.00  0.00     0.157 HD
HETATM   15  H   UNL     1       8.608  33.508  60.016  1.00  0.00     0.157 HD
ENDBRANCH  11  13
BRANCH  12  16
HETATM   16  C   UNL     1       6.169  31.530  58.382  1.00  0.00     0.114 A 
HETATM   17  S   UNL     1       5.383  31.671  56.853  1.00  0.00    -0.079 SA
HETATM   18  C   UNL     1       3.985  32.286  57.621  1.00  0.00     0.078 A 
HETATM   19  C   UNL     1       4.184  32.344  58.985  1.00  0.00     0.038 A 
HETATM   20  C   UNL     1       3.218  32.817  60.008  1.00  0.00     0.071 C 
HETATM   21  N   UNL     1       5.430  31.913  59.405  1.00  0.00    -0.245 NA
ENDBRANCH  12  16
ENDBRANCH   5   7
BRANCH   4  22
HETATM   22  O   UNL     1       9.373  29.711  55.268  1.00  0.00    -0.360 OA
HETATM   23  H   UNL     1       9.371  30.500  55.832  1.00  0.00     0.217 HD
ENDBRANCH   4  22
BRANCH   1  24
HETATM   24  C   UNL     1       4.826  26.549  56.563  1.00  0.00     0.037 C 
HETATM   25  C   UNL     1       5.155  25.206  57.202  1.00  0.00     0.010 C 
ENDBRANCH   1  24
BRANCH   2  26
HETATM   26  O   UNL     1       6.273  26.246  54.111  1.00  0.00    -0.346 OA
BRANCH  26  27
HETATM   27  C   UNL     1       7.348  25.642  53.377  1.00  0.00     0.214 C 
BRANCH  27  28
HETATM   28  C   UNL     1       7.705  24.300  53.977  1.00  0.00    -0.034 A 
HETATM   29  C   UNL     1       7.709  23.136  53.194  1.00  0.00     0.016 A 
HETATM   30  C   UNL     1       7.987  21.883  53.759  1.00  0.00    -0.061 A 
HETATM   31  C   UNL     1       7.970  20.641  52.918  1.00  0.00     0.048 C 
HETATM   32  C   UNL     1       8.245  21.798  55.132  1.00  0.00     0.007 A 
HETATM   33  C   UNL     1       8.235  22.946  55.923  1.00  0.00     0.001 A 
HETATM   34  C   UNL     1       7.962  24.188  55.350  1.00  0.00     0.009 A 
ENDBRANCH  27  28
ENDBRANCH  26  27
ENDBRANCH   2  26
TORSDOF 8
ENDMDL
MODEL 6
REMARK VINA RESULT:      -8.9      4.573      8.259
REMARK  8 active torsions:
REMARK  status: ('A' for Active; 'I' for Inactive)
REMARK    1  A    between atoms: C_2  and  C_3 
REMARK    2  A    between atoms: C_4  and  O_5 
REMARK    3  A    between atoms: O_5  and  C_6 
REMARK    4  A    between atoms: C_6  and  C_7 
REMARK    5  A    between atoms: C_15  and  O_16 
REMARK    6  A    between atoms: C_17  and  C_18 
REMARK    7  A    between atoms: C_22  and  N_23 
REMARK    8  A    between atoms: C_24  and  C_25 
ROOT
HETATM    1  C   UNL     1       7.165  27.547  55.495  1.00  0.00    -0.024 A 
HETATM    2  C   UNL     1       6.930  26.237  55.054  1.00  0.00     0.078 A 
HETATM    3  C   UNL     1       5.781  25.922  54.324  1.00  0.00     0.074 A 
HETATM    4  C   UNL     1       4.886  26.934  53.968  1.00  0.00     0.081 A 
HETATM    5  C   UNL     1       5.128  28.263  54.340  1.00  0.00     0.029 A 
HETATM    6  C   UNL     1       6.262  28.554  55.115  1.00  0.00     0.026 A 
ENDROOT
BRANCH   5   7
HETATM    7  C   UNL     1       4.260  29.354  53.904  1.00  0.00     0.107 A 
HETATM    8  N   UNL     1       3.539  30.032  54.816  1.00  0.00    -0.172 NA
HETATM    9  N   UNL     1       2.869  30.938  54.095  1.00  0.00    -0.262 N 
HETATM   10  H   UNL     1       2.262  31.581  54.585  1.00  0.00     0.191 HD
HETATM   11  C   UNL     1       3.080  30.857  52.747  1.00  0.00     0.131 A 
HETATM   12  C   UNL     1       3.977  29.817  52.579  1.00  0.00     0.076 A 
BRANCH  11  13
HETATM   13  N   UNL     1       2.446  31.698  51.900  1.00  0.00    -0.384 N 
HETATM   14  H   UNL     1       2.180  32.646  52.155  1.00  0.00     0.157 HD
HETATM   15  H   UNL     1       2.510  31.554  50.894  1.00  0.00     0.157 HD
ENDBRANCH  11  13
BRANCH  12  16
HETATM   16  C   UNL     1       4.527  29.296  51.284  1.00  0.00     0.114 A 
HETATM   17  S   UNL     1       5.630  30.168  50.285  1.00  0.00    -0.079 SA
HETATM   18  C   UNL     1       5.627  28.887  49.153  1.00  0.00     0.078 A 
HETATM   19  C   UNL     1       4.803  27.871  49.592  1.00  0.00     0.038 A 
HETATM   20  C   UNL     1       4.525  26.587  48.903  1.00  0.00     0.071 C 
HETATM   21  N   UNL     1       4.182  28.117  50.805  1.00  0.00    -0.245 NA
ENDBRANCH  12  16
ENDBRANCH   5   7
BRANCH   4  22
HETATM   22  O   UNL     1       3.755  26.612  53.264  1.00  0.00    -0.360 OA
HETATM   23  H   UNL     1       3.936  26.693  52.315  1.00  0.00     0.217 HD
ENDBRANCH   4  22
BRANCH   1  24
HETATM   24  C   UNL     1       8.346  27.898  56.364  1.00  0.00     0.037 C 
HETATM   25  C   UNL     1       7.923  28.427  57.727  1.00  0.00     0.010 C 
ENDBRANCH   1  24
BRANCH   2  26
HETATM   26  O   UNL     1       7.822  25.253  55.402  1.00  0.00    -0.346 OA
BRANCH  26  27
HETATM   27  C   UNL     1       7.196  24.248  56.213  1.00  0.00     0.214 C 
BRANCH  27  28
HETATM   28  C   UNL     1       7.742  22.879  55.867  1.00  0.00    -0.034 A 
HETATM   29  C   UNL     1       7.701  22.396  54.550  1.00  0.00     0.016 A 
HETATM   30  C   UNL     1       8.157  21.108  54.236  1.00  0.00    -0.061 A 
HETATM   31  C   UNL     1       8.091  20.591  52.830  1.00  0.00     0.048 C 
HETATM   32  C   UNL     1       8.641  20.289  55.262  1.00  0.00     0.007 A 
HETATM   33  C   UNL     1       8.680  20.753  56.576  1.00  0.00     0.001 A 
HETATM   34  C   UNL     1       8.228  22.039  56.878  1.00  0.00     0.009 A 
ENDBRANCH  27  28
ENDBRANCH  26  27
ENDBRANCH   2  26
TORSDOF 8
ENDMDL
MODEL 7
REMARK VINA RESULT:      -8.9      5.760      9.305
REMARK  8 active torsions:
REMARK  status: ('A' for Active; 'I' for Inactive)
REMARK    1  A    between atoms: C_2  and  C_3 
REMARK    2  A    between atoms: C_4  and  O_5 
REMARK    3  A    between atoms: O_5  and  C_6 
REMARK    4  A    between atoms: C_6  and  C_7 
REMARK    5  A    between atoms: C_15  and  O_16 
REMARK    6  A    between atoms: C_17  and  C_18 
REMARK    7  A    between atoms: C_22  and  N_23 
REMARK    8  A    between atoms: C_24  and  C_25 
ROOT
HETATM    1  C   UNL     1       5.095  27.541  53.694  1.00  0.00    -0.024 A 
HETATM    2  C   UNL     1       5.417  26.228  53.322  1.00  0.00     0.078 A 
HETATM    3  C   UNL     1       5.577  25.883  51.977  1.00  0.00     0.074 A 
HETATM    4  C   UNL     1       5.483  26.870  50.992  1.00  0.00     0.081 A 
HETATM    5  C   UNL     1       5.227  28.202  51.340  1.00  0.00     0.029 A 
HETATM    6  C   UNL     1       5.020  28.523  52.691  1.00  0.00     0.026 A 
ENDROOT
BRANCH   5   7
HETATM    7  C   UNL     1       5.217  29.269  50.342  1.00  0.00     0.107 A 
HETATM    8  N   UNL     1       6.044  30.321  50.488  1.00  0.00    -0.172 NA
HETATM    9  N   UNL     1       5.782  31.093  49.428  1.00  0.00    -0.262 N 
HETATM   10  H   UNL     1       6.308  31.949  49.321  1.00  0.00     0.191 HD
HETATM   11  C   UNL     1       4.789  30.621  48.615  1.00  0.00     0.131 A 
HETATM   12  C   UNL     1       4.381  29.431  49.191  1.00  0.00     0.076 A 
BRANCH  11  13
HETATM   13  N   UNL     1       4.407  31.316  47.521  1.00  0.00    -0.384 N 
HETATM   14  H   UNL     1       3.670  32.016  47.537  1.00  0.00     0.157 HD
HETATM   15  H   UNL     1       5.046  31.422  46.735  1.00  0.00     0.157 HD
ENDBRANCH  11  13
BRANCH  12  16
HETATM   16  C   UNL     1       3.295  28.516  48.706  1.00  0.00     0.114 A 
HETATM   17  S   UNL     1       1.624  28.718  49.084  1.00  0.00    -0.079 SA
HETATM   18  C   UNL     1       1.246  27.308  48.194  1.00  0.00     0.078 A 
HETATM   19  C   UNL     1       2.395  26.768  47.655  1.00  0.00     0.038 A 
HETATM   20  C   UNL     1       2.499  25.547  46.818  1.00  0.00     0.071 C 
HETATM   21  N   UNL     1       3.554  27.463  47.955  1.00  0.00    -0.245 NA
ENDBRANCH  12  16
ENDBRANCH   5   7
BRANCH   4  22
HETATM   22  O   UNL     1       5.628  26.518  49.675  1.00  0.00    -0.360 OA
HETATM   23  H   UNL     1       5.438  25.573  49.576  1.00  0.00     0.217 HD
ENDBRANCH   4  22
BRANCH   1  24
HETATM   24  C   UNL     1       4.824  27.922  55.128  1.00  0.00     0.037 C 
HETATM   25  C   UNL     1       6.049  28.520  55.807  1.00  0.00     0.010 C 
ENDBRANCH   1  24
BRANCH   2  26
HETATM   26  O   UNL     1       5.515  25.270  54.300  1.00  0.00    -0.346 OA
BRANCH  26  27
HETATM   27  C   UNL     1       6.883  25.035  54.663  1.00  0.00     0.214 C 
BRANCH  27  28
HETATM   28  C   UNL     1       7.253  23.590  54.409  1.00  0.00    -0.034 A 
HETATM   29  C   UNL     1       7.420  22.689  55.472  1.00  0.00     0.016 A 
HETATM   30  C   UNL     1       7.814  21.363  55.244  1.00  0.00    -0.061 A 
HETATM   31  C   UNL     1       8.009  20.412  56.387  1.00  0.00     0.048 C 
HETATM   32  C   UNL     1       8.064  20.944  53.932  1.00  0.00     0.007 A 
HETATM   33  C   UNL     1       7.911  21.831  52.867  1.00  0.00     0.001 A 
HETATM   34  C   UNL     1       7.512  23.147  53.105  1.00  0.00     0.009 A 
ENDBRANCH  27  28
ENDBRANCH  26  27
ENDBRANCH   2  26
TORSDOF 8
ENDMDL
MODEL 8
REMARK VINA RESULT:      -8.9      3.739      8.643
REMARK  8 active torsions:
REMARK  status: ('A' for Active; 'I' for Inactive)
REMARK    1  A    between atoms: C_2  and  C_3 
REMARK    2  A    between atoms: C_4  and  O_5 
REMARK    3  A    between atoms: O_5  and  C_6 
REMARK    4  A    between atoms: C_6  and  C_7 
REMARK    5  A    between atoms: C_15  and  O_16 
REMARK    6  A    between atoms: C_17  and  C_18 
REMARK    7  A    between atoms: C_22  and  N_23 
REMARK    8  A    between atoms: C_24  and  C_25 
ROOT
HETATM    1  C   UNL     1       8.059  28.569  56.854  1.00  0.00    -0.024 A 
HETATM    2  C   UNL     1       7.261  27.427  56.693  1.00  0.00     0.078 A 
HETATM    3  C   UNL     1       5.867  27.521  56.693  1.00  0.00     0.074 A 
HETATM    4  C   UNL     1       5.256  28.775  56.786  1.00  0.00     0.081 A 
HETATM    5  C   UNL     1       6.030  29.939  56.883  1.00  0.00     0.029 A 
HETATM    6  C   UNL     1       7.428  29.822  56.931  1.00  0.00     0.026 A 
ENDROOT
BRANCH   5   7
HETATM    7  C   UNL     1       5.422  31.267  56.887  1.00  0.00     0.107 A 
HETATM    8  N   UNL     1       4.681  31.659  55.834  1.00  0.00    -0.172 NA
HETATM    9  N   UNL     1       4.287  32.896  56.154  1.00  0.00    -0.262 N 
HETATM   10  H   UNL     1       3.695  33.392  55.501  1.00  0.00     0.191 HD
HETATM   11  C   UNL     1       4.772  33.354  57.348  1.00  0.00     0.131 A 
HETATM   12  C   UNL     1       5.535  32.317  57.853  1.00  0.00     0.076 A 
BRANCH  11  13
HETATM   13  N   UNL     1       4.471  34.598  57.780  1.00  0.00    -0.384 N 
HETATM   14  H   UNL     1       3.548  35.012  57.682  1.00  0.00     0.157 HD
HETATM   15  H   UNL     1       5.033  35.036  58.509  1.00  0.00     0.157 HD
ENDBRANCH  11  13
BRANCH  12  16
HETATM   16  C   UNL     1       6.311  32.307  59.137  1.00  0.00     0.114 A 
HETATM   17  S   UNL     1       5.595  32.481  60.697  1.00  0.00    -0.079 SA
HETATM   18  C   UNL     1       7.140  32.385  61.424  1.00  0.00     0.078 A 
HETATM   19  C   UNL     1       8.107  32.219  60.454  1.00  0.00     0.038 A 
HETATM   20  C   UNL     1       9.571  32.093  60.668  1.00  0.00     0.071 C 
HETATM   21  N   UNL     1       7.624  32.178  59.159  1.00  0.00    -0.245 NA
ENDBRANCH  12  16
ENDBRANCH   5   7
BRANCH   4  22
HETATM   22  O   UNL     1       3.888  28.854  56.799  1.00  0.00    -0.360 OA
HETATM   23  H   UNL     1       3.558  28.816  55.889  1.00  0.00     0.217 HD
ENDBRANCH   4  22
BRANCH   1  24
HETATM   24  C   UNL     1       9.562  28.487  56.953  1.00  0.00     0.037 C 
HETATM   25  C   UNL     1      10.203  29.854  57.142  1.00  0.00     0.010 C 
ENDBRANCH   1  24
BRANCH   2  26
HETATM   26  O   UNL     1       7.874  26.202  56.594  1.00  0.00    -0.346 OA
BRANCH  26  27
HETATM   27  C   UNL     1       6.913  25.156  56.392  1.00  0.00     0.214 C 
BRANCH  27  28
HETATM   28  C   UNL     1       7.246  24.373  55.140  1.00  0.00    -0.034 A 
HETATM   29  C   UNL     1       7.357  22.975  55.169  1.00  0.00     0.016 A 
HETATM   30  C   UNL     1       7.717  22.252  54.024  1.00  0.00    -0.061 A 
HETATM   31  C   UNL     1       7.853  20.759  54.069  1.00  0.00     0.048 C 
HETATM   32  C   UNL     1       7.988  22.945  52.839  1.00  0.00     0.007 A 
HETATM   33  C   UNL     1       7.890  24.335  52.797  1.00  0.00     0.001 A 
HETATM   34  C   UNL     1       7.525  25.045  53.942  1.00  0.00     0.009 A 
ENDBRANCH  27  28
ENDBRANCH  26  27
ENDBRANCH   2  26
TORSDOF 8
ENDMDL
MODEL 9
REMARK VINA RESULT:      -8.9      3.221      5.650
REMARK  8 active torsions:
REMARK  status: ('A' for Active; 'I' for Inactive)
REMARK    1  A    between atoms: C_2  and  C_3 
REMARK    2  A    between atoms: C_4  and  O_5 
REMARK    3  A    between atoms: O_5  and  C_6 
REMARK    4  A    between atoms: C_6  and  C_7 
REMARK    5  A    between atoms: C_15  and  O_16 
REMARK    6  A    between atoms: C_17  and  C_18 
REMARK    7  A    between atoms: C_22  and  N_23 
REMARK    8  A    between atoms: C_24  and  C_25 
ROOT
HETATM    1  C   UNL     1       6.036  32.409  60.898  1.00  0.00    -0.024 A 
HETATM    2  C   UNL     1       6.357  32.015  62.205  1.00  0.00     0.078 A 
HETATM    3  C   UNL     1       7.491  31.241  62.462  1.00  0.00     0.074 A 
HETATM    4  C   UNL     1       8.358  30.911  61.417  1.00  0.00     0.081 A 
HETATM    5  C   UNL     1       8.096  31.346  60.111  1.00  0.00     0.029 A 
HETATM    6  C   UNL     1       6.927  32.081  59.861  1.00  0.00     0.026 A 
ENDROOT
BRANCH   5   7
HETATM    7  C   UNL     1       9.031  31.096  59.016  1.00  0.00     0.107 A 
HETATM    8  N   UNL     1      10.119  31.876  58.884  1.00  0.00    -0.172 NA
HETATM    9  N   UNL     1      10.743  31.388  57.806  1.00  0.00    -0.262 N 
HETATM   10  H   UNL     1      11.611  31.820  57.521  1.00  0.00     0.191 HD
HETATM   11  C   UNL     1      10.092  30.352  57.196  1.00  0.00     0.131 A 
HETATM   12  C   UNL     1       8.953  30.140  57.953  1.00  0.00     0.076 A 
BRANCH  11  13
HETATM   13  N   UNL     1      10.600  29.781  56.082  1.00  0.00    -0.384 N 
HETATM   14  H   UNL     1      10.039  29.568  55.262  1.00  0.00     0.157 HD
HETATM   15  H   UNL     1      11.596  29.851  55.881  1.00  0.00     0.157 HD
ENDBRANCH  11  13
BRANCH  12  16
HETATM   16  C   UNL     1       7.877  29.125  57.704  1.00  0.00     0.114 A 
HETATM   17  S   UNL     1       6.227  29.527  57.394  1.00  0.00    -0.079 SA
HETATM   18  C   UNL     1       5.836  27.865  57.292  1.00  0.00     0.078 A 
HETATM   19  C   UNL     1       6.968  27.102  57.488  1.00  0.00     0.038 A 
HETATM   20  C   UNL     1       7.057  25.620  57.478  1.00  0.00     0.071 C 
HETATM   21  N   UNL     1       8.121  27.830  57.724  1.00  0.00    -0.245 NA
ENDBRANCH  12  16
ENDBRANCH   5   7
BRANCH   4  22
HETATM   22  O   UNL     1       9.460  30.140  61.678  1.00  0.00    -0.360 OA
HETATM   23  H   UNL     1       9.722  29.674  60.869  1.00  0.00     0.217 HD
ENDBRANCH   4  22
BRANCH   1  24
HETATM   24  C   UNL     1       4.770  33.163  60.578  1.00  0.00     0.037 C 
HETATM   25  C   UNL     1       3.641  32.238  60.146  1.00  0.00     0.010 C 
ENDBRANCH   1  24
BRANCH   2  26
HETATM   26  O   UNL     1       5.502  32.354  63.225  1.00  0.00    -0.346 OA
BRANCH  26  27
HETATM   27  C   UNL     1       6.181  33.096  64.248  1.00  0.00     0.214 C 
BRANCH  27  28
HETATM   28  C   UNL     1       5.706  34.533  64.256  1.00  0.00    -0.034 A 
HETATM   29  C   UNL     1       6.049  35.414  63.218  1.00  0.00     0.016 A 
HETATM   30  C   UNL     1       5.656  36.759  63.250  1.00  0.00    -0.061 A 
HETATM   31  C   UNL     1       6.043  37.698  62.146  1.00  0.00     0.048 C 
HETATM   32  C   UNL     1       4.927  37.230  64.347  1.00  0.00     0.007 A 
HETATM   33  C   UNL     1       4.587  36.368  65.390  1.00  0.00     0.001 A 
HETATM   34  C   UNL     1       4.979  35.029  65.346  1.00  0.00     0.009 A 
ENDBRANCH  27  28
ENDBRANCH  26  27
ENDBRANCH   2  26
TORSDOF 8
ENDMDL
MODEL 10
REMARK VINA RESULT:      -8.8      5.741      8.774
REMARK  8 active torsions:
REMARK  status: ('A' for Active; 'I' for Inactive)
REMARK    1  A    between atoms: C_2  and  C_3 
REMARK    2  A    between atoms: C_4  and  O_5 
REMARK    3  A    between atoms: O_5  and  C_6 
REMARK    4  A    between atoms: C_6  and  C_7 
REMARK    5  A    between atoms: C_15  and  O_16 
REMARK    6  A    between atoms: C_17  and  C_18 
REMARK    7  A    between atoms: C_22  and  N_23 
REMARK    8  A    between atoms: C_24  and  C_25 
ROOT
HETATM    1  C   UNL     1       4.917  26.316  53.816  1.00  0.00    -0.024 A 
HETATM    2  C   UNL     1       5.764  26.516  54.915  1.00  0.00     0.078 A 
HETATM    3  C   UNL     1       6.068  27.806  55.359  1.00  0.00     0.074 A 
HETATM    4  C   UNL     1       5.468  28.910  54.749  1.00  0.00     0.081 A 
HETATM    5  C   UNL     1       4.567  28.736  53.691  1.00  0.00     0.029 A 
HETATM    6  C   UNL     1       4.310  27.437  53.224  1.00  0.00     0.026 A 
ENDROOT
BRANCH   5   7
HETATM    7  C   UNL     1       3.854  29.864  53.096  1.00  0.00     0.107 A 
HETATM    8  N   UNL     1       3.191  30.723  53.892  1.00  0.00    -0.172 NA
HETATM    9  N   UNL     1       2.662  31.612  53.045  1.00  0.00    -0.262 N 
HETATM   10  H   UNL     1       2.122  32.375  53.431  1.00  0.00     0.191 HD
HETATM   11  C   UNL     1       2.905  31.352  51.725  1.00  0.00     0.131 A 
HETATM   12  C   UNL     1       3.673  30.201  51.716  1.00  0.00     0.076 A 
BRANCH  11  13
HETATM   13  N   UNL     1       2.407  32.158  50.762  1.00  0.00    -0.384 N 
HETATM   14  H   UNL     1       1.531  31.972  50.281  1.00  0.00     0.157 HD
HETATM   15  H   UNL     1       2.694  33.134  50.714  1.00  0.00     0.157 HD
ENDBRANCH  11  13
BRANCH  12  16
HETATM   16  C   UNL     1       4.198  29.472  50.514  1.00  0.00     0.114 A 
HETATM   17  S   UNL     1       5.647  29.902  49.683  1.00  0.00    -0.079 SA
HETATM   18  C   UNL     1       5.388  28.637  48.563  1.00  0.00     0.078 A 
HETATM   19  C   UNL     1       4.230  27.956  48.880  1.00  0.00     0.038 A 
HETATM   20  C   UNL     1       3.652  26.795  48.158  1.00  0.00     0.071 C 
HETATM   21  N   UNL     1       3.562  28.442  49.990  1.00  0.00    -0.245 NA
ENDBRANCH  12  16
ENDBRANCH   5   7
BRANCH   4  22
HETATM   22  O   UNL     1       5.784  30.170  55.184  1.00  0.00    -0.360 OA
HETATM   23  H   UNL     1       6.381  30.588  54.544  1.00  0.00     0.217 HD
ENDBRANCH   4  22
BRANCH   1  24
HETATM   24  C   UNL     1       4.646  24.942  53.255  1.00  0.00     0.037 C 
HETATM   25  C   UNL     1       4.959  24.854  51.768  1.00  0.00     0.010 C 
ENDBRANCH   1  24
BRANCH   2  26
HETATM   26  O   UNL     1       6.341  25.422  55.512  1.00  0.00    -0.346 OA
BRANCH  26  27
HETATM   27  C   UNL     1       7.641  25.157  54.965  1.00  0.00     0.214 C 
BRANCH  27  28
HETATM   28  C   UNL     1       7.754  23.704  54.560  1.00  0.00    -0.034 A 
HETATM   29  C   UNL     1       7.742  22.682  55.522  1.00  0.00     0.016 A 
HETATM   30  C   UNL     1       7.900  21.339  55.154  1.00  0.00    -0.061 A 
HETATM   31  C   UNL     1       7.905  20.254  56.190  1.00  0.00     0.048 C 
HETATM   32  C   UNL     1       8.094  21.020  53.805  1.00  0.00     0.007 A 
HETATM   33  C   UNL     1       8.118  22.027  52.840  1.00  0.00     0.001 A 
HETATM   34  C   UNL     1       7.954  23.361  53.216  1.00  0.00     0.009 A 
ENDBRANCH  27  28
ENDBRANCH  26  27
ENDBRANCH   2  26
TORSDOF 8
ENDMDL
