MODEL 1
REMARK VINA RESULT:     -10.5      0.000      0.000
REMARK  2 active torsions:
REMARK  status: ('A' for Active; 'I' for Inactive)
REMARK    1  A    between atoms: C_7  and  C_8 
REMARK       I    between atoms: C_8  and  N_9 
REMARK    2  A    between atoms: N_9  and  C_10 
ROOT
HETATM    1  C   UNL     1       8.116  26.543  57.128  1.00  0.00     0.256 C 
HETATM    2  N   UNL     1       8.504  27.816  56.742  1.00  0.00    -0.323 N 
HETATM    3  O   UNL     1       7.847  26.183  58.269  1.00  0.00    -0.267 OA
HETATM    4  H   UNL     1       8.635  27.979  55.754  1.00  0.00     0.169 HD
ENDROOT
BRANCH   1   5
HETATM    5  C   UNL     1       7.986  25.544  56.023  1.00  0.00     0.033 A 
HETATM    6  C   UNL     1       7.460  25.988  54.803  1.00  0.00     0.019 A 
HETATM    7  C   UNL     1       7.321  25.124  53.714  1.00  0.00     0.031 A 
HETATM    8  C   UNL     1       7.725  23.797  53.887  1.00  0.00     0.043 A 
HETATM    9  C   UNL     1       8.239  23.309  55.086  1.00  0.00    -0.001 A 
HETATM   10  N   UNL     1       7.704  22.747  52.999  1.00  0.00    -0.359 N 
HETATM   11  C   UNL     1       8.539  21.922  54.892  1.00  0.00    -0.027 A 
HETATM   12  C   UNL     1       8.357  24.197  56.179  1.00  0.00     0.031 A 
HETATM   13  C   UNL     1       9.111  20.983  55.896  1.00  0.00     0.051 C 
HETATM   14  C   UNL     1       8.192  21.609  53.587  1.00  0.00     0.012 A 
HETATM   15  C   UNL     1       8.279  20.325  52.843  1.00  0.00     0.068 C 
HETATM   16  H   UNL     1       7.370  22.814  52.048  1.00  0.00     0.166 HD
ENDBRANCH   1   5
BRANCH   2  17
HETATM   17  C   UNL     1       8.662  28.950  57.571  1.00  0.00     0.037 A 
HETATM   18  C   UNL     1       7.714  29.358  58.516  1.00  0.00     0.061 A 
HETATM   19  C   UNL     1       7.993  30.499  59.235  1.00  0.00     0.065 A 
HETATM   20  C   UNL     1       9.166  31.227  59.059  1.00  0.00     0.063 A 
HETATM   21  N   UNL     1       7.236  31.140  60.211  1.00  0.00    -0.306 N 
HETATM   22  N   UNL     1       9.134  32.312  59.925  1.00  0.00    -0.307 N 
HETATM   23  C   UNL     1      10.122  30.854  58.149  1.00  0.00     0.034 A 
HETATM   24  C   UNL     1       7.933  32.274  60.649  1.00  0.00     0.325 A 
HETATM   25  H   UNL     1       9.829  33.031  60.036  1.00  0.00     0.170 HD
HETATM   26  O   UNL     1       7.569  33.076  61.492  1.00  0.00    -0.247 OA
HETATM   27  C   UNL     1       9.857  29.701  57.397  1.00  0.00     0.032 A 
HETATM   28  H   UNL     1       6.332  30.862  60.557  1.00  0.00     0.170 HD
ENDBRANCH   2  17
TORSDOF 2
ENDMDL
MODEL 2
REMARK VINA RESULT:      -9.7      1.550      2.060
REMARK  2 active torsions:
REMARK  status: ('A' for Active; 'I' for Inactive)
REMARK    1  A    between atoms: C_7  and  C_8 
REMARK       I    between atoms: C_8  and  N_9 
REMARK    2  A    between atoms: N_9  and  C_10 
ROOT
HETATM    1  C   UNL     1       7.397  27.306  54.789  1.00  0.00     0.256 C 
HETATM    2  N   UNL     1       7.580  27.401  56.159  1.00  0.00    -0.323 N 
HETATM    3  O   UNL     1       7.143  28.232  54.027  1.00  0.00    -0.267 OA
HETATM    4  H   UNL     1       7.844  26.559  56.650  1.00  0.00     0.169 HD
ENDROOT
BRANCH   1   5
HETATM    5  C   UNL     1       7.569  25.939  54.208  1.00  0.00     0.033 A 
HETATM    6  C   UNL     1       7.489  25.809  52.816  1.00  0.00     0.019 A 
HETATM    7  C   UNL     1       7.655  24.570  52.191  1.00  0.00     0.031 A 
HETATM    8  C   UNL     1       7.904  23.463  53.008  1.00  0.00     0.043 A 
HETATM    9  C   UNL     1       7.978  23.544  54.396  1.00  0.00    -0.001 A 
HETATM   10  N   UNL     1       8.107  22.146  52.668  1.00  0.00    -0.359 N 
HETATM   11  C   UNL     1       8.242  22.226  54.890  1.00  0.00    -0.027 A 
HETATM   12  C   UNL     1       7.792  24.805  55.008  1.00  0.00     0.031 A 
HETATM   13  C   UNL     1       8.406  21.822  56.313  1.00  0.00     0.051 C 
HETATM   14  C   UNL     1       8.313  21.386  53.790  1.00  0.00     0.012 A 
HETATM   15  C   UNL     1       8.559  19.922  53.703  1.00  0.00     0.068 C 
HETATM   16  H   UNL     1       8.100  21.796  51.720  1.00  0.00     0.166 HD
ENDBRANCH   1   5
BRANCH   2  17
HETATM   17  C   UNL     1       7.517  28.570  56.952  1.00  0.00     0.037 A 
HETATM   18  C   UNL     1       8.629  29.138  57.584  1.00  0.00     0.061 A 
HETATM   19  C   UNL     1       8.411  30.265  58.346  1.00  0.00     0.065 A 
HETATM   20  C   UNL     1       7.153  30.842  58.487  1.00  0.00     0.063 A 
HETATM   21  N   UNL     1       9.313  31.018  59.092  1.00  0.00    -0.306 N 
HETATM   22  N   UNL     1       7.278  31.950  59.316  1.00  0.00    -0.307 N 
HETATM   23  C   UNL     1       6.042  30.320  57.876  1.00  0.00     0.034 A 
HETATM   24  C   UNL     1       8.620  32.071  59.706  1.00  0.00     0.325 A 
HETATM   25  H   UNL     1       6.551  32.577  59.617  1.00  0.00     0.170 HD
HETATM   26  O   UNL     1       9.088  32.925  60.438  1.00  0.00    -0.247 OA
HETATM   27  C   UNL     1       6.235  29.167  57.103  1.00  0.00     0.032 A 
HETATM   28  H   UNL     1      10.300  30.852  59.199  1.00  0.00     0.170 HD
ENDBRANCH   2  17
TORSDOF 2
ENDMDL
MODEL 3
REMARK VINA RESULT:      -9.6      5.583      8.359
REMARK  2 active torsions:
REMARK  status: ('A' for Active; 'I' for Inactive)
REMARK    1  A    between atoms: C_7  and  C_8 
REMARK       I    between atoms: C_8  and  N_9 
REMARK    2  A    between atoms: N_9  and  C_10 
ROOT
HETATM    1  C   UNL     1       5.241  25.984  52.752  1.00  0.00     0.256 C 
HETATM    2  N   UNL     1       5.602  25.856  51.421  1.00  0.00    -0.323 N 
HETATM    3  O   UNL     1       4.376  26.729  53.199  1.00  0.00    -0.267 OA
HETATM    4  H   UNL     1       6.294  25.155  51.195  1.00  0.00     0.169 HD
ENDROOT
BRANCH   1   5
HETATM    5  C   UNL     1       5.964  25.088  53.707  1.00  0.00     0.033 A 
HETATM    6  C   UNL     1       5.999  25.467  55.055  1.00  0.00     0.019 A 
HETATM    7  C   UNL     1       6.639  24.679  56.015  1.00  0.00     0.031 A 
HETATM    8  C   UNL     1       7.244  23.495  55.580  1.00  0.00     0.043 A 
HETATM    9  C   UNL     1       7.245  23.088  54.248  1.00  0.00    -0.001 A 
HETATM   10  N   UNL     1       7.930  22.543  56.295  1.00  0.00    -0.359 N 
HETATM   11  C   UNL     1       7.952  21.843  54.180  1.00  0.00    -0.027 A 
HETATM   12  C   UNL     1       6.605  23.908  53.292  1.00  0.00     0.031 A 
HETATM   13  C   UNL     1       8.207  21.027  52.963  1.00  0.00     0.051 C 
HETATM   14  C   UNL     1       8.364  21.539  55.469  1.00  0.00     0.012 A 
HETATM   15  C   UNL     1       9.134  20.379  55.991  1.00  0.00     0.068 C 
HETATM   16  H   UNL     1       8.090  22.587  57.292  1.00  0.00     0.166 HD
ENDBRANCH   1   5
BRANCH   2  17
HETATM   17  C   UNL     1       5.054  26.546  50.316  1.00  0.00     0.037 A 
HETATM   18  C   UNL     1       5.290  27.900  50.053  1.00  0.00     0.061 A 
HETATM   19  C   UNL     1       4.667  28.444  48.952  1.00  0.00     0.065 A 
HETATM   20  C   UNL     1       3.844  27.699  48.112  1.00  0.00     0.063 A 
HETATM   21  N   UNL     1       4.702  29.748  48.467  1.00  0.00    -0.306 N 
HETATM   22  N   UNL     1       3.375  28.540  47.111  1.00  0.00    -0.307 N 
HETATM   23  C   UNL     1       3.596  26.369  48.332  1.00  0.00     0.034 A 
HETATM   24  C   UNL     1       3.899  29.825  47.321  1.00  0.00     0.325 A 
HETATM   25  H   UNL     1       2.755  28.308  46.353  1.00  0.00     0.170 HD
HETATM   26  O   UNL     1       3.691  30.813  46.639  1.00  0.00    -0.247 OA
HETATM   27  C   UNL     1       4.211  25.793  49.453  1.00  0.00     0.032 A 
HETATM   28  H   UNL     1       5.205  30.527  48.859  1.00  0.00     0.170 HD
ENDBRANCH   2  17
TORSDOF 2
ENDMDL
MODEL 4
REMARK VINA RESULT:      -9.6      3.847      6.361
REMARK  2 active torsions:
REMARK  status: ('A' for Active; 'I' for Inactive)
REMARK    1  A    between atoms: C_7  and  C_8 
REMARK       I    between atoms: C_8  and  N_9 
REMARK    2  A    between atoms: N_9  and  C_10 
ROOT
HETATM    1  C   UNL     1       7.933  31.708  59.764  1.00  0.00     0.256 C 
HETATM    2  N   UNL     1       7.120  31.248  60.787  1.00  0.00    -0.323 N 
HETATM    3  O   UNL     1       8.595  32.739  59.775  1.00  0.00    -0.267 OA
HETATM    4  H   UNL     1       6.680  30.348  60.659  1.00  0.00     0.169 HD
ENDROOT
BRANCH   1   5
HETATM    5  C   UNL     1       8.019  30.824  58.561  1.00  0.00     0.033 A 
HETATM    6  C   UNL     1       9.295  30.469  58.105  1.00  0.00     0.019 A 
HETATM    7  C   UNL     1       9.465  29.633  56.998  1.00  0.00     0.031 A 
HETATM    8  C   UNL     1       8.312  29.164  56.360  1.00  0.00     0.043 A 
HETATM    9  C   UNL     1       7.025  29.504  56.771  1.00  0.00    -0.001 A 
HETATM   10  N   UNL     1       8.184  28.340  55.268  1.00  0.00    -0.359 N 
HETATM   11  C   UNL     1       6.106  28.847  55.890  1.00  0.00    -0.027 A 
HETATM   12  C   UNL     1       6.877  30.363  57.884  1.00  0.00     0.031 A 
HETATM   13  C   UNL     1       4.620  28.911  55.941  1.00  0.00     0.051 C 
HETATM   14  C   UNL     1       6.861  28.136  54.970  1.00  0.00     0.012 A 
HETATM   15  C   UNL     1       6.443  27.279  53.829  1.00  0.00     0.068 C 
HETATM   16  H   UNL     1       8.963  27.946  54.759  1.00  0.00     0.166 HD
ENDBRANCH   1   5
BRANCH   2  17
HETATM   17  C   UNL     1       6.894  31.861  62.041  1.00  0.00     0.037 A 
HETATM   18  C   UNL     1       5.619  32.098  62.569  1.00  0.00     0.061 A 
HETATM   19  C   UNL     1       5.552  32.727  63.791  1.00  0.00     0.065 A 
HETATM   20  C   UNL     1       6.687  33.110  64.500  1.00  0.00     0.063 A 
HETATM   21  N   UNL     1       4.437  33.103  64.536  1.00  0.00    -0.306 N 
HETATM   22  N   UNL     1       6.274  33.718  65.679  1.00  0.00    -0.307 N 
HETATM   23  C   UNL     1       7.952  32.887  64.020  1.00  0.00     0.034 A 
HETATM   24  C   UNL     1       4.871  33.724  65.715  1.00  0.00     0.325 A 
HETATM   25  H   UNL     1       6.851  34.109  66.404  1.00  0.00     0.170 HD
HETATM   26  O   UNL     1       4.170  34.185  66.599  1.00  0.00    -0.247 OA
HETATM   27  C   UNL     1       8.047  32.257  62.772  1.00  0.00     0.032 A 
HETATM   28  H   UNL     1       3.470  32.970  64.288  1.00  0.00     0.170 HD
ENDBRANCH   2  17
TORSDOF 2
ENDMDL
MODEL 5
REMARK VINA RESULT:      -9.2      2.125      9.267
REMARK  2 active torsions:
REMARK  status: ('A' for Active; 'I' for Inactive)
REMARK    1  A    between atoms: C_7  and  C_8 
REMARK       I    between atoms: C_8  and  N_9 
REMARK    2  A    between atoms: N_9  and  C_10 
ROOT
HETATM    1  C   UNL     1       8.283  28.483  57.437  1.00  0.00     0.256 C 
HETATM    2  N   UNL     1       7.481  27.359  57.338  1.00  0.00    -0.323 N 
HETATM    3  O   UNL     1       9.414  28.608  56.981  1.00  0.00    -0.267 OA
HETATM    4  H   UNL     1       6.545  27.424  57.713  1.00  0.00     0.169 HD
ENDROOT
BRANCH   1   5
HETATM    5  C   UNL     1       7.672  29.654  58.140  1.00  0.00     0.033 A 
HETATM    6  C   UNL     1       6.526  30.227  57.573  1.00  0.00     0.019 A 
HETATM    7  C   UNL     1       5.883  31.312  58.175  1.00  0.00     0.031 A 
HETATM    8  C   UNL     1       6.427  31.805  59.365  1.00  0.00     0.043 A 
HETATM    9  C   UNL     1       7.572  31.275  59.955  1.00  0.00    -0.001 A 
HETATM   10  N   UNL     1       6.006  32.845  60.160  1.00  0.00    -0.359 N 
HETATM   11  C   UNL     1       7.828  32.027  61.147  1.00  0.00    -0.027 A 
HETATM   12  C   UNL     1       8.214  30.188  59.321  1.00  0.00     0.031 A 
HETATM   13  C   UNL     1       8.945  31.823  62.109  1.00  0.00     0.051 C 
HETATM   14  C   UNL     1       6.838  32.993  61.239  1.00  0.00     0.012 A 
HETATM   15  C   UNL     1       6.607  34.049  62.261  1.00  0.00     0.068 C 
HETATM   16  H   UNL     1       5.196  33.418  59.966  1.00  0.00     0.166 HD
ENDBRANCH   1   5
BRANCH   2  17
HETATM   17  C   UNL     1       7.793  26.139  56.694  1.00  0.00     0.037 A 
HETATM   18  C   UNL     1       7.402  25.831  55.386  1.00  0.00     0.061 A 
HETATM   19  C   UNL     1       7.756  24.593  54.899  1.00  0.00     0.065 A 
HETATM   20  C   UNL     1       8.482  23.673  55.649  1.00  0.00     0.063 A 
HETATM   21  N   UNL     1       7.490  24.018  53.660  1.00  0.00    -0.306 N 
HETATM   22  N   UNL     1       8.665  22.534  54.875  1.00  0.00    -0.307 N 
HETATM   23  C   UNL     1       8.890  23.941  56.931  1.00  0.00     0.034 A 
HETATM   24  C   UNL     1       8.048  22.732  53.631  1.00  0.00     0.325 A 
HETATM   25  H   UNL     1       9.144  21.687  55.131  1.00  0.00     0.170 HD
HETATM   26  O   UNL     1       8.005  21.938  52.708  1.00  0.00    -0.247 OA
HETATM   27  C   UNL     1       8.533  25.192  57.453  1.00  0.00     0.032 A 
HETATM   28  H   UNL     1       6.977  24.430  52.898  1.00  0.00     0.170 HD
ENDBRANCH   2  17
TORSDOF 2
ENDMDL
MODEL 6
REMARK VINA RESULT:      -9.2      2.520      2.926
REMARK  2 active torsions:
REMARK  status: ('A' for Active; 'I' for Inactive)
REMARK    1  A    between atoms: C_7  and  C_8 
REMARK       I    between atoms: C_8  and  N_9 
REMARK    2  A    between atoms: N_9  and  C_10 
ROOT
HETATM    1  C   UNL     1       6.401  27.155  54.525  1.00  0.00     0.256 C 
HETATM    2  N   UNL     1       6.582  27.343  55.885  1.00  0.00    -0.323 N 
HETATM    3  O   UNL     1       5.896  27.955  53.745  1.00  0.00    -0.267 OA
HETATM    4  H   UNL     1       7.068  26.616  56.391  1.00  0.00     0.169 HD
ENDROOT
BRANCH   1   5
HETATM    5  C   UNL     1       6.912  25.861  53.977  1.00  0.00     0.033 A 
HETATM    6  C   UNL     1       7.259  25.820  52.621  1.00  0.00     0.019 A 
HETATM    7  C   UNL     1       7.761  24.655  52.033  1.00  0.00     0.031 A 
HETATM    8  C   UNL     1       7.902  23.530  52.851  1.00  0.00     0.043 A 
HETATM    9  C   UNL     1       7.555  23.522  54.200  1.00  0.00    -0.001 A 
HETATM   10  N   UNL     1       8.364  22.272  52.545  1.00  0.00    -0.359 N 
HETATM   11  C   UNL     1       7.833  22.211  54.707  1.00  0.00    -0.027 A 
HETATM   12  C   UNL     1       7.036  24.706  54.769  1.00  0.00     0.031 A 
HETATM   13  C   UNL     1       7.624  21.730  56.100  1.00  0.00     0.051 C 
HETATM   14  C   UNL     1       8.331  21.463  53.651  1.00  0.00     0.012 A 
HETATM   15  C   UNL     1       8.780  20.047  53.594  1.00  0.00     0.068 C 
HETATM   16  H   UNL     1       8.680  21.990  51.627  1.00  0.00     0.166 HD
ENDBRANCH   1   5
BRANCH   2  17
HETATM   17  C   UNL     1       6.233  28.482  56.646  1.00  0.00     0.037 A 
HETATM   18  C   UNL     1       4.927  28.766  57.062  1.00  0.00     0.061 A 
HETATM   19  C   UNL     1       4.734  29.927  57.776  1.00  0.00     0.065 A 
HETATM   20  C   UNL     1       5.776  30.793  58.095  1.00  0.00     0.063 A 
HETATM   21  N   UNL     1       3.558  30.465  58.294  1.00  0.00    -0.306 N 
HETATM   22  N   UNL     1       5.245  31.860  58.809  1.00  0.00    -0.307 N 
HETATM   23  C   UNL     1       7.068  30.545  57.713  1.00  0.00     0.034 A 
HETATM   24  C   UNL     1       3.861  31.672  58.938  1.00  0.00     0.325 A 
HETATM   25  H   UNL     1       5.736  32.657  59.178  1.00  0.00     0.170 HD
HETATM   26  O   UNL     1       3.077  32.417  59.499  1.00  0.00    -0.247 OA
HETATM   27  C   UNL     1       7.291  29.373  56.975  1.00  0.00     0.032 A 
HETATM   28  H   UNL     1       2.632  30.077  58.223  1.00  0.00     0.170 HD
ENDBRANCH   2  17
TORSDOF 2
ENDMDL
MODEL 7
REMARK VINA RESULT:      -8.9      4.215     11.093
REMARK  2 active torsions:
REMARK  status: ('A' for Active; 'I' for Inactive)
REMARK    1  A    between atoms: C_7  and  C_8 
REMARK       I    between atoms: C_8  and  N_9 
REMARK    2  A    between atoms: N_9  and  C_10 
ROOT
HETATM    1  C   UNL     1       7.451  32.386  60.408  1.00  0.00     0.256 C 
HETATM    2  N   UNL     1       6.467  31.578  59.862  1.00  0.00    -0.323 N 
HETATM    3  O   UNL     1       8.504  32.708  59.870  1.00  0.00    -0.267 OA
HETATM    4  H   UNL     1       5.624  31.447  60.402  1.00  0.00     0.169 HD
ENDROOT
BRANCH   1   5
HETATM    5  C   UNL     1       7.158  32.930  61.770  1.00  0.00     0.033 A 
HETATM    6  C   UNL     1       7.986  32.527  62.825  1.00  0.00     0.019 A 
HETATM    7  C   UNL     1       7.792  33.002  64.124  1.00  0.00     0.031 A 
HETATM    8  C   UNL     1       6.737  33.896  64.333  1.00  0.00     0.043 A 
HETATM    9  C   UNL     1       5.880  34.312  63.317  1.00  0.00    -0.001 A 
HETATM   10  N   UNL     1       6.323  34.514  65.490  1.00  0.00    -0.359 N 
HETATM   11  C   UNL     1       4.931  35.215  63.898  1.00  0.00    -0.027 A 
HETATM   12  C   UNL     1       6.086  33.807  62.013  1.00  0.00     0.031 A 
HETATM   13  C   UNL     1       3.822  35.916  63.197  1.00  0.00     0.051 C 
HETATM   14  C   UNL     1       5.236  35.314  65.246  1.00  0.00     0.012 A 
HETATM   15  C   UNL     1       4.590  36.099  66.331  1.00  0.00     0.068 C 
HETATM   16  H   UNL     1       6.763  34.387  66.391  1.00  0.00     0.166 HD
ENDBRANCH   1   5
BRANCH   2  17
HETATM   17  C   UNL     1       6.470  30.972  58.585  1.00  0.00     0.037 A 
HETATM   18  C   UNL     1       7.379  29.980  58.200  1.00  0.00     0.061 A 
HETATM   19  C   UNL     1       7.278  29.499  56.914  1.00  0.00     0.065 A 
HETATM   20  C   UNL     1       6.313  29.952  56.018  1.00  0.00     0.063 A 
HETATM   21  N   UNL     1       8.048  28.541  56.261  1.00  0.00    -0.306 N 
HETATM   22  N   UNL     1       6.486  29.274  54.819  1.00  0.00    -0.307 N 
HETATM   23  C   UNL     1       5.400  30.916  56.362  1.00  0.00     0.034 A 
HETATM   24  C   UNL     1       7.569  28.392  54.953  1.00  0.00     0.325 A 
HETATM   25  H   UNL     1       5.954  29.378  53.971  1.00  0.00     0.170 HD
HETATM   26  O   UNL     1       8.006  27.644  54.095  1.00  0.00    -0.247 OA
HETATM   27  C   UNL     1       5.488  31.429  57.663  1.00  0.00     0.032 A 
HETATM   28  H   UNL     1       8.830  28.032  56.640  1.00  0.00     0.170 HD
ENDBRANCH   2  17
TORSDOF 2
ENDMDL
MODEL 8
REMARK VINA RESULT:      -8.8      2.673      9.823
REMARK  2 active torsions:
REMARK  status: ('A' for Active; 'I' for Inactive)
REMARK    1  A    between atoms: C_7  and  C_8 
REMARK       I    between atoms: C_8  and  N_9 
REMARK    2  A    between atoms: N_9  and  C_10 
ROOT
HETATM    1  C   UNL     1       8.483  30.074  58.869  1.00  0.00     0.256 C 
HETATM    2  N   UNL     1       7.533  29.104  58.596  1.00  0.00    -0.323 N 
HETATM    3  O   UNL     1       9.426  30.385  58.151  1.00  0.00    -0.267 OA
HETATM    4  H   UNL     1       6.776  28.999  59.257  1.00  0.00     0.169 HD
ENDROOT
BRANCH   1   5
HETATM    5  C   UNL     1       8.293  30.823  60.150  1.00  0.00     0.033 A 
HETATM    6  C   UNL     1       9.174  30.546  61.202  1.00  0.00     0.019 A 
HETATM    7  C   UNL     1       9.077  31.212  62.427  1.00  0.00     0.031 A 
HETATM    8  C   UNL     1       8.064  32.167  62.562  1.00  0.00     0.043 A 
HETATM    9  C   UNL     1       7.158  32.464  61.547  1.00  0.00    -0.001 A 
HETATM   10  N   UNL     1       7.743  32.963  63.637  1.00  0.00    -0.359 N 
HETATM   11  C   UNL     1       6.275  33.478  62.042  1.00  0.00    -0.027 A 
HETATM   12  C   UNL     1       7.265  31.766  60.323  1.00  0.00     0.031 A 
HETATM   13  C   UNL     1       5.145  34.112  61.311  1.00  0.00     0.051 C 
HETATM   14  C   UNL     1       6.668  33.760  63.342  1.00  0.00     0.012 A 
HETATM   15  C   UNL     1       6.115  34.720  64.334  1.00  0.00     0.068 C 
HETATM   16  H   UNL     1       8.236  32.952  64.519  1.00  0.00     0.166 HD
ENDBRANCH   1   5
BRANCH   2  17
HETATM   17  C   UNL     1       7.452  28.285  57.446  1.00  0.00     0.037 A 
HETATM   18  C   UNL     1       7.754  26.918  57.445  1.00  0.00     0.061 A 
HETATM   19  C   UNL     1       7.655  26.253  56.244  1.00  0.00     0.065 A 
HETATM   20  C   UNL     1       7.260  26.886  55.068  1.00  0.00     0.063 A 
HETATM   21  N   UNL     1       7.909  24.918  55.945  1.00  0.00    -0.306 N 
HETATM   22  N   UNL     1       7.269  25.943  54.048  1.00  0.00    -0.307 N 
HETATM   23  C   UNL     1       6.948  28.220  55.031  1.00  0.00     0.034 A 
HETATM   24  C   UNL     1       7.676  24.709  54.579  1.00  0.00     0.325 A 
HETATM   25  H   UNL     1       7.040  26.084  53.079  1.00  0.00     0.170 HD
HETATM   26  O   UNL     1       7.804  23.663  53.967  1.00  0.00    -0.247 OA
HETATM   27  C   UNL     1       7.051  28.922  56.240  1.00  0.00     0.032 A 
HETATM   28  H   UNL     1       8.219  24.203  56.582  1.00  0.00     0.170 HD
ENDBRANCH   2  17
TORSDOF 2
ENDMDL
MODEL 9
REMARK VINA RESULT:      -8.8      2.579      9.088
REMARK  2 active torsions:
REMARK  status: ('A' for Active; 'I' for Inactive)
REMARK    1  A    between atoms: C_7  and  C_8 
REMARK       I    between atoms: C_8  and  N_9 
REMARK    2  A    between atoms: N_9  and  C_10 
ROOT
HETATM    1  C   UNL     1       6.231  27.283  55.356  1.00  0.00     0.256 C 
HETATM    2  N   UNL     1       7.197  26.330  55.634  1.00  0.00    -0.323 N 
HETATM    3  O   UNL     1       5.443  27.262  54.418  1.00  0.00    -0.267 OA
HETATM    4  H   UNL     1       7.736  26.452  56.480  1.00  0.00     0.169 HD
ENDROOT
BRANCH   1   5
HETATM    5  C   UNL     1       6.140  28.415  56.330  1.00  0.00     0.033 A 
HETATM    6  C   UNL     1       4.872  28.952  56.586  1.00  0.00     0.019 A 
HETATM    7  C   UNL     1       4.697  29.999  57.495  1.00  0.00     0.031 A 
HETATM    8  C   UNL     1       5.836  30.492  58.139  1.00  0.00     0.043 A 
HETATM    9  C   UNL     1       7.116  29.998  57.904  1.00  0.00    -0.001 A 
HETATM   10  N   UNL     1       5.955  31.499  59.067  1.00  0.00    -0.359 N 
HETATM   11  C   UNL     1       8.022  30.737  58.732  1.00  0.00    -0.027 A 
HETATM   12  C   UNL     1       7.272  28.949  56.969  1.00  0.00     0.031 A 
HETATM   13  C   UNL     1       9.497  30.560  58.822  1.00  0.00     0.051 C 
HETATM   14  C   UNL     1       7.266  31.661  59.437  1.00  0.00     0.012 A 
HETATM   15  C   UNL     1       7.672  32.688  60.433  1.00  0.00     0.068 C 
HETATM   16  H   UNL     1       5.179  32.042  59.420  1.00  0.00     0.166 HD
ENDBRANCH   1   5
BRANCH   2  17
HETATM   17  C   UNL     1       7.467  25.148  54.908  1.00  0.00     0.037 A 
HETATM   18  C   UNL     1       7.634  23.893  55.504  1.00  0.00     0.061 A 
HETATM   19  C   UNL     1       7.919  22.834  54.671  1.00  0.00     0.065 A 
HETATM   20  C   UNL     1       8.028  22.975  53.291  1.00  0.00     0.063 A 
HETATM   21  N   UNL     1       8.151  21.497  54.983  1.00  0.00    -0.306 N 
HETATM   22  N   UNL     1       8.324  21.729  52.753  1.00  0.00    -0.307 N 
HETATM   23  C   UNL     1       7.862  24.186  52.670  1.00  0.00     0.034 A 
HETATM   24  C   UNL     1       8.408  20.796  53.797  1.00  0.00     0.325 A 
HETATM   25  H   UNL     1       8.471  21.497  51.785  1.00  0.00     0.170 HD
HETATM   26  O   UNL     1       8.660  19.609  53.690  1.00  0.00    -0.247 OA
HETATM   27  C   UNL     1       7.581  25.282  53.497  1.00  0.00     0.032 A 
HETATM   28  H   UNL     1       8.150  21.080  55.899  1.00  0.00     0.170 HD
ENDBRANCH   2  17
TORSDOF 2
ENDMDL
MODEL 10
REMARK VINA RESULT:      -8.8      2.371      9.439
REMARK  2 active torsions:
REMARK  status: ('A' for Active; 'I' for Inactive)
REMARK    1  A    between atoms: C_7  and  C_8 
REMARK       I    between atoms: C_8  and  N_9 
REMARK    2  A    between atoms: N_9  and  C_10 
ROOT
HETATM    1  C   UNL     1       7.885  29.329  58.038  1.00  0.00     0.256 C 
HETATM    2  N   UNL     1       7.033  28.256  57.838  1.00  0.00    -0.323 N 
HETATM    3  O   UNL     1       9.047  29.410  57.657  1.00  0.00    -0.267 OA
HETATM    4  H   UNL     1       6.080  28.356  58.159  1.00  0.00     0.169 HD
ENDROOT
BRANCH   1   5
HETATM    5  C   UNL     1       7.293  30.500  58.756  1.00  0.00     0.033 A 
HETATM    6  C   UNL     1       6.266  31.205  58.116  1.00  0.00     0.019 A 
HETATM    7  C   UNL     1       5.648  32.300  58.724  1.00  0.00     0.031 A 
HETATM    8  C   UNL     1       6.092  32.667  59.998  1.00  0.00     0.043 A 
HETATM    9  C   UNL     1       7.120  32.004  60.665  1.00  0.00    -0.001 A 
HETATM   10  N   UNL     1       5.669  33.686  60.818  1.00  0.00    -0.359 N 
HETATM   11  C   UNL     1       7.300  32.653  61.929  1.00  0.00    -0.027 A 
HETATM   12  C   UNL     1       7.742  30.908  60.024  1.00  0.00     0.031 A 
HETATM   13  C   UNL     1       8.285  32.292  62.985  1.00  0.00     0.051 C 
HETATM   14  C   UNL     1       6.385  33.692  61.987  1.00  0.00     0.012 A 
HETATM   15  C   UNL     1       6.125  34.696  63.053  1.00  0.00     0.068 C 
HETATM   16  H   UNL     1       4.933  34.337  60.582  1.00  0.00     0.166 HD
ENDBRANCH   1   5
BRANCH   2  17
HETATM   17  C   UNL     1       7.320  27.050  57.159  1.00  0.00     0.037 A 
HETATM   18  C   UNL     1       7.687  25.864  57.806  1.00  0.00     0.061 A 
HETATM   19  C   UNL     1       7.962  24.774  57.011  1.00  0.00     0.065 A 
HETATM   20  C   UNL     1       7.874  24.817  55.623  1.00  0.00     0.063 A 
HETATM   21  N   UNL     1       8.364  23.491  57.373  1.00  0.00    -0.306 N 
HETATM   22  N   UNL     1       8.218  23.565  55.130  1.00  0.00    -0.307 N 
HETATM   23  C   UNL     1       7.510  25.957  54.954  1.00  0.00     0.034 A 
HETATM   24  C   UNL     1       8.531  22.727  56.210  1.00  0.00     0.325 A 
HETATM   25  H   UNL     1       8.259  23.273  54.168  1.00  0.00     0.170 HD
HETATM   26  O   UNL     1       8.882  21.561  56.146  1.00  0.00    -0.247 OA
HETATM   27  C   UNL     1       7.234  27.085  55.740  1.00  0.00     0.032 A 
HETATM   28  H   UNL     1       8.525  23.147  58.305  1.00  0.00     0.170 HD
ENDBRANCH   2  17
TORSDOF 2
ENDMDL
