MODEL 1
REMARK VINA RESULT:      -8.8      0.000      0.000
REMARK  6 active torsions:
REMARK  status: ('A' for Active; 'I' for Inactive)
REMARK    1  A    between atoms: C_2  and  N_3 
REMARK    2  A    between atoms: C_4  and  S_5 
REMARK    3  A    between atoms: S_5  and  C_6 
REMARK    4  A    between atoms: C_6  and  C_7 
REMARK       I    between atoms: C_7  and  N_8 
REMARK    5  A    between atoms: N_8  and  C_9 
REMARK    6  A    between atoms: C_23  and  C_24 
ROOT
HETATM    1  C   UNL     1       7.448  27.657  56.811  1.00  0.00     0.231 C 
HETATM    2  N   UNL     1       7.450  29.035  56.663  1.00  0.00    -0.325 N 
HETATM    3  O   UNL     1       7.731  27.063  57.849  1.00  0.00    -0.272 OA
HETATM    4  H   UNL     1       6.710  29.395  56.056  1.00  0.00     0.169 HD
ENDROOT
BRANCH   2   5
HETATM    5  C   UNL     1       7.881  29.914  57.681  1.00  0.00     0.054 A 
HETATM    6  C   UNL     1       9.250  30.241  57.905  1.00  0.00     0.040 A 
HETATM    7 BR   UNL     1      10.642  29.687  56.725  1.00  0.00    -0.049 Br
HETATM    8  C   UNL     1       9.627  31.123  58.930  1.00  0.00     0.053 A 
HETATM    9  C   UNL     1       8.616  31.659  59.688  1.00  0.00     0.064 A 
HETATM   10  C   UNL     1       7.274  31.369  59.452  1.00  0.00     0.065 A 
HETATM   11  N   UNL     1       8.680  32.550  60.754  1.00  0.00    -0.306 N 
HETATM   12  N   UNL     1       6.515  32.072  60.381  1.00  0.00    -0.306 N 
HETATM   13  C   UNL     1       6.872  30.521  58.448  1.00  0.00     0.063 A 
HETATM   14  C   UNL     1       7.378  32.814  61.200  1.00  0.00     0.325 A 
HETATM   15  H   UNL     1       5.513  32.068  60.479  1.00  0.00     0.170 HD
HETATM   16  O   UNL     1       7.058  33.545  62.120  1.00  0.00    -0.247 OA
HETATM   17  H   UNL     1       9.505  32.954  61.165  1.00  0.00     0.170 HD
ENDBRANCH   2   5
BRANCH   1  18
HETATM   18  C   UNL     1       7.091  26.895  55.546  1.00  0.00     0.185 C 
BRANCH  18  19
HETATM   19  S   UNL     1       6.164  25.366  55.881  1.00  0.00    -0.081 SA
BRANCH  19  20
HETATM   20  C   UNL     1       7.392  24.212  55.516  1.00  0.00     0.192 A 
HETATM   21  N   UNL     1       7.577  23.619  54.301  1.00  0.00    -0.311 N 
HETATM   22  C   UNL     1       8.444  22.579  54.541  1.00  0.00     0.135 A 
HETATM   23  N   UNL     1       8.815  22.609  55.805  1.00  0.00    -0.134 NA
HETATM   24  N   UNL     1       8.157  23.643  56.417  1.00  0.00    -0.123 NA
BRANCH  21  25
HETATM   25  C   UNL     1       6.970  23.964  53.035  1.00  0.00     0.128 C 
HETATM   26  C   UNL     1       7.829  24.906  52.208  1.00  0.00     0.027 C 
ENDBRANCH  21  25
BRANCH  22  27
HETATM   27  C   UNL     1       8.887  21.508  53.553  1.00  0.00     0.057 A 
HETATM   28  C   UNL     1       8.876  20.063  54.003  1.00  0.00     0.013 A 
HETATM   29  C   UNL     1       7.830  20.541  53.057  1.00  0.00     0.013 A 
ENDBRANCH  22  27
ENDBRANCH  19  20
ENDBRANCH  18  19
ENDBRANCH   1  18
TORSDOF 6
ENDMDL
MODEL 2
REMARK VINA RESULT:      -8.6      2.780      9.423
REMARK  6 active torsions:
REMARK  status: ('A' for Active; 'I' for Inactive)
REMARK    1  A    between atoms: C_2  and  N_3 
REMARK    2  A    between atoms: C_4  and  S_5 
REMARK    3  A    between atoms: S_5  and  C_6 
REMARK    4  A    between atoms: C_6  and  C_7 
REMARK       I    between atoms: C_7  and  N_8 
REMARK    5  A    between atoms: N_8  and  C_9 
REMARK    6  A    between atoms: C_23  and  C_24 
ROOT
HETATM    1  C   UNL     1       6.334  26.561  56.662  1.00  0.00     0.231 C 
HETATM    2  N   UNL     1       7.482  26.213  55.967  1.00  0.00    -0.325 N 
HETATM    3  O   UNL     1       5.302  25.894  56.689  1.00  0.00    -0.272 OA
HETATM    4  H   UNL     1       8.353  26.463  56.439  1.00  0.00     0.169 HD
ENDROOT
BRANCH   2   5
HETATM    5  C   UNL     1       7.552  25.084  55.122  1.00  0.00     0.054 A 
HETATM    6  C   UNL     1       7.115  25.092  53.765  1.00  0.00     0.040 A 
HETATM    7 BR   UNL     1       6.573  26.689  52.874  1.00  0.00    -0.049 Br
HETATM    8  C   UNL     1       7.209  23.943  52.965  1.00  0.00     0.053 A 
HETATM    9  C   UNL     1       7.751  22.825  53.550  1.00  0.00     0.064 A 
HETATM   10  C   UNL     1       8.210  22.821  54.865  1.00  0.00     0.065 A 
HETATM   11  N   UNL     1       7.971  21.561  53.015  1.00  0.00    -0.306 N 
HETATM   12  N   UNL     1       8.701  21.550  55.142  1.00  0.00    -0.306 N 
HETATM   13  C   UNL     1       8.145  23.934  55.669  1.00  0.00     0.063 A 
HETATM   14  C   UNL     1       8.559  20.752  53.997  1.00  0.00     0.325 A 
HETATM   15  H   UNL     1       9.094  21.222  56.009  1.00  0.00     0.170 HD
HETATM   16  O   UNL     1       8.883  19.584  53.880  1.00  0.00    -0.247 OA
HETATM   17  H   UNL     1       7.754  21.243  52.084  1.00  0.00     0.170 HD
ENDBRANCH   2   5
BRANCH   1  18
HETATM   18  C   UNL     1       6.426  27.891  57.391  1.00  0.00     0.185 C 
BRANCH  18  19
HETATM   19  S   UNL     1       6.749  29.288  56.272  1.00  0.00    -0.081 SA
BRANCH  19  20
HETATM   20  C   UNL     1       7.285  30.450  57.429  1.00  0.00     0.192 A 
HETATM   21  N   UNL     1       8.485  30.414  58.080  1.00  0.00    -0.311 N 
HETATM   22  C   UNL     1       8.365  31.332  59.096  1.00  0.00     0.135 A 
HETATM   23  N   UNL     1       7.197  31.934  58.999  1.00  0.00    -0.134 NA
HETATM   24  N   UNL     1       6.520  31.382  57.944  1.00  0.00    -0.123 NA
BRANCH  21  25
HETATM   25  C   UNL     1       9.628  29.573  57.805  1.00  0.00     0.128 C 
HETATM   26  C   UNL     1      10.523  30.134  56.714  1.00  0.00     0.027 C 
ENDBRANCH  21  25
BRANCH  22  27
HETATM   27  C   UNL     1       9.367  31.603  60.210  1.00  0.00     0.057 A 
HETATM   28  C   UNL     1       8.845  32.048  61.559  1.00  0.00     0.013 A 
HETATM   29  C   UNL     1       9.359  30.659  61.397  1.00  0.00     0.013 A 
ENDBRANCH  22  27
ENDBRANCH  19  20
ENDBRANCH  18  19
ENDBRANCH   1  18
TORSDOF 6
ENDMDL
MODEL 3
REMARK VINA RESULT:      -8.4      2.777      9.731
REMARK  6 active torsions:
REMARK  status: ('A' for Active; 'I' for Inactive)
REMARK    1  A    between atoms: C_2  and  N_3 
REMARK    2  A    between atoms: C_4  and  S_5 
REMARK    3  A    between atoms: S_5  and  C_6 
REMARK    4  A    between atoms: C_6  and  C_7 
REMARK       I    between atoms: C_7  and  N_8 
REMARK    5  A    between atoms: N_8  and  C_9 
REMARK    6  A    between atoms: C_23  and  C_24 
ROOT
HETATM    1  C   UNL     1       6.762  27.005  56.082  1.00  0.00     0.231 C 
HETATM    2  N   UNL     1       5.986  25.960  55.604  1.00  0.00    -0.325 N 
HETATM    3  O   UNL     1       7.964  27.143  55.863  1.00  0.00    -0.272 OA
HETATM    4  H   UNL     1       5.033  26.224  55.348  1.00  0.00     0.169 HD
ENDROOT
BRANCH   2   5
HETATM    5  C   UNL     1       6.529  24.872  54.885  1.00  0.00     0.054 A 
HETATM    6  C   UNL     1       6.716  24.882  53.472  1.00  0.00     0.040 A 
HETATM    7 BR   UNL     1       6.443  26.445  52.414  1.00  0.00    -0.049 Br
HETATM    8  C   UNL     1       7.263  23.775  52.804  1.00  0.00     0.053 A 
HETATM    9  C   UNL     1       7.617  22.699  53.579  1.00  0.00     0.064 A 
HETATM   10  C   UNL     1       7.467  22.696  54.964  1.00  0.00     0.065 A 
HETATM   11  N   UNL     1       8.176  21.481  53.206  1.00  0.00    -0.306 N 
HETATM   12  N   UNL     1       7.924  21.472  55.441  1.00  0.00    -0.306 N 
HETATM   13  C   UNL     1       6.949  23.769  55.648  1.00  0.00     0.063 A 
HETATM   14  C   UNL     1       8.369  20.703  54.356  1.00  0.00     0.325 A 
HETATM   15  H   UNL     1       7.940  21.157  56.397  1.00  0.00     0.170 HD
HETATM   16  O   UNL     1       8.832  19.578  54.404  1.00  0.00    -0.247 OA
HETATM   17  H   UNL     1       8.412  21.175  52.277  1.00  0.00     0.170 HD
ENDBRANCH   2   5
BRANCH   1  18
HETATM   18  C   UNL     1       6.007  27.992  56.957  1.00  0.00     0.185 C 
BRANCH  18  19
HETATM   19  S   UNL     1       6.477  29.720  56.639  1.00  0.00    -0.081 SA
BRANCH  19  20
HETATM   20  C   UNL     1       7.249  30.077  58.140  1.00  0.00     0.192 A 
HETATM   21  N   UNL     1       7.095  31.235  58.847  1.00  0.00    -0.311 N 
HETATM   22  C   UNL     1       8.097  31.212  59.787  1.00  0.00     0.135 A 
HETATM   23  N   UNL     1       8.749  30.070  59.697  1.00  0.00    -0.134 NA
HETATM   24  N   UNL     1       8.209  29.353  58.663  1.00  0.00    -0.123 NA
BRANCH  21  25
HETATM   25  C   UNL     1       6.127  32.288  58.639  1.00  0.00     0.128 C 
HETATM   26  C   UNL     1       4.784  31.988  59.284  1.00  0.00     0.027 C 
ENDBRANCH  21  25
BRANCH  22  27
HETATM   27  C   UNL     1       8.468  32.324  60.759  1.00  0.00     0.057 A 
HETATM   28  C   UNL     1       7.481  32.692  61.846  1.00  0.00     0.013 A 
HETATM   29  C   UNL     1       8.711  31.931  62.204  1.00  0.00     0.013 A 
ENDBRANCH  22  27
ENDBRANCH  19  20
ENDBRANCH  18  19
ENDBRANCH   1  18
TORSDOF 6
ENDMDL
MODEL 4
REMARK VINA RESULT:      -8.1      4.952      8.598
REMARK  6 active torsions:
REMARK  status: ('A' for Active; 'I' for Inactive)
REMARK    1  A    between atoms: C_2  and  N_3 
REMARK    2  A    between atoms: C_4  and  S_5 
REMARK    3  A    between atoms: S_5  and  C_6 
REMARK    4  A    between atoms: C_6  and  C_7 
REMARK       I    between atoms: C_7  and  N_8 
REMARK    5  A    between atoms: N_8  and  C_9 
REMARK    6  A    between atoms: C_23  and  C_24 
ROOT
HETATM    1  C   UNL     1       5.925  27.049  54.607  1.00  0.00     0.231 C 
HETATM    2  N   UNL     1       7.178  26.580  54.243  1.00  0.00    -0.325 N 
HETATM    3  O   UNL     1       5.108  26.420  55.274  1.00  0.00    -0.272 OA
HETATM    4  H   UNL     1       7.910  27.294  54.234  1.00  0.00     0.169 HD
ENDROOT
BRANCH   2   5
HETATM    5  C   UNL     1       7.614  25.266  54.523  1.00  0.00     0.054 A 
HETATM    6  C   UNL     1       8.104  24.859  55.799  1.00  0.00     0.040 A 
HETATM    7 BR   UNL     1       8.037  25.993  57.331  1.00  0.00    -0.049 Br
HETATM    8  C   UNL     1       8.522  23.539  56.028  1.00  0.00     0.053 A 
HETATM    9  C   UNL     1       8.422  22.667  54.972  1.00  0.00     0.064 A 
HETATM   10  C   UNL     1       7.913  23.051  53.734  1.00  0.00     0.065 A 
HETATM   11  N   UNL     1       8.752  21.318  54.900  1.00  0.00    -0.306 N 
HETATM   12  N   UNL     1       7.941  21.941  52.897  1.00  0.00    -0.306 N 
HETATM   13  C   UNL     1       7.482  24.332  53.483  1.00  0.00     0.063 A 
HETATM   14  C   UNL     1       8.462  20.851  53.610  1.00  0.00     0.325 A 
HETATM   15  H   UNL     1       7.650  21.894  51.935  1.00  0.00     0.170 HD
HETATM   16  O   UNL     1       8.630  19.721  53.191  1.00  0.00    -0.247 OA
HETATM   17  H   UNL     1       9.139  20.742  55.630  1.00  0.00     0.170 HD
ENDBRANCH   2   5
BRANCH   1  18
HETATM   18  C   UNL     1       5.601  28.436  54.078  1.00  0.00     0.185 C 
BRANCH  18  19
HETATM   19  S   UNL     1       3.976  28.520  53.265  1.00  0.00    -0.081 SA
BRANCH  19  20
HETATM   20  C   UNL     1       4.397  27.845  51.735  1.00  0.00     0.192 A 
HETATM   21  N   UNL     1       3.870  28.228  50.535  1.00  0.00    -0.311 N 
HETATM   22  C   UNL     1       4.253  27.248  49.650  1.00  0.00     0.135 A 
HETATM   23  N   UNL     1       5.031  26.385  50.271  1.00  0.00    -0.134 NA
HETATM   24  N   UNL     1       5.127  26.766  51.583  1.00  0.00    -0.123 NA
BRANCH  21  25
HETATM   25  C   UNL     1       3.049  29.382  50.246  1.00  0.00     0.128 C 
HETATM   26  C   UNL     1       1.566  29.112  50.437  1.00  0.00     0.027 C 
ENDBRANCH  21  25
BRANCH  22  27
HETATM   27  C   UNL     1       3.827  27.110  48.194  1.00  0.00     0.057 A 
HETATM   28  C   UNL     1       3.615  25.720  47.634  1.00  0.00     0.013 A 
HETATM   29  C   UNL     1       2.432  26.577  47.927  1.00  0.00     0.013 A 
ENDBRANCH  22  27
ENDBRANCH  19  20
ENDBRANCH  18  19
ENDBRANCH   1  18
TORSDOF 6
ENDMDL
MODEL 5
REMARK VINA RESULT:      -8.0      2.058      2.688
REMARK  6 active torsions:
REMARK  status: ('A' for Active; 'I' for Inactive)
REMARK    1  A    between atoms: C_2  and  N_3 
REMARK    2  A    between atoms: C_4  and  S_5 
REMARK    3  A    between atoms: S_5  and  C_6 
REMARK    4  A    between atoms: C_6  and  C_7 
REMARK       I    between atoms: C_7  and  N_8 
REMARK    5  A    between atoms: N_8  and  C_9 
REMARK    6  A    between atoms: C_23  and  C_24 
ROOT
HETATM    1  C   UNL     1       7.720  28.237  55.032  1.00  0.00     0.231 C 
HETATM    2  N   UNL     1       6.819  28.351  56.080  1.00  0.00    -0.325 N 
HETATM    3  O   UNL     1       8.706  28.953  54.875  1.00  0.00    -0.272 OA
HETATM    4  H   UNL     1       6.453  27.459  56.420  1.00  0.00     0.169 HD
ENDROOT
BRANCH   2   5
HETATM    5  C   UNL     1       6.889  29.384  57.040  1.00  0.00     0.054 A 
HETATM    6  C   UNL     1       6.108  30.574  56.968  1.00  0.00     0.040 A 
HETATM    7 BR   UNL     1       4.730  30.818  55.673  1.00  0.00    -0.049 Br
HETATM    8  C   UNL     1       6.213  31.571  57.951  1.00  0.00     0.053 A 
HETATM    9  C   UNL     1       7.088  31.334  58.981  1.00  0.00     0.064 A 
HETATM   10  C   UNL     1       7.828  30.159  59.074  1.00  0.00     0.065 A 
HETATM   11  N   UNL     1       7.397  32.124  60.083  1.00  0.00    -0.306 N 
HETATM   12  N   UNL     1       8.602  30.231  60.228  1.00  0.00    -0.306 N 
HETATM   13  C   UNL     1       7.738  29.158  58.137  1.00  0.00     0.063 A 
HETATM   14  C   UNL     1       8.345  31.452  60.868  1.00  0.00     0.325 A 
HETATM   15  H   UNL     1       9.252  29.543  60.571  1.00  0.00     0.170 HD
HETATM   16  O   UNL     1       8.846  31.849  61.904  1.00  0.00    -0.247 OA
HETATM   17  H   UNL     1       7.027  33.032  60.310  1.00  0.00     0.170 HD
ENDBRANCH   2   5
BRANCH   1  18
HETATM   18  C   UNL     1       7.376  27.148  54.030  1.00  0.00     0.185 C 
BRANCH  18  19
HETATM   19  S   UNL     1       5.874  26.225  54.479  1.00  0.00    -0.081 SA
BRANCH  19  20
HETATM   20  C   UNL     1       6.471  24.618  54.291  1.00  0.00     0.192 A 
HETATM   21  N   UNL     1       7.093  23.891  55.264  1.00  0.00    -0.311 N 
HETATM   22  C   UNL     1       7.653  22.822  54.607  1.00  0.00     0.135 A 
HETATM   23  N   UNL     1       7.308  22.868  53.336  1.00  0.00    -0.134 NA
HETATM   24  N   UNL     1       6.558  23.996  53.139  1.00  0.00    -0.123 NA
BRANCH  21  25
HETATM   25  C   UNL     1       7.193  24.187  56.676  1.00  0.00     0.128 C 
HETATM   26  C   UNL     1       8.435  24.990  57.022  1.00  0.00     0.027 C 
ENDBRANCH  21  25
BRANCH  22  27
HETATM   27  C   UNL     1       8.574  21.762  55.197  1.00  0.00     0.057 A 
HETATM   28  C   UNL     1       7.984  20.741  56.146  1.00  0.00     0.013 A 
HETATM   29  C   UNL     1       8.347  20.326  54.763  1.00  0.00     0.013 A 
ENDBRANCH  22  27
ENDBRANCH  19  20
ENDBRANCH  18  19
ENDBRANCH   1  18
TORSDOF 6
ENDMDL
MODEL 6
REMARK VINA RESULT:      -8.0      2.827      9.771
REMARK  6 active torsions:
REMARK  status: ('A' for Active; 'I' for Inactive)
REMARK    1  A    between atoms: C_2  and  N_3 
REMARK    2  A    between atoms: C_4  and  S_5 
REMARK    3  A    between atoms: S_5  and  C_6 
REMARK    4  A    between atoms: C_6  and  C_7 
REMARK       I    between atoms: C_7  and  N_8 
REMARK    5  A    between atoms: N_8  and  C_9 
REMARK    6  A    between atoms: C_23  and  C_24 
ROOT
HETATM    1  C   UNL     1       6.382  28.644  57.280  1.00  0.00     0.231 C 
HETATM    2  N   UNL     1       7.549  28.046  56.829  1.00  0.00    -0.325 N 
HETATM    3  O   UNL     1       5.302  28.071  57.399  1.00  0.00    -0.272 OA
HETATM    4  H   UNL     1       8.399  28.377  57.290  1.00  0.00     0.169 HD
ENDROOT
BRANCH   2   5
HETATM    5  C   UNL     1       7.593  26.716  56.356  1.00  0.00     0.054 A 
HETATM    6  C   UNL     1       7.300  26.353  55.009  1.00  0.00     0.040 A 
HETATM    7 BR   UNL     1       7.011  27.649  53.639  1.00  0.00    -0.049 Br
HETATM    8  C   UNL     1       7.362  25.016  54.588  1.00  0.00     0.053 A 
HETATM    9  C   UNL     1       7.729  24.087  55.530  1.00  0.00     0.064 A 
HETATM   10  C   UNL     1       8.049  24.440  56.838  1.00  0.00     0.065 A 
HETATM   11  N   UNL     1       7.877  22.710  55.409  1.00  0.00    -0.306 N 
HETATM   12  N   UNL     1       8.383  23.278  57.525  1.00  0.00    -0.306 N 
HETATM   13  C   UNL     1       8.012  25.742  57.277  1.00  0.00     0.063 A 
HETATM   14  C   UNL     1       8.280  22.189  56.647  1.00  0.00     0.325 A 
HETATM   15  H   UNL     1       8.651  23.196  58.492  1.00  0.00     0.170 HD
HETATM   16  O   UNL     1       8.498  21.021  56.908  1.00  0.00    -0.247 OA
HETATM   17  H   UNL     1       7.726  22.147  54.588  1.00  0.00     0.170 HD
ENDBRANCH   2   5
BRANCH   1  18
HETATM   18  C   UNL     1       6.524  30.123  57.600  1.00  0.00     0.185 C 
BRANCH  18  19
HETATM   19  S   UNL     1       8.009  30.493  58.583  1.00  0.00    -0.081 SA
BRANCH  19  20
HETATM   20  C   UNL     1       7.295  31.491  59.795  1.00  0.00     0.192 A 
HETATM   21  N   UNL     1       7.686  31.541  61.103  1.00  0.00    -0.311 N 
HETATM   22  C   UNL     1       6.679  32.217  61.749  1.00  0.00     0.135 A 
HETATM   23  N   UNL     1       5.789  32.617  60.863  1.00  0.00    -0.134 NA
HETATM   24  N   UNL     1       6.182  32.165  59.631  1.00  0.00    -0.123 NA
BRANCH  21  25
HETATM   25  C   UNL     1       8.873  30.976  61.704  1.00  0.00     0.128 C 
HETATM   26  C   UNL     1      10.106  31.839  61.498  1.00  0.00     0.027 C 
ENDBRANCH  21  25
BRANCH  22  27
HETATM   27  C   UNL     1       6.541  32.443  63.249  1.00  0.00     0.057 A 
HETATM   28  C   UNL     1       7.703  33.063  63.995  1.00  0.00     0.013 A 
HETATM   29  C   UNL     1       6.486  33.880  63.732  1.00  0.00     0.013 A 
ENDBRANCH  22  27
ENDBRANCH  19  20
ENDBRANCH  18  19
ENDBRANCH   1  18
TORSDOF 6
ENDMDL
MODEL 7
REMARK VINA RESULT:      -7.9      4.333      6.272
REMARK  6 active torsions:
REMARK  status: ('A' for Active; 'I' for Inactive)
REMARK    1  A    between atoms: C_2  and  N_3 
REMARK    2  A    between atoms: C_4  and  S_5 
REMARK    3  A    between atoms: S_5  and  C_6 
REMARK    4  A    between atoms: C_6  and  C_7 
REMARK       I    between atoms: C_7  and  N_8 
REMARK    5  A    between atoms: N_8  and  C_9 
REMARK    6  A    between atoms: C_23  and  C_24 
ROOT
HETATM    1  C   UNL     1       5.231  32.475  60.230  1.00  0.00     0.231 C 
HETATM    2  N   UNL     1       5.632  31.699  61.307  1.00  0.00    -0.325 N 
HETATM    3  O   UNL     1       5.270  33.703  60.198  1.00  0.00    -0.272 OA
HETATM    4  H   UNL     1       6.086  30.821  61.048  1.00  0.00     0.169 HD
ENDROOT
BRANCH   2   5
HETATM    5  C   UNL     1       6.042  32.255  62.539  1.00  0.00     0.054 A 
HETATM    6  C   UNL     1       7.408  32.442  62.899  1.00  0.00     0.040 A 
HETATM    7 BR   UNL     1       8.839  32.149  61.672  1.00  0.00    -0.049 Br
HETATM    8  C   UNL     1       7.763  33.002  64.136  1.00  0.00     0.053 A 
HETATM    9  C   UNL     1       6.734  33.369  64.966  1.00  0.00     0.064 A 
HETATM   10  C   UNL     1       5.397  33.220  64.606  1.00  0.00     0.065 A 
HETATM   11  N   UNL     1       6.775  33.943  66.232  1.00  0.00    -0.306 N 
HETATM   12  N   UNL     1       4.616  33.691  65.656  1.00  0.00    -0.306 N 
HETATM   13  C   UNL     1       5.017  32.688  63.397  1.00  0.00     0.063 A 
HETATM   14  C   UNL     1       5.461  34.146  66.678  1.00  0.00     0.325 A 
HETATM   15  H   UNL     1       3.611  33.712  65.708  1.00  0.00     0.170 HD
HETATM   16  O   UNL     1       5.121  34.623  67.745  1.00  0.00    -0.247 OA
HETATM   17  H   UNL     1       7.592  34.183  66.770  1.00  0.00     0.170 HD
ENDBRANCH   2   5
BRANCH   1  18
HETATM   18  C   UNL     1       4.688  31.678  59.056  1.00  0.00     0.185 C 
BRANCH  18  19
HETATM   19  S   UNL     1       5.682  31.879  57.546  1.00  0.00    -0.081 SA
BRANCH  19  20
HETATM   20  C   UNL     1       6.600  30.421  57.624  1.00  0.00     0.192 A 
HETATM   21  N   UNL     1       6.200  29.213  57.130  1.00  0.00    -0.311 N 
HETATM   22  C   UNL     1       7.077  28.301  57.666  1.00  0.00     0.135 A 
HETATM   23  N   UNL     1       7.992  28.942  58.366  1.00  0.00    -0.134 NA
HETATM   24  N   UNL     1       7.694  30.279  58.333  1.00  0.00    -0.123 NA
BRANCH  21  25
HETATM   25  C   UNL     1       5.076  28.927  56.266  1.00  0.00     0.128 C 
HETATM   26  C   UNL     1       5.414  29.077  54.792  1.00  0.00     0.027 C 
ENDBRANCH  21  25
BRANCH  22  27
HETATM   27  C   UNL     1       7.012  26.784  57.546  1.00  0.00     0.057 A 
HETATM   28  C   UNL     1       7.314  26.153  56.205  1.00  0.00     0.013 A 
HETATM   29  C   UNL     1       8.316  26.050  57.302  1.00  0.00     0.013 A 
ENDBRANCH  22  27
ENDBRANCH  19  20
ENDBRANCH  18  19
ENDBRANCH   1  18
TORSDOF 6
ENDMDL
MODEL 8
REMARK VINA RESULT:      -7.9      3.699      5.366
REMARK  6 active torsions:
REMARK  status: ('A' for Active; 'I' for Inactive)
REMARK    1  A    between atoms: C_2  and  N_3 
REMARK    2  A    between atoms: C_4  and  S_5 
REMARK    3  A    between atoms: S_5  and  C_6 
REMARK    4  A    between atoms: C_6  and  C_7 
REMARK       I    between atoms: C_7  and  N_8 
REMARK    5  A    between atoms: N_8  and  C_9 
REMARK    6  A    between atoms: C_23  and  C_24 
ROOT
HETATM    1  C   UNL     1       6.265  32.096  59.329  1.00  0.00     0.231 C 
HETATM    2  N   UNL     1       6.616  31.350  60.444  1.00  0.00    -0.325 N 
HETATM    3  O   UNL     1       6.084  33.311  59.327  1.00  0.00    -0.272 OA
HETATM    4  H   UNL     1       7.259  30.580  60.251  1.00  0.00     0.169 HD
ENDROOT
BRANCH   2   5
HETATM    5  C   UNL     1       6.706  31.907  61.739  1.00  0.00     0.054 A 
HETATM    6  C   UNL     1       7.945  32.188  62.386  1.00  0.00     0.040 A 
HETATM    7 BR   UNL     1       9.624  32.030  61.497  1.00  0.00    -0.049 Br
HETATM    8  C   UNL     1       7.980  32.746  63.674  1.00  0.00     0.053 A 
HETATM    9  C   UNL     1       6.771  33.017  64.264  1.00  0.00     0.064 A 
HETATM   10  C   UNL     1       5.559  32.776  63.622  1.00  0.00     0.065 A 
HETATM   11  N   UNL     1       6.494  33.564  65.512  1.00  0.00    -0.306 N 
HETATM   12  N   UNL     1       4.536  33.164  64.481  1.00  0.00    -0.306 N 
HETATM   13  C   UNL     1       5.491  32.244  62.357  1.00  0.00     0.063 A 
HETATM   14  C   UNL     1       5.103  33.658  65.665  1.00  0.00     0.325 A 
HETATM   15  H   UNL     1       3.544  33.108  64.315  1.00  0.00     0.170 HD
HETATM   16  O   UNL     1       4.505  34.085  66.635  1.00  0.00    -0.247 OA
HETATM   17  H   UNL     1       7.155  33.852  66.215  1.00  0.00     0.170 HD
ENDBRANCH   2   5
BRANCH   1  18
HETATM   18  C   UNL     1       6.080  31.275  58.064  1.00  0.00     0.185 C 
BRANCH  18  19
HETATM   19  S   UNL     1       7.285  29.920  57.918  1.00  0.00    -0.081 SA
BRANCH  19  20
HETATM   20  C   UNL     1       6.303  28.763  57.100  1.00  0.00     0.192 A 
HETATM   21  N   UNL     1       6.741  27.567  56.609  1.00  0.00    -0.311 N 
HETATM   22  C   UNL     1       5.726  27.123  55.796  1.00  0.00     0.135 A 
HETATM   23  N   UNL     1       4.714  27.964  55.869  1.00  0.00    -0.134 NA
HETATM   24  N   UNL     1       5.076  28.994  56.696  1.00  0.00    -0.123 NA
BRANCH  21  25
HETATM   25  C   UNL     1       8.009  26.913  56.845  1.00  0.00     0.128 C 
HETATM   26  C   UNL     1       7.891  25.721  57.780  1.00  0.00     0.027 C 
ENDBRANCH  21  25
BRANCH  22  27
HETATM   27  C   UNL     1       5.743  25.895  54.894  1.00  0.00     0.057 A 
HETATM   28  C   UNL     1       5.062  25.981  53.546  1.00  0.00     0.013 A 
HETATM   29  C   UNL     1       6.549  25.987  53.612  1.00  0.00     0.013 A 
ENDBRANCH  22  27
ENDBRANCH  19  20
ENDBRANCH  18  19
ENDBRANCH   1  18
TORSDOF 6
ENDMDL
MODEL 9
REMARK VINA RESULT:      -7.7      1.771      2.126
REMARK  6 active torsions:
REMARK  status: ('A' for Active; 'I' for Inactive)
REMARK    1  A    between atoms: C_2  and  N_3 
REMARK    2  A    between atoms: C_4  and  S_5 
REMARK    3  A    between atoms: S_5  and  C_6 
REMARK    4  A    between atoms: C_6  and  C_7 
REMARK       I    between atoms: C_7  and  N_8 
REMARK    5  A    between atoms: N_8  and  C_9 
REMARK    6  A    between atoms: C_23  and  C_24 
ROOT
HETATM    1  C   UNL     1       7.691  28.446  57.292  1.00  0.00     0.231 C 
HETATM    2  N   UNL     1       7.556  29.820  57.171  1.00  0.00    -0.325 N 
HETATM    3  O   UNL     1       7.531  27.815  58.334  1.00  0.00    -0.272 OA
HETATM    4  H   UNL     1       7.150  30.128  56.285  1.00  0.00     0.169 HD
ENDROOT
BRANCH   2   5
HETATM    5  C   UNL     1       7.313  30.665  58.277  1.00  0.00     0.054 A 
HETATM    6  C   UNL     1       6.271  31.637  58.306  1.00  0.00     0.040 A 
HETATM    7 BR   UNL     1       4.956  31.771  56.931  1.00  0.00    -0.049 Br
HETATM    8  C   UNL     1       6.069  32.451  59.432  1.00  0.00     0.053 A 
HETATM    9  C   UNL     1       6.911  32.252  60.497  1.00  0.00     0.064 A 
HETATM   10  C   UNL     1       7.908  31.281  60.487  1.00  0.00     0.065 A 
HETATM   11  N   UNL     1       6.950  32.894  61.730  1.00  0.00    -0.306 N 
HETATM   12  N   UNL     1       8.569  31.334  61.710  1.00  0.00    -0.306 N 
HETATM   13  C   UNL     1       8.122  30.459  59.406  1.00  0.00     0.063 A 
HETATM   14  C   UNL     1       7.983  32.336  62.496  1.00  0.00     0.325 A 
HETATM   15  H   UNL     1       9.346  30.767  62.009  1.00  0.00     0.170 HD
HETATM   16  O   UNL     1       8.308  32.659  63.625  1.00  0.00    -0.247 OA
HETATM   17  H   UNL     1       6.356  33.641  62.051  1.00  0.00     0.170 HD
ENDBRANCH   2   5
BRANCH   1  18
HETATM   18  C   UNL     1       8.098  27.745  56.007  1.00  0.00     0.185 C 
BRANCH  18  19
HETATM   19  S   UNL     1       6.830  26.590  55.400  1.00  0.00    -0.081 SA
BRANCH  19  20
HETATM   20  C   UNL     1       7.681  25.106  55.616  1.00  0.00     0.192 A 
HETATM   21  N   UNL     1       7.583  24.017  54.799  1.00  0.00    -0.311 N 
HETATM   22  C   UNL     1       8.177  22.994  55.496  1.00  0.00     0.135 A 
HETATM   23  N   UNL     1       8.673  23.469  56.622  1.00  0.00    -0.134 NA
HETATM   24  N   UNL     1       8.366  24.801  56.693  1.00  0.00    -0.123 NA
BRANCH  21  25
HETATM   25  C   UNL     1       6.955  23.928  53.499  1.00  0.00     0.128 C 
HETATM   26  C   UNL     1       7.844  24.444  52.380  1.00  0.00     0.027 C 
ENDBRANCH  21  25
BRANCH  22  27
HETATM   27  C   UNL     1       8.230  21.524  55.102  1.00  0.00     0.057 A 
HETATM   28  C   UNL     1       9.158  20.604  55.867  1.00  0.00     0.013 A 
HETATM   29  C   UNL     1       7.689  20.517  56.100  1.00  0.00     0.013 A 
ENDBRANCH  22  27
ENDBRANCH  19  20
ENDBRANCH  18  19
ENDBRANCH   1  18
TORSDOF 6
ENDMDL
MODEL 10
REMARK VINA RESULT:      -7.6      4.059      5.957
REMARK  6 active torsions:
REMARK  status: ('A' for Active; 'I' for Inactive)
REMARK    1  A    between atoms: C_2  and  N_3 
REMARK    2  A    between atoms: C_4  and  S_5 
REMARK    3  A    between atoms: S_5  and  C_6 
REMARK    4  A    between atoms: C_6  and  C_7 
REMARK       I    between atoms: C_7  and  N_8 
REMARK    5  A    between atoms: N_8  and  C_9 
REMARK    6  A    between atoms: C_23  and  C_24 
ROOT
HETATM    1  C   UNL     1       6.747  27.934  56.005  1.00  0.00     0.231 C 
HETATM    2  N   UNL     1       5.366  27.867  55.902  1.00  0.00    -0.325 N 
HETATM    3  O   UNL     1       7.463  28.684  55.345  1.00  0.00    -0.272 OA
HETATM    4  H   UNL     1       4.885  27.703  56.788  1.00  0.00     0.169 HD
ENDROOT
BRANCH   2   5
HETATM    5  C   UNL     1       4.634  28.597  54.939  1.00  0.00     0.054 A 
HETATM    6  C   UNL     1       4.201  29.940  55.138  1.00  0.00     0.040 A 
HETATM    7 BR   UNL     1       4.735  30.976  56.648  1.00  0.00    -0.049 Br
HETATM    8  C   UNL     1       3.479  30.624  54.148  1.00  0.00     0.053 A 
HETATM    9  C   UNL     1       3.227  29.941  52.984  1.00  0.00     0.064 A 
HETATM   10  C   UNL     1       3.677  28.640  52.771  1.00  0.00     0.065 A 
HETATM   11  N   UNL     1       2.548  30.352  51.842  1.00  0.00    -0.306 N 
HETATM   12  N   UNL     1       3.264  28.247  51.502  1.00  0.00    -0.306 N 
HETATM   13  C   UNL     1       4.398  27.949  53.715  1.00  0.00     0.063 A 
HETATM   14  C   UNL     1       2.558  29.304  50.910  1.00  0.00     0.325 A 
HETATM   15  H   UNL     1       3.423  27.359  51.057  1.00  0.00     0.170 HD
HETATM   16  O   UNL     1       2.053  29.311  49.802  1.00  0.00    -0.247 OA
HETATM   17  H   UNL     1       2.108  31.242  51.678  1.00  0.00     0.170 HD
ENDBRANCH   2   5
BRANCH   1  18
HETATM   18  C   UNL     1       7.346  26.958  57.003  1.00  0.00     0.185 C 
BRANCH  18  19
HETATM   19  S   UNL     1       6.389  25.417  57.144  1.00  0.00    -0.081 SA
BRANCH  19  20
HETATM   20  C   UNL     1       7.504  24.330  56.403  1.00  0.00     0.192 A 
HETATM   21  N   UNL     1       7.684  24.185  55.057  1.00  0.00    -0.311 N 
HETATM   22  C   UNL     1       8.422  23.034  54.919  1.00  0.00     0.135 A 
HETATM   23  N   UNL     1       8.733  22.574  56.115  1.00  0.00    -0.134 NA
HETATM   24  N   UNL     1       8.159  23.396  57.049  1.00  0.00    -0.123 NA
BRANCH  21  25
HETATM   25  C   UNL     1       7.179  25.022  53.992  1.00  0.00     0.128 C 
HETATM   26  C   UNL     1       5.836  24.552  53.460  1.00  0.00     0.027 C 
ENDBRANCH  21  25
BRANCH  22  27
HETATM   27  C   UNL     1       8.796  22.335  53.619  1.00  0.00     0.057 A 
HETATM   28  C   UNL     1       8.967  20.831  53.632  1.00  0.00     0.013 A 
HETATM   29  C   UNL     1       7.756  21.423  52.997  1.00  0.00     0.013 A 
ENDBRANCH  22  27
ENDBRANCH  19  20
ENDBRANCH  18  19
ENDBRANCH   1  18
TORSDOF 6
ENDMDL
