MODEL 1
REMARK VINA RESULT:      -8.6      0.000      0.000
REMARK  2 active torsions:
REMARK  status: ('A' for Active; 'I' for Inactive)
REMARK    1  A    between atoms: C_7  and  C_8 
REMARK    2  A    between atoms: C_8  and  O_9 
ROOT
HETATM    1  C   UNL     1       5.903  26.358  55.437  1.00  0.00     0.199 A 
HETATM    2  C   UNL     1       5.716  25.835  56.900  1.00  0.00     0.266 A 
HETATM    3  O   UNL     1       4.858  25.066  57.308  1.00  0.00    -0.269 OA
HETATM    4  N   UNL     1       6.675  26.461  57.694  1.00  0.00    -0.323 N 
HETATM    5  C   UNL     1       7.457  27.328  56.943  1.00  0.00     0.045 A 
HETATM    6  C   UNL     1       7.062  27.310  55.602  1.00  0.00     0.017 A 
HETATM    7  C   UNL     1       8.477  28.133  57.408  1.00  0.00     0.030 A 
HETATM    8  C   UNL     1       9.121  28.955  56.480  1.00  0.00     0.002 A 
HETATM    9  C   UNL     1       8.734  28.955  55.129  1.00  0.00     0.001 A 
HETATM   10  C   UNL     1       7.695  28.133  54.681  1.00  0.00     0.013 A 
HETATM   11  H   UNL     1       6.742  26.318  58.689  1.00  0.00     0.169 HD
ENDROOT
BRANCH   1  12
HETATM   12  C   UNL     1       6.317  25.301  54.435  1.00  0.00     0.025 A 
HETATM   13  C   UNL     1       5.858  25.188  53.120  1.00  0.00     0.016 A 
HETATM   14  C   UNL     1       4.898  26.015  52.339  1.00  0.00     0.069 C 
HETATM   15  N   UNL     1       6.457  24.096  52.549  1.00  0.00    -0.359 N 
HETATM   16  H   UNL     1       6.303  23.776  51.603  1.00  0.00     0.166 HD
HETATM   17  C   UNL     1       7.304  23.485  53.437  1.00  0.00     0.043 A 
HETATM   18  C   UNL     1       7.252  24.213  54.627  1.00  0.00     0.003 A 
HETATM   19  C   UNL     1       8.104  22.348  53.263  1.00  0.00     0.030 A 
HETATM   20  C   UNL     1       8.062  23.767  55.696  1.00  0.00     0.014 A 
HETATM   21  C   UNL     1       8.866  22.630  55.542  1.00  0.00     0.001 A 
HETATM   22  C   UNL     1       8.885  21.930  54.342  1.00  0.00     0.002 A 
ENDBRANCH   1  12
BRANCH   1  23
HETATM   23  O   UNL     1       4.734  27.072  55.044  1.00  0.00    -0.371 OA
HETATM   24  H   UNL     1       4.214  26.418  54.544  1.00  0.00     0.212 HD
ENDBRANCH   1  23
TORSDOF 2
ENDMDL
MODEL 2
REMARK VINA RESULT:      -8.4      1.840      3.023
REMARK  2 active torsions:
REMARK  status: ('A' for Active; 'I' for Inactive)
REMARK    1  A    between atoms: C_7  and  C_8 
REMARK    2  A    between atoms: C_8  and  O_9 
ROOT
HETATM    1  C   UNL     1       6.825  28.109  55.678  1.00  0.00     0.199 A 
HETATM    2  C   UNL     1       5.516  28.347  56.500  1.00  0.00     0.266 A 
HETATM    3  O   UNL     1       4.378  28.024  56.193  1.00  0.00    -0.269 OA
HETATM    4  N   UNL     1       5.864  29.066  57.643  1.00  0.00    -0.323 N 
HETATM    5  C   UNL     1       7.226  29.335  57.669  1.00  0.00     0.045 A 
HETATM    6  C   UNL     1       7.855  28.792  56.544  1.00  0.00     0.017 A 
HETATM    7  C   UNL     1       7.908  30.050  58.632  1.00  0.00     0.030 A 
HETATM    8  C   UNL     1       9.281  30.226  58.449  1.00  0.00     0.002 A 
HETATM    9  C   UNL     1       9.930  29.693  57.322  1.00  0.00     0.001 A 
HETATM   10  C   UNL     1       9.218  28.974  56.357  1.00  0.00     0.013 A 
HETATM   11  H   UNL     1       5.189  29.376  58.323  1.00  0.00     0.169 HD
ENDROOT
BRANCH   1  12
HETATM   12  C   UNL     1       7.231  26.657  55.540  1.00  0.00     0.025 A 
HETATM   13  C   UNL     1       7.540  25.786  56.589  1.00  0.00     0.016 A 
HETATM   14  C   UNL     1       7.556  25.989  58.064  1.00  0.00     0.069 C 
HETATM   15  N   UNL     1       7.872  24.570  56.053  1.00  0.00    -0.359 N 
HETATM   16  H   UNL     1       8.144  23.755  56.583  1.00  0.00     0.166 HD
HETATM   17  C   UNL     1       7.786  24.601  54.685  1.00  0.00     0.043 A 
HETATM   18  C   UNL     1       7.379  25.887  54.324  1.00  0.00     0.003 A 
HETATM   19  C   UNL     1       8.038  23.584  53.755  1.00  0.00     0.030 A 
HETATM   20  C   UNL     1       7.213  26.152  52.946  1.00  0.00     0.014 A 
HETATM   21  C   UNL     1       7.464  25.149  52.001  1.00  0.00     0.001 A 
HETATM   22  C   UNL     1       7.872  23.883  52.402  1.00  0.00     0.002 A 
ENDBRANCH   1  12
BRANCH   1  23
HETATM   23  O   UNL     1       6.717  28.780  54.425  1.00  0.00    -0.371 OA
HETATM   24  H   UNL     1       6.288  29.627  54.646  1.00  0.00     0.212 HD
ENDBRANCH   1  23
TORSDOF 2
ENDMDL
MODEL 3
REMARK VINA RESULT:      -8.4      1.932      2.578
REMARK  2 active torsions:
REMARK  status: ('A' for Active; 'I' for Inactive)
REMARK    1  A    between atoms: C_7  and  C_8 
REMARK    2  A    between atoms: C_8  and  O_9 
ROOT
HETATM    1  C   UNL     1       6.915  28.724  55.880  1.00  0.00     0.199 A 
HETATM    2  C   UNL     1       6.086  28.816  57.204  1.00  0.00     0.266 A 
HETATM    3  O   UNL     1       4.894  28.583  57.351  1.00  0.00    -0.269 OA
HETATM    4  N   UNL     1       6.939  29.286  58.201  1.00  0.00    -0.323 N 
HETATM    5  C   UNL     1       8.213  29.519  57.700  1.00  0.00     0.045 A 
HETATM    6  C   UNL     1       8.271  29.200  56.340  1.00  0.00     0.017 A 
HETATM    7  C   UNL     1       9.296  30.014  58.396  1.00  0.00     0.030 A 
HETATM    8  C   UNL     1      10.486  30.198  57.688  1.00  0.00     0.002 A 
HETATM    9  C   UNL     1      10.562  29.888  56.319  1.00  0.00     0.001 A 
HETATM   10  C   UNL     1       9.450  29.390  55.633  1.00  0.00     0.013 A 
HETATM   11  H   UNL     1       6.634  29.466  59.144  1.00  0.00     0.169 HD
ENDROOT
BRANCH   1  12
HETATM   12  C   UNL     1       7.081  27.321  55.336  1.00  0.00     0.025 A 
HETATM   13  C   UNL     1       6.705  26.882  54.063  1.00  0.00     0.016 A 
HETATM   14  C   UNL     1       6.078  27.601  52.920  1.00  0.00     0.069 C 
HETATM   15  N   UNL     1       7.008  25.550  53.962  1.00  0.00    -0.359 N 
HETATM   16  H   UNL     1       6.837  24.974  53.149  1.00  0.00     0.166 HD
HETATM   17  C   UNL     1       7.580  25.091  55.120  1.00  0.00     0.043 A 
HETATM   18  C   UNL     1       7.653  26.171  56.002  1.00  0.00     0.003 A 
HETATM   19  C   UNL     1       8.034  23.804  55.438  1.00  0.00     0.030 A 
HETATM   20  C   UNL     1       8.224  25.932  57.273  1.00  0.00     0.014 A 
HETATM   21  C   UNL     1       8.679  24.651  57.611  1.00  0.00     0.001 A 
HETATM   22  C   UNL     1       8.583  23.602  56.705  1.00  0.00     0.002 A 
ENDBRANCH   1  12
BRANCH   1  23
HETATM   23  O   UNL     1       6.373  29.633  54.927  1.00  0.00    -0.371 OA
HETATM   24  H   UNL     1       7.084  30.286  54.792  1.00  0.00     0.212 HD
ENDBRANCH   1  23
TORSDOF 2
ENDMDL
MODEL 4
REMARK VINA RESULT:      -8.1      2.015      3.067
REMARK  2 active torsions:
REMARK  status: ('A' for Active; 'I' for Inactive)
REMARK    1  A    between atoms: C_7  and  C_8 
REMARK    2  A    between atoms: C_8  and  O_9 
ROOT
HETATM    1  C   UNL     1       6.494  25.360  53.640  1.00  0.00     0.199 A 
HETATM    2  C   UNL     1       4.960  25.443  53.341  1.00  0.00     0.266 A 
HETATM    3  O   UNL     1       4.284  24.649  52.703  1.00  0.00    -0.269 OA
HETATM    4  N   UNL     1       4.493  26.641  53.880  1.00  0.00    -0.323 N 
HETATM    5  C   UNL     1       5.521  27.352  54.484  1.00  0.00     0.045 A 
HETATM    6  C   UNL     1       6.727  26.650  54.387  1.00  0.00     0.017 A 
HETATM    7  C   UNL     1       5.425  28.588  55.089  1.00  0.00     0.030 A 
HETATM    8  C   UNL     1       6.597  29.139  55.614  1.00  0.00     0.002 A 
HETATM    9  C   UNL     1       7.819  28.452  55.520  1.00  0.00     0.001 A 
HETATM   10  C   UNL     1       7.892  27.201  54.900  1.00  0.00     0.013 A 
HETATM   11  H   UNL     1       3.537  26.947  53.791  1.00  0.00     0.169 HD
ENDROOT
BRANCH   1  12
HETATM   12  C   UNL     1       6.899  24.222  54.552  1.00  0.00     0.025 A 
HETATM   13  C   UNL     1       6.780  24.201  55.945  1.00  0.00     0.016 A 
HETATM   14  C   UNL     1       6.246  25.209  56.902  1.00  0.00     0.069 C 
HETATM   15  N   UNL     1       7.269  23.005  56.399  1.00  0.00    -0.359 N 
HETATM   16  H   UNL     1       7.310  22.723  57.369  1.00  0.00     0.166 HD
HETATM   17  C   UNL     1       7.701  22.228  55.356  1.00  0.00     0.043 A 
HETATM   18  C   UNL     1       7.479  22.949  54.182  1.00  0.00     0.003 A 
HETATM   19  C   UNL     1       8.268  20.946  55.377  1.00  0.00     0.030 A 
HETATM   20  C   UNL     1       7.845  22.333  52.963  1.00  0.00     0.014 A 
HETATM   21  C   UNL     1       8.415  21.054  52.964  1.00  0.00     0.001 A 
HETATM   22  C   UNL     1       8.625  20.372  54.157  1.00  0.00     0.002 A 
ENDBRANCH   1  12
BRANCH   1  23
HETATM   23  O   UNL     1       7.210  25.371  52.408  1.00  0.00    -0.371 OA
HETATM   24  H   UNL     1       7.303  24.428  52.180  1.00  0.00     0.212 HD
ENDBRANCH   1  23
TORSDOF 2
ENDMDL
MODEL 5
REMARK VINA RESULT:      -8.0     10.280     13.711
REMARK  2 active torsions:
REMARK  status: ('A' for Active; 'I' for Inactive)
REMARK    1  A    between atoms: C_7  and  C_8 
REMARK    2  A    between atoms: C_8  and  O_9 
ROOT
HETATM    1  C   UNL     1       4.714  33.974  64.084  1.00  0.00     0.199 A 
HETATM    2  C   UNL     1       3.738  33.796  62.875  1.00  0.00     0.266 A 
HETATM    3  O   UNL     1       2.543  34.052  62.841  1.00  0.00    -0.269 OA
HETATM    4  N   UNL     1       4.463  33.217  61.834  1.00  0.00    -0.323 N 
HETATM    5  C   UNL     1       5.780  32.988  62.208  1.00  0.00     0.045 A 
HETATM    6  C   UNL     1       5.999  33.419  63.521  1.00  0.00     0.017 A 
HETATM    7  C   UNL     1       6.766  32.403  61.442  1.00  0.00     0.030 A 
HETATM    8  C   UNL     1       8.024  32.243  62.027  1.00  0.00     0.002 A 
HETATM    9  C   UNL     1       8.262  32.664  63.346  1.00  0.00     0.001 A 
HETATM   10  C   UNL     1       7.246  33.253  64.106  1.00  0.00     0.013 A 
HETATM   11  H   UNL     1       4.049  32.967  60.950  1.00  0.00     0.169 HD
ENDROOT
BRANCH   1  12
HETATM   12  C   UNL     1       4.971  35.412  64.483  1.00  0.00     0.025 A 
HETATM   13  C   UNL     1       4.805  35.955  65.760  1.00  0.00     0.016 A 
HETATM   14  C   UNL     1       4.367  35.337  67.042  1.00  0.00     0.069 C 
HETATM   15  N   UNL     1       5.125  37.286  65.705  1.00  0.00    -0.359 N 
HETATM   16  H   UNL     1       5.089  37.926  66.487  1.00  0.00     0.166 HD
HETATM   17  C   UNL     1       5.505  37.643  64.438  1.00  0.00     0.043 A 
HETATM   18  C   UNL     1       5.432  36.498  63.644  1.00  0.00     0.003 A 
HETATM   19  C   UNL     1       5.907  38.894  63.950  1.00  0.00     0.030 A 
HETATM   20  C   UNL     1       5.792  36.628  62.283  1.00  0.00     0.014 A 
HETATM   21  C   UNL     1       6.193  37.871  61.776  1.00  0.00     0.001 A 
HETATM   22  C   UNL     1       6.247  38.988  62.600  1.00  0.00     0.002 A 
ENDBRANCH   1  12
BRANCH   1  23
HETATM   23  O   UNL     1       4.265  33.166  65.169  1.00  0.00    -0.371 OA
HETATM   24  H   UNL     1       3.365  32.897  64.907  1.00  0.00     0.212 HD
ENDBRANCH   1  23
TORSDOF 2
ENDMDL
MODEL 6
REMARK VINA RESULT:      -7.9      1.776      4.113
REMARK  2 active torsions:
REMARK  status: ('A' for Active; 'I' for Inactive)
REMARK    1  A    between atoms: C_7  and  C_8 
REMARK    2  A    between atoms: C_8  and  O_9 
ROOT
HETATM    1  C   UNL     1       6.183  26.493  54.895  1.00  0.00     0.199 A 
HETATM    2  C   UNL     1       6.888  27.857  54.593  1.00  0.00     0.266 A 
HETATM    3  O   UNL     1       7.408  28.617  55.397  1.00  0.00    -0.269 OA
HETATM    4  N   UNL     1       6.765  28.098  53.226  1.00  0.00    -0.323 N 
HETATM    5  C   UNL     1       6.065  27.076  52.599  1.00  0.00     0.045 A 
HETATM    6  C   UNL     1       5.700  26.092  53.523  1.00  0.00     0.017 A 
HETATM    7  C   UNL     1       5.732  27.003  51.262  1.00  0.00     0.030 A 
HETATM    8  C   UNL     1       4.997  25.892  50.843  1.00  0.00     0.002 A 
HETATM    9  C   UNL     1       4.615  24.896  51.758  1.00  0.00     0.001 A 
HETATM   10  C   UNL     1       4.961  24.993  53.109  1.00  0.00     0.013 A 
HETATM   11  H   UNL     1       7.109  28.935  52.783  1.00  0.00     0.169 HD
ENDROOT
BRANCH   1  12
HETATM   12  C   UNL     1       7.105  25.401  55.394  1.00  0.00     0.025 A 
HETATM   13  C   UNL     1       7.605  25.275  56.693  1.00  0.00     0.016 A 
HETATM   14  C   UNL     1       7.396  26.104  57.912  1.00  0.00     0.069 C 
HETATM   15  N   UNL     1       8.412  24.169  56.737  1.00  0.00    -0.359 N 
HETATM   16  H   UNL     1       8.909  23.843  57.554  1.00  0.00     0.166 HD
HETATM   17  C   UNL     1       8.459  23.552  55.514  1.00  0.00     0.043 A 
HETATM   18  C   UNL     1       7.648  24.286  54.647  1.00  0.00     0.003 A 
HETATM   19  C   UNL     1       9.160  22.402  55.124  1.00  0.00     0.030 A 
HETATM   20  C   UNL     1       7.536  23.824  53.316  1.00  0.00     0.014 A 
HETATM   21  C   UNL     1       8.232  22.679  52.907  1.00  0.00     0.001 A 
HETATM   22  C   UNL     1       9.034  21.980  53.800  1.00  0.00     0.002 A 
ENDBRANCH   1  12
BRANCH   1  23
HETATM   23  O   UNL     1       5.072  26.724  55.758  1.00  0.00    -0.371 OA
HETATM   24  H   UNL     1       4.334  26.905  55.149  1.00  0.00     0.212 HD
ENDBRANCH   1  23
TORSDOF 2
ENDMDL
MODEL 7
REMARK VINA RESULT:      -7.8      8.118     10.082
REMARK  2 active torsions:
REMARK  status: ('A' for Active; 'I' for Inactive)
REMARK    1  A    between atoms: C_7  and  C_8 
REMARK    2  A    between atoms: C_8  and  O_9 
ROOT
HETATM    1  C   UNL     1       4.621  32.756  61.902  1.00  0.00     0.199 A 
HETATM    2  C   UNL     1       4.837  31.930  63.213  1.00  0.00     0.266 A 
HETATM    3  O   UNL     1       4.683  30.726  63.365  1.00  0.00    -0.269 OA
HETATM    4  N   UNL     1       5.179  32.828  64.223  1.00  0.00    -0.323 N 
HETATM    5  C   UNL     1       5.206  34.131  63.745  1.00  0.00     0.045 A 
HETATM    6  C   UNL     1       4.896  34.161  62.382  1.00  0.00     0.017 A 
HETATM    7  C   UNL     1       5.474  35.272  64.473  1.00  0.00     0.030 A 
HETATM    8  C   UNL     1       5.423  36.493  63.796  1.00  0.00     0.002 A 
HETATM    9  C   UNL     1       5.106  36.543  62.428  1.00  0.00     0.001 A 
HETATM   10  C   UNL     1       4.835  35.374  61.711  1.00  0.00     0.013 A 
HETATM   11  H   UNL     1       5.337  32.546  65.177  1.00  0.00     0.169 HD
ENDROOT
BRANCH   1  12
HETATM   12  C   UNL     1       5.604  32.450  60.792  1.00  0.00     0.025 A 
HETATM   13  C   UNL     1       5.293  32.285  59.440  1.00  0.00     0.016 A 
HETATM   14  C   UNL     1       3.997  32.365  58.712  1.00  0.00     0.069 C 
HETATM   15  N   UNL     1       6.452  32.006  58.764  1.00  0.00    -0.359 N 
HETATM   16  H   UNL     1       6.519  31.835  57.771  1.00  0.00     0.166 HD
HETATM   17  C   UNL     1       7.522  31.987  59.620  1.00  0.00     0.043 A 
HETATM   18  C   UNL     1       7.036  32.270  60.898  1.00  0.00     0.003 A 
HETATM   19  C   UNL     1       8.875  31.742  59.347  1.00  0.00     0.030 A 
HETATM   20  C   UNL     1       7.974  32.313  61.954  1.00  0.00     0.014 A 
HETATM   21  C   UNL     1       9.330  32.067  61.702  1.00  0.00     0.001 A 
HETATM   22  C   UNL     1       9.772  31.784  60.415  1.00  0.00     0.002 A 
ENDBRANCH   1  12
BRANCH   1  23
HETATM   23  O   UNL     1       3.261  32.635  61.494  1.00  0.00    -0.371 OA
HETATM   24  H   UNL     1       2.753  32.915  62.277  1.00  0.00     0.212 HD
ENDBRANCH   1  23
TORSDOF 2
ENDMDL
MODEL 8
REMARK VINA RESULT:      -7.8      8.743     12.278
REMARK  2 active torsions:
REMARK  status: ('A' for Active; 'I' for Inactive)
REMARK    1  A    between atoms: C_7  and  C_8 
REMARK    2  A    between atoms: C_8  and  O_9 
ROOT
HETATM    1  C   UNL     1       5.480  32.803  62.741  1.00  0.00     0.199 A 
HETATM    2  C   UNL     1       4.517  32.620  61.522  1.00  0.00     0.266 A 
HETATM    3  O   UNL     1       3.301  32.749  61.511  1.00  0.00    -0.269 OA
HETATM    4  N   UNL     1       5.288  32.208  60.436  1.00  0.00    -0.323 N 
HETATM    5  C   UNL     1       6.626  32.091  60.789  1.00  0.00     0.045 A 
HETATM    6  C   UNL     1       6.811  32.436  62.132  1.00  0.00     0.017 A 
HETATM    7  C   UNL     1       7.661  31.679  59.976  1.00  0.00     0.030 A 
HETATM    8  C   UNL     1       8.935  31.608  60.544  1.00  0.00     0.002 A 
HETATM    9  C   UNL     1       9.140  31.944  61.893  1.00  0.00     0.001 A 
HETATM   10  C   UNL     1       8.075  32.357  62.699  1.00  0.00     0.013 A 
HETATM   11  H   UNL     1       4.895  31.988  59.535  1.00  0.00     0.169 HD
ENDROOT
BRANCH   1  12
HETATM   12  C   UNL     1       5.587  34.224  63.254  1.00  0.00     0.025 A 
HETATM   13  C   UNL     1       6.036  34.610  64.520  1.00  0.00     0.016 A 
HETATM   14  C   UNL     1       6.528  33.810  65.675  1.00  0.00     0.069 C 
HETATM   15  N   UNL     1       5.968  35.976  64.601  1.00  0.00    -0.359 N 
HETATM   16  H   UNL     1       6.227  36.525  65.409  1.00  0.00     0.166 HD
HETATM   17  C   UNL     1       5.496  36.510  63.430  1.00  0.00     0.043 A 
HETATM   18  C   UNL     1       5.254  35.448  62.558  1.00  0.00     0.003 A 
HETATM   19  C   UNL     1       5.273  37.852  63.092  1.00  0.00     0.030 A 
HETATM   20  C   UNL     1       4.766  35.765  61.269  1.00  0.00     0.014 A 
HETATM   21  C   UNL     1       4.532  37.100  60.914  1.00  0.00     0.001 A 
HETATM   22  C   UNL     1       4.781  38.128  61.815  1.00  0.00     0.002 A 
ENDBRANCH   1  12
BRANCH   1  23
HETATM   23  O   UNL     1       5.131  31.867  63.756  1.00  0.00    -0.371 OA
HETATM   24  H   UNL     1       5.941  31.784  64.291  1.00  0.00     0.212 HD
ENDBRANCH   1  23
TORSDOF 2
ENDMDL
MODEL 9
REMARK VINA RESULT:      -7.7      9.426     11.670
REMARK  2 active torsions:
REMARK  status: ('A' for Active; 'I' for Inactive)
REMARK    1  A    between atoms: C_7  and  C_8 
REMARK    2  A    between atoms: C_8  and  O_9 
ROOT
HETATM    1  C   UNL     1       3.736  34.727  62.185  1.00  0.00     0.199 A 
HETATM    2  C   UNL     1       3.006  34.387  63.527  1.00  0.00     0.266 A 
HETATM    3  O   UNL     1       2.178  33.509  63.718  1.00  0.00    -0.269 OA
HETATM    4  N   UNL     1       3.419  35.321  64.476  1.00  0.00    -0.323 N 
HETATM    5  C   UNL     1       4.315  36.228  63.928  1.00  0.00     0.045 A 
HETATM    6  C   UNL     1       4.554  35.931  62.583  1.00  0.00     0.017 A 
HETATM    7  C   UNL     1       4.900  37.300  64.569  1.00  0.00     0.030 A 
HETATM    8  C   UNL     1       5.759  38.108  63.819  1.00  0.00     0.002 A 
HETATM    9  C   UNL     1       6.006  37.829  62.464  1.00  0.00     0.001 A 
HETATM   10  C   UNL     1       5.399  36.737  61.834  1.00  0.00     0.013 A 
HETATM   11  H   UNL     1       3.064  35.339  65.419  1.00  0.00     0.169 HD
ENDROOT
BRANCH   1  12
HETATM   12  C   UNL     1       4.695  33.661  61.700  1.00  0.00     0.025 A 
HETATM   13  C   UNL     1       4.561  32.901  60.534  1.00  0.00     0.016 A 
HETATM   14  C   UNL     1       3.517  32.905  59.472  1.00  0.00     0.069 C 
HETATM   15  N   UNL     1       5.623  32.038  60.459  1.00  0.00    -0.359 N 
HETATM   16  H   UNL     1       5.776  31.367  59.720  1.00  0.00     0.166 HD
HETATM   17  C   UNL     1       6.461  32.205  61.530  1.00  0.00     0.043 A 
HETATM   18  C   UNL     1       5.922  33.217  62.326  1.00  0.00     0.003 A 
HETATM   19  C   UNL     1       7.651  31.532  61.841  1.00  0.00     0.030 A 
HETATM   20  C   UNL     1       6.633  33.570  63.496  1.00  0.00     0.014 A 
HETATM   21  C   UNL     1       7.822  32.907  63.825  1.00  0.00     0.001 A 
HETATM   22  C   UNL     1       8.322  31.900  63.008  1.00  0.00     0.002 A 
ENDBRANCH   1  12
BRANCH   1  23
HETATM   23  O   UNL     1       2.767  35.094  61.207  1.00  0.00    -0.371 OA
HETATM   24  H   UNL     1       1.999  35.383  61.732  1.00  0.00     0.212 HD
ENDBRANCH   1  23
TORSDOF 2
ENDMDL
MODEL 10
REMARK VINA RESULT:      -7.7      8.948     12.212
REMARK  2 active torsions:
REMARK  status: ('A' for Active; 'I' for Inactive)
REMARK    1  A    between atoms: C_7  and  C_8 
REMARK    2  A    between atoms: C_8  and  O_9 
ROOT
HETATM    1  C   UNL     1       5.056  32.545  62.537  1.00  0.00     0.199 A 
HETATM    2  C   UNL     1       4.351  32.292  61.163  1.00  0.00     0.266 A 
HETATM    3  O   UNL     1       3.150  32.233  60.946  1.00  0.00    -0.269 OA
HETATM    4  N   UNL     1       5.350  32.075  60.214  1.00  0.00    -0.323 N 
HETATM    5  C   UNL     1       6.611  32.145  60.791  1.00  0.00     0.045 A 
HETATM    6  C   UNL     1       6.512  32.428  62.157  1.00  0.00     0.017 A 
HETATM    7  C   UNL     1       7.820  31.950  60.156  1.00  0.00     0.030 A 
HETATM    8  C   UNL     1       8.976  32.041  60.935  1.00  0.00     0.002 A 
HETATM    9  C   UNL     1       8.896  32.318  62.310  1.00  0.00     0.001 A 
HETATM   10  C   UNL     1       7.659  32.509  62.933  1.00  0.00     0.013 A 
HETATM   11  H   UNL     1       5.153  31.855  59.251  1.00  0.00     0.169 HD
ENDROOT
BRANCH   1  12
HETATM   12  C   UNL     1       4.842  33.929  63.113  1.00  0.00     0.025 A 
HETATM   13  C   UNL     1       4.651  35.104  62.381  1.00  0.00     0.016 A 
HETATM   14  C   UNL     1       4.589  35.350  60.914  1.00  0.00     0.069 C 
HETATM   15  N   UNL     1       4.510  36.141  63.265  1.00  0.00    -0.359 N 
HETATM   16  H   UNL     1       4.364  37.108  63.009  1.00  0.00     0.166 HD
HETATM   17  C   UNL     1       4.592  35.694  64.558  1.00  0.00     0.043 A 
HETATM   18  C   UNL     1       4.791  34.313  64.507  1.00  0.00     0.003 A 
HETATM   19  C   UNL     1       4.503  36.416  65.756  1.00  0.00     0.030 A 
HETATM   20  C   UNL     1       4.898  33.628  65.739  1.00  0.00     0.014 A 
HETATM   21  C   UNL     1       4.815  34.333  66.946  1.00  0.00     0.001 A 
HETATM   22  C   UNL     1       4.622  35.709  66.953  1.00  0.00     0.002 A 
ENDBRANCH   1  12
BRANCH   1  23
HETATM   23  O   UNL     1       4.700  31.502  63.441  1.00  0.00    -0.371 OA
HETATM   24  H   UNL     1       5.134  31.754  64.276  1.00  0.00     0.212 HD
ENDBRANCH   1  23
TORSDOF 2
ENDMDL
