MODEL 1
REMARK VINA RESULT:      -9.1      0.000      0.000
REMARK  8 active torsions:
REMARK  status: ('A' for Active; 'I' for Inactive)
REMARK    1  A    between atoms: N_2  and  C_3 
REMARK    2  A    between atoms: C_6  and  N_7 
REMARK       I    between atoms: N_7  and  C_8 
REMARK    3  A    between atoms: C_8  and  C_9 
REMARK    4  A    between atoms: C_9  and  O_10 
REMARK    5  A    between atoms: O_10  and  C_11 
REMARK    6  A    between atoms: C_11  and  C_12 
REMARK    7  A    between atoms: C_13  and  N_14 
REMARK       I    between atoms: N_14  and  C_15 
REMARK    8  A    between atoms: C_15  and  C_16 
ROOT
HETATM    1  C   UNL     1       8.304  28.558  56.922  1.00  0.00     0.296 C 
HETATM    2  O   UNL     1       8.696  27.525  57.445  1.00  0.00    -0.259 OA
ENDROOT
BRANCH   1   3
HETATM    3  O   UNL     1       9.058  29.647  56.639  1.00  0.00    -0.308 OA
BRANCH   3   4
HETATM    4  C   UNL     1      10.059  29.954  57.607  1.00  0.00     0.282 C 
BRANCH   4   5
HETATM    5  C   UNL     1       9.667  31.060  58.596  1.00  0.00     0.246 C 
HETATM    6  N   UNL     1       8.783  30.627  59.567  1.00  0.00    -0.325 N 
HETATM    7  H   UNL     1       8.424  29.676  59.450  1.00  0.00     0.169 HD
HETATM    8  O   UNL     1      10.138  32.190  58.490  1.00  0.00    -0.271 OA
BRANCH   6   9
HETATM    9  C   UNL     1       8.275  31.350  60.663  1.00  0.00     0.034 A 
HETATM   10  C   UNL     1       8.925  31.482  61.885  1.00  0.00     0.032 A 
HETATM   11  C   UNL     1       8.334  32.204  62.936  1.00  0.00     0.031 A 
HETATM   12  C   UNL     1       7.085  32.830  62.801  1.00  0.00     0.029 A 
HETATM   13  C   UNL     1       6.444  32.672  61.562  1.00  0.00     0.031 A 
HETATM   14  C   UNL     1       7.025  31.950  60.510  1.00  0.00     0.032 A 
BRANCH  12  15
HETATM   15  N   UNL     1       6.460  33.533  63.842  1.00  0.00    -0.390 N 
HETATM   16  C   UNL     1       7.308  33.818  65.004  1.00  0.00     0.149 C 
HETATM   17  C   UNL     1       5.078  33.190  64.178  1.00  0.00     0.149 C 
ENDBRANCH  12  15
ENDBRANCH   6   9
ENDBRANCH   4   5
ENDBRANCH   3   4
ENDBRANCH   1   3
BRANCH   1  18
HETATM   18  C   UNL     1       6.898  28.821  56.555  1.00  0.00     0.066 A 
HETATM   19  C   UNL     1       6.077  27.846  55.961  1.00  0.00     0.051 A 
HETATM   20  C   UNL     1       4.693  28.079  55.906  1.00  0.00     0.030 A 
HETATM   21  C   UNL     1       4.146  29.284  56.354  1.00  0.00     0.002 A 
HETATM   22  C   UNL     1       4.971  30.269  56.887  1.00  0.00     0.001 A 
HETATM   23  C   UNL     1       6.340  30.034  57.003  1.00  0.00     0.020 A 
BRANCH  19  24
HETATM   24  N   UNL     1       6.508  26.630  55.386  1.00  0.00    -0.320 N 
HETATM   25  C   UNL     1       7.207  26.473  54.199  1.00  0.00     0.279 C 
HETATM   26  O   UNL     1       7.543  27.393  53.459  1.00  0.00    -0.265 OA
HETATM   27  H   UNL     1       6.091  25.771  55.733  1.00  0.00     0.169 HD
BRANCH  25  28
HETATM   28  C   UNL     1       7.425  25.080  53.856  1.00  0.00     0.142 A 
HETATM   29  O   UNL     1       7.186  24.107  54.796  1.00  0.00    -0.317 OA
HETATM   30  C   UNL     1       7.452  22.911  54.210  1.00  0.00     0.143 A 
HETATM   31  C   UNL     1       7.849  23.090  52.906  1.00  0.00     0.027 A 
HETATM   32  C   UNL     1       7.833  24.486  52.676  1.00  0.00     0.045 A 
ENDBRANCH  25  28
ENDBRANCH  19  24
ENDBRANCH   1  18
TORSDOF 8
ENDMDL
MODEL 2
REMARK VINA RESULT:      -9.1      2.248      9.928
REMARK  8 active torsions:
REMARK  status: ('A' for Active; 'I' for Inactive)
REMARK    1  A    between atoms: N_2  and  C_3 
REMARK    2  A    between atoms: C_6  and  N_7 
REMARK       I    between atoms: N_7  and  C_8 
REMARK    3  A    between atoms: C_8  and  C_9 
REMARK    4  A    between atoms: C_9  and  O_10 
REMARK    5  A    between atoms: O_10  and  C_11 
REMARK    6  A    between atoms: C_11  and  C_12 
REMARK    7  A    between atoms: C_13  and  N_14 
REMARK       I    between atoms: N_14  and  C_15 
REMARK    8  A    between atoms: C_15  and  C_16 
ROOT
HETATM    1  C   UNL     1       6.801  29.621  57.774  1.00  0.00     0.296 C 
HETATM    2  O   UNL     1       5.898  30.422  57.969  1.00  0.00    -0.259 OA
ENDROOT
BRANCH   1   3
HETATM    3  O   UNL     1       6.691  28.271  57.791  1.00  0.00    -0.308 OA
BRANCH   3   4
HETATM    4  C   UNL     1       5.596  27.748  57.042  1.00  0.00     0.282 C 
BRANCH   4   5
HETATM    5  C   UNL     1       5.743  26.273  56.647  1.00  0.00     0.246 C 
HETATM    6  N   UNL     1       6.801  26.049  55.784  1.00  0.00    -0.325 N 
HETATM    7  H   UNL     1       7.278  26.885  55.439  1.00  0.00     0.169 HD
HETATM    8  O   UNL     1       4.979  25.424  57.099  1.00  0.00    -0.271 OA
BRANCH   6   9
HETATM    9  C   UNL     1       7.265  24.819  55.281  1.00  0.00     0.034 A 
HETATM   10  C   UNL     1       7.051  24.373  53.981  1.00  0.00     0.032 A 
HETATM   11  C   UNL     1       7.530  23.118  53.568  1.00  0.00     0.031 A 
HETATM   12  C   UNL     1       8.249  22.274  54.427  1.00  0.00     0.029 A 
HETATM   13  C   UNL     1       8.443  22.742  55.737  1.00  0.00     0.031 A 
HETATM   14  C   UNL     1       7.964  23.991  56.159  1.00  0.00     0.032 A 
BRANCH  12  15
HETATM   15  N   UNL     1       8.716  21.005  54.049  1.00  0.00    -0.390 N 
HETATM   16  C   UNL     1       8.169  20.486  52.791  1.00  0.00     0.149 C 
HETATM   17  C   UNL     1       8.890  19.993  55.091  1.00  0.00     0.149 C 
ENDBRANCH  12  15
ENDBRANCH   6   9
ENDBRANCH   4   5
ENDBRANCH   3   4
ENDBRANCH   1   3
BRANCH   1  18
HETATM   18  C   UNL     1       8.210  29.999  57.538  1.00  0.00     0.066 A 
HETATM   19  C   UNL     1       8.968  30.716  58.481  1.00  0.00     0.051 A 
HETATM   20  C   UNL     1      10.359  30.785  58.307  1.00  0.00     0.030 A 
HETATM   21  C   UNL     1      10.975  30.228  57.183  1.00  0.00     0.002 A 
HETATM   22  C   UNL     1      10.212  29.571  56.225  1.00  0.00     0.001 A 
HETATM   23  C   UNL     1       8.836  29.441  56.407  1.00  0.00     0.020 A 
BRANCH  19  24
HETATM   24  N   UNL     1       8.464  31.404  59.607  1.00  0.00    -0.320 N 
HETATM   25  C   UNL     1       8.595  31.031  60.936  1.00  0.00     0.279 C 
HETATM   26  O   UNL     1       9.168  30.017  61.325  1.00  0.00    -0.265 OA
HETATM   27  H   UNL     1       7.755  32.113  59.448  1.00  0.00     0.169 HD
BRANCH  25  28
HETATM   28  C   UNL     1       7.890  31.921  61.840  1.00  0.00     0.142 A 
HETATM   29  O   UNL     1       6.646  32.388  61.494  1.00  0.00    -0.317 OA
HETATM   30  C   UNL     1       6.217  33.176  62.515  1.00  0.00     0.143 A 
HETATM   31  C   UNL     1       7.155  33.219  63.518  1.00  0.00     0.027 A 
HETATM   32  C   UNL     1       8.234  32.413  63.085  1.00  0.00     0.045 A 
ENDBRANCH  25  28
ENDBRANCH  19  24
ENDBRANCH   1  18
TORSDOF 8
ENDMDL
MODEL 3
REMARK VINA RESULT:      -8.7      2.368      5.053
REMARK  8 active torsions:
REMARK  status: ('A' for Active; 'I' for Inactive)
REMARK    1  A    between atoms: N_2  and  C_3 
REMARK    2  A    between atoms: C_6  and  N_7 
REMARK       I    between atoms: N_7  and  C_8 
REMARK    3  A    between atoms: C_8  and  C_9 
REMARK    4  A    between atoms: C_9  and  O_10 
REMARK    5  A    between atoms: O_10  and  C_11 
REMARK    6  A    between atoms: C_11  and  C_12 
REMARK    7  A    between atoms: C_13  and  N_14 
REMARK       I    between atoms: N_14  and  C_15 
REMARK    8  A    between atoms: C_15  and  C_16 
ROOT
HETATM    1  C   UNL     1       8.433  28.590  57.646  1.00  0.00     0.296 C 
HETATM    2  O   UNL     1       9.386  28.755  56.898  1.00  0.00    -0.259 OA
ENDROOT
BRANCH   1   3
HETATM    3  O   UNL     1       8.265  29.157  58.865  1.00  0.00    -0.308 OA
BRANCH   3   4
HETATM    4  C   UNL     1       8.975  30.378  59.062  1.00  0.00     0.282 C 
BRANCH   4   5
HETATM    5  C   UNL     1       8.227  31.417  59.908  1.00  0.00     0.246 C 
HETATM    6  N   UNL     1       7.900  30.951  61.169  1.00  0.00    -0.325 N 
HETATM    7  H   UNL     1       8.097  29.963  61.343  1.00  0.00     0.169 HD
HETATM    8  O   UNL     1       7.987  32.535  59.459  1.00  0.00    -0.271 OA
BRANCH   6   9
HETATM    9  C   UNL     1       7.282  31.654  62.220  1.00  0.00     0.034 A 
HETATM   10  C   UNL     1       5.905  31.767  62.385  1.00  0.00     0.032 A 
HETATM   11  C   UNL     1       5.371  32.510  63.452  1.00  0.00     0.031 A 
HETATM   12  C   UNL     1       6.187  33.150  64.398  1.00  0.00     0.029 A 
HETATM   13  C   UNL     1       7.572  33.030  64.204  1.00  0.00     0.031 A 
HETATM   14  C   UNL     1       8.113  32.295  63.139  1.00  0.00     0.032 A 
BRANCH  12  15
HETATM   15  N   UNL     1       5.681  33.920  65.457  1.00  0.00    -0.390 N 
HETATM   16  C   UNL     1       4.950  35.128  65.060  1.00  0.00     0.149 C 
HETATM   17  C   UNL     1       6.509  34.084  66.651  1.00  0.00     0.149 C 
ENDBRANCH  12  15
ENDBRANCH   6   9
ENDBRANCH   4   5
ENDBRANCH   3   4
ENDBRANCH   1   3
BRANCH   1  18
HETATM   18  C   UNL     1       7.305  27.678  57.366  1.00  0.00     0.066 A 
HETATM   19  C   UNL     1       5.971  28.122  57.311  1.00  0.00     0.051 A 
HETATM   20  C   UNL     1       5.003  27.264  56.765  1.00  0.00     0.030 A 
HETATM   21  C   UNL     1       5.333  25.968  56.357  1.00  0.00     0.002 A 
HETATM   22  C   UNL     1       6.644  25.517  56.468  1.00  0.00     0.001 A 
HETATM   23  C   UNL     1       7.631  26.372  56.954  1.00  0.00     0.020 A 
BRANCH  19  24
HETATM   24  N   UNL     1       5.485  29.365  57.773  1.00  0.00    -0.320 N 
HETATM   25  C   UNL     1       5.397  30.544  57.050  1.00  0.00     0.279 C 
HETATM   26  O   UNL     1       5.752  30.675  55.882  1.00  0.00    -0.265 OA
HETATM   27  H   UNL     1       5.395  29.492  58.777  1.00  0.00     0.169 HD
BRANCH  25  28
HETATM   28  C   UNL     1       4.925  31.659  57.849  1.00  0.00     0.142 A 
HETATM   29  O   UNL     1       5.392  32.924  57.586  1.00  0.00    -0.317 OA
HETATM   30  C   UNL     1       4.781  33.765  58.460  1.00  0.00     0.143 A 
HETATM   31  C   UNL     1       3.921  33.072  59.277  1.00  0.00     0.027 A 
HETATM   32  C   UNL     1       4.012  31.715  58.886  1.00  0.00     0.045 A 
ENDBRANCH  25  28
ENDBRANCH  19  24
ENDBRANCH   1  18
TORSDOF 8
ENDMDL
MODEL 4
REMARK VINA RESULT:      -8.7      1.567      2.135
REMARK  8 active torsions:
REMARK  status: ('A' for Active; 'I' for Inactive)
REMARK    1  A    between atoms: N_2  and  C_3 
REMARK    2  A    between atoms: C_6  and  N_7 
REMARK       I    between atoms: N_7  and  C_8 
REMARK    3  A    between atoms: C_8  and  C_9 
REMARK    4  A    between atoms: C_9  and  O_10 
REMARK    5  A    between atoms: O_10  and  C_11 
REMARK    6  A    between atoms: C_11  and  C_12 
REMARK    7  A    between atoms: C_13  and  N_14 
REMARK       I    between atoms: N_14  and  C_15 
REMARK    8  A    between atoms: C_15  and  C_16 
ROOT
HETATM    1  C   UNL     1       7.853  27.318  57.209  1.00  0.00     0.296 C 
HETATM    2  O   UNL     1       8.499  26.365  57.619  1.00  0.00    -0.259 OA
ENDROOT
BRANCH   1   3
HETATM    3  O   UNL     1       7.775  28.540  57.788  1.00  0.00    -0.308 OA
BRANCH   3   4
HETATM    4  C   UNL     1       9.013  29.241  57.883  1.00  0.00     0.282 C 
BRANCH   4   5
HETATM    5  C   UNL     1       8.976  30.475  58.792  1.00  0.00     0.246 C 
HETATM    6  N   UNL     1       8.067  30.356  59.828  1.00  0.00    -0.325 N 
HETATM    7  H   UNL     1       7.470  29.526  59.801  1.00  0.00     0.169 HD
HETATM    8  O   UNL     1       9.716  31.434  58.579  1.00  0.00    -0.271 OA
BRANCH   6   9
HETATM    9  C   UNL     1       7.825  31.259  60.879  1.00  0.00     0.034 A 
HETATM   10  C   UNL     1       8.548  31.293  62.067  1.00  0.00     0.032 A 
HETATM   11  C   UNL     1       8.223  32.214  63.077  1.00  0.00     0.031 A 
HETATM   12  C   UNL     1       7.180  33.141  62.933  1.00  0.00     0.029 A 
HETATM   13  C   UNL     1       6.458  33.080  61.731  1.00  0.00     0.031 A 
HETATM   14  C   UNL     1       6.772  32.161  60.720  1.00  0.00     0.032 A 
BRANCH  12  15
HETATM   15  N   UNL     1       6.817  34.054  63.936  1.00  0.00    -0.390 N 
HETATM   16  C   UNL     1       6.993  33.577  65.311  1.00  0.00     0.149 C 
HETATM   17  C   UNL     1       5.617  34.867  63.731  1.00  0.00     0.149 C 
ENDBRANCH  12  15
ENDBRANCH   6   9
ENDBRANCH   4   5
ENDBRANCH   3   4
ENDBRANCH   1   3
BRANCH   1  18
HETATM   18  C   UNL     1       6.982  27.280  56.017  1.00  0.00     0.066 A 
HETATM   19  C   UNL     1       6.467  26.079  55.496  1.00  0.00     0.051 A 
HETATM   20  C   UNL     1       5.433  26.150  54.549  1.00  0.00     0.030 A 
HETATM   21  C   UNL     1       4.975  27.380  54.070  1.00  0.00     0.002 A 
HETATM   22  C   UNL     1       5.529  28.563  54.547  1.00  0.00     0.001 A 
HETATM   23  C   UNL     1       6.517  28.516  55.529  1.00  0.00     0.020 A 
BRANCH  19  24
HETATM   24  N   UNL     1       6.901  24.774  55.821  1.00  0.00    -0.320 N 
HETATM   25  C   UNL     1       7.768  23.980  55.088  1.00  0.00     0.279 C 
HETATM   26  O   UNL     1       8.280  24.304  54.021  1.00  0.00    -0.265 OA
HETATM   27  H   UNL     1       6.377  24.266  56.528  1.00  0.00     0.169 HD
BRANCH  25  28
HETATM   28  C   UNL     1       7.943  22.659  55.665  1.00  0.00     0.142 A 
HETATM   29  O   UNL     1       8.307  22.542  56.984  1.00  0.00    -0.317 OA
HETATM   30  C   UNL     1       8.382  21.214  57.261  1.00  0.00     0.143 A 
HETATM   31  C   UNL     1       8.065  20.470  56.149  1.00  0.00     0.027 A 
HETATM   32  C   UNL     1       7.783  21.399  55.120  1.00  0.00     0.045 A 
ENDBRANCH  25  28
ENDBRANCH  19  24
ENDBRANCH   1  18
TORSDOF 8
ENDMDL
MODEL 5
REMARK VINA RESULT:      -8.6      2.397      8.127
REMARK  8 active torsions:
REMARK  status: ('A' for Active; 'I' for Inactive)
REMARK    1  A    between atoms: N_2  and  C_3 
REMARK    2  A    between atoms: C_6  and  N_7 
REMARK       I    between atoms: N_7  and  C_8 
REMARK    3  A    between atoms: C_8  and  C_9 
REMARK    4  A    between atoms: C_9  and  O_10 
REMARK    5  A    between atoms: O_10  and  C_11 
REMARK    6  A    between atoms: C_11  and  C_12 
REMARK    7  A    between atoms: C_13  and  N_14 
REMARK       I    between atoms: N_14  and  C_15 
REMARK    8  A    between atoms: C_15  and  C_16 
ROOT
HETATM    1  C   UNL     1       5.387  32.937  60.306  1.00  0.00     0.296 C 
HETATM    2  O   UNL     1       4.926  34.012  59.952  1.00  0.00    -0.259 OA
ENDROOT
BRANCH   1   3
HETATM    3  O   UNL     1       5.201  31.745  59.690  1.00  0.00    -0.308 OA
BRANCH   3   4
HETATM    4  C   UNL     1       3.907  31.558  59.121  1.00  0.00     0.282 C 
BRANCH   4   5
HETATM    5  C   UNL     1       3.893  30.713  57.840  1.00  0.00     0.246 C 
HETATM    6  N   UNL     1       5.001  29.894  57.722  1.00  0.00    -0.325 N 
HETATM    7  H   UNL     1       5.727  30.025  58.430  1.00  0.00     0.169 HD
HETATM    8  O   UNL     1       2.956  30.790  57.049  1.00  0.00    -0.271 OA
BRANCH   6   9
HETATM    9  C   UNL     1       5.276  28.945  56.720  1.00  0.00     0.034 A 
HETATM   10  C   UNL     1       5.681  29.263  55.428  1.00  0.00     0.032 A 
HETATM   11  C   UNL     1       5.911  28.251  54.481  1.00  0.00     0.031 A 
HETATM   12  C   UNL     1       5.763  26.891  54.791  1.00  0.00     0.029 A 
HETATM   13  C   UNL     1       5.343  26.596  56.098  1.00  0.00     0.031 A 
HETATM   14  C   UNL     1       5.107  27.600  57.049  1.00  0.00     0.032 A 
BRANCH  12  15
HETATM   15  N   UNL     1       5.960  25.861  53.858  1.00  0.00    -0.390 N 
HETATM   16  C   UNL     1       4.764  25.449  53.117  1.00  0.00     0.149 C 
HETATM   17  C   UNL     1       6.851  24.758  54.221  1.00  0.00     0.149 C 
ENDBRANCH  12  15
ENDBRANCH   6   9
ENDBRANCH   4   5
ENDBRANCH   3   4
ENDBRANCH   1   3
BRANCH   1  18
HETATM   18  C   UNL     1       6.195  32.741  61.527  1.00  0.00     0.066 A 
HETATM   19  C   UNL     1       7.389  31.999  61.532  1.00  0.00     0.051 A 
HETATM   20  C   UNL     1       8.234  32.099  62.649  1.00  0.00     0.030 A 
HETATM   21  C   UNL     1       7.867  32.850  63.768  1.00  0.00     0.002 A 
HETATM   22  C   UNL     1       6.656  33.535  63.780  1.00  0.00     0.001 A 
HETATM   23  C   UNL     1       5.830  33.496  62.659  1.00  0.00     0.020 A 
BRANCH  19  24
HETATM   24  N   UNL     1       7.836  31.130  60.511  1.00  0.00    -0.320 N 
HETATM   25  C   UNL     1       8.695  31.443  59.470  1.00  0.00     0.279 C 
HETATM   26  O   UNL     1       9.187  32.551  59.278  1.00  0.00    -0.265 OA
HETATM   27  H   UNL     1       7.327  30.261  60.377  1.00  0.00     0.169 HD
BRANCH  25  28
HETATM   28  C   UNL     1       8.888  30.338  58.549  1.00  0.00     0.142 A 
HETATM   29  O   UNL     1       8.083  29.228  58.649  1.00  0.00    -0.317 OA
HETATM   30  C   UNL     1       8.465  28.369  57.669  1.00  0.00     0.143 A 
HETATM   31  C   UNL     1       9.494  28.904  56.931  1.00  0.00     0.027 A 
HETATM   32  C   UNL     1       9.769  30.171  57.497  1.00  0.00     0.045 A 
ENDBRANCH  25  28
ENDBRANCH  19  24
ENDBRANCH   1  18
TORSDOF 8
ENDMDL
MODEL 6
REMARK VINA RESULT:      -8.5      5.092     10.932
REMARK  8 active torsions:
REMARK  status: ('A' for Active; 'I' for Inactive)
REMARK    1  A    between atoms: N_2  and  C_3 
REMARK    2  A    between atoms: C_6  and  N_7 
REMARK       I    between atoms: N_7  and  C_8 
REMARK    3  A    between atoms: C_8  and  C_9 
REMARK    4  A    between atoms: C_9  and  O_10 
REMARK    5  A    between atoms: O_10  and  C_11 
REMARK    6  A    between atoms: C_11  and  C_12 
REMARK    7  A    between atoms: C_13  and  N_14 
REMARK       I    between atoms: N_14  and  C_15 
REMARK    8  A    between atoms: C_15  and  C_16 
ROOT
HETATM    1  C   UNL     1       6.121  24.505  53.440  1.00  0.00     0.296 C 
HETATM    2  O   UNL     1       5.160  24.836  54.119  1.00  0.00    -0.259 OA
ENDROOT
BRANCH   1   3
HETATM    3  O   UNL     1       6.248  24.665  52.101  1.00  0.00    -0.308 OA
BRANCH   3   4
HETATM    4  C   UNL     1       6.545  25.995  51.681  1.00  0.00     0.282 C 
BRANCH   4   5
HETATM    5  C   UNL     1       5.347  26.762  51.108  1.00  0.00     0.246 C 
HETATM    6  N   UNL     1       5.231  26.635  49.736  1.00  0.00    -0.325 N 
HETATM    7  H   UNL     1       5.998  26.147  49.269  1.00  0.00     0.169 HD
HETATM    8  O   UNL     1       4.595  27.393  51.848  1.00  0.00    -0.271 OA
BRANCH   6   9
HETATM    9  C   UNL     1       4.219  27.143  48.899  1.00  0.00     0.034 A 
HETATM   10  C   UNL     1       4.068  28.487  48.578  1.00  0.00     0.032 A 
HETATM   11  C   UNL     1       3.012  28.911  47.753  1.00  0.00     0.031 A 
HETATM   12  C   UNL     1       2.083  28.012  47.208  1.00  0.00     0.029 A 
HETATM   13  C   UNL     1       2.251  26.662  47.556  1.00  0.00     0.031 A 
HETATM   14  C   UNL     1       3.299  26.231  48.382  1.00  0.00     0.032 A 
BRANCH  12  15
HETATM   15  N   UNL     1       1.004  28.411  46.404  1.00  0.00    -0.390 N 
HETATM   16  C   UNL     1       0.481  29.753  46.679  1.00  0.00     0.149 C 
HETATM   17  C   UNL     1      -0.023  27.420  46.081  1.00  0.00     0.149 C 
ENDBRANCH  12  15
ENDBRANCH   6   9
ENDBRANCH   4   5
ENDBRANCH   3   4
ENDBRANCH   1   3
BRANCH   1  18
HETATM   18  C   UNL     1       7.309  23.804  53.970  1.00  0.00     0.066 A 
HETATM   19  C   UNL     1       7.970  24.218  55.140  1.00  0.00     0.051 A 
HETATM   20  C   UNL     1       8.901  23.345  55.726  1.00  0.00     0.030 A 
HETATM   21  C   UNL     1       9.229  22.128  55.123  1.00  0.00     0.002 A 
HETATM   22  C   UNL     1       8.613  21.751  53.934  1.00  0.00     0.001 A 
HETATM   23  C   UNL     1       7.645  22.577  53.366  1.00  0.00     0.020 A 
BRANCH  19  24
HETATM   24  N   UNL     1       7.805  25.456  55.799  1.00  0.00    -0.320 N 
HETATM   25  C   UNL     1       6.926  25.736  56.834  1.00  0.00     0.279 C 
HETATM   26  O   UNL     1       6.140  24.929  57.321  1.00  0.00    -0.265 OA
HETATM   27  H   UNL     1       8.188  26.283  55.351  1.00  0.00     0.169 HD
BRANCH  25  28
HETATM   28  C   UNL     1       6.953  27.131  57.231  1.00  0.00     0.142 A 
HETATM   29  O   UNL     1       8.073  27.637  57.845  1.00  0.00    -0.317 OA
HETATM   30  C   UNL     1       7.835  28.952  58.090  1.00  0.00     0.143 A 
HETATM   31  C   UNL     1       6.588  29.309  57.638  1.00  0.00     0.027 A 
HETATM   32  C   UNL     1       6.017  28.138  57.086  1.00  0.00     0.045 A 
ENDBRANCH  25  28
ENDBRANCH  19  24
ENDBRANCH   1  18
TORSDOF 8
ENDMDL
MODEL 7
REMARK VINA RESULT:      -8.4      4.442      7.816
REMARK  8 active torsions:
REMARK  status: ('A' for Active; 'I' for Inactive)
REMARK    1  A    between atoms: N_2  and  C_3 
REMARK    2  A    between atoms: C_6  and  N_7 
REMARK       I    between atoms: N_7  and  C_8 
REMARK    3  A    between atoms: C_8  and  C_9 
REMARK    4  A    between atoms: C_9  and  O_10 
REMARK    5  A    between atoms: O_10  and  C_11 
REMARK    6  A    between atoms: C_11  and  C_12 
REMARK    7  A    between atoms: C_13  and  N_14 
REMARK       I    between atoms: N_14  and  C_15 
REMARK    8  A    between atoms: C_15  and  C_16 
ROOT
HETATM    1  C   UNL     1       7.183  24.107  52.845  1.00  0.00     0.296 C 
HETATM    2  O   UNL     1       7.896  24.645  52.011  1.00  0.00    -0.259 OA
ENDROOT
BRANCH   1   3
HETATM    3  O   UNL     1       5.891  24.415  53.111  1.00  0.00    -0.308 OA
BRANCH   3   4
HETATM    4  C   UNL     1       5.176  25.000  52.024  1.00  0.00     0.282 C 
BRANCH   4   5
HETATM    5  C   UNL     1       5.010  26.522  52.119  1.00  0.00     0.246 C 
HETATM    6  N   UNL     1       4.264  26.915  53.216  1.00  0.00    -0.325 N 
HETATM    7  H   UNL     1       3.836  26.160  53.756  1.00  0.00     0.169 HD
HETATM    8  O   UNL     1       5.525  27.262  51.285  1.00  0.00    -0.271 OA
BRANCH   6   9
HETATM    9  C   UNL     1       3.977  28.224  53.646  1.00  0.00     0.034 A 
HETATM   10  C   UNL     1       3.493  29.233  52.820  1.00  0.00     0.032 A 
HETATM   11  C   UNL     1       3.256  30.521  53.328  1.00  0.00     0.031 A 
HETATM   12  C   UNL     1       3.476  30.845  54.675  1.00  0.00     0.029 A 
HETATM   13  C   UNL     1       3.975  29.813  55.486  1.00  0.00     0.031 A 
HETATM   14  C   UNL     1       4.219  28.525  54.986  1.00  0.00     0.032 A 
BRANCH  12  15
HETATM   15  N   UNL     1       3.274  32.130  55.203  1.00  0.00    -0.390 N 
HETATM   16  C   UNL     1       2.191  32.898  54.581  1.00  0.00     0.149 C 
HETATM   17  C   UNL     1       4.449  32.926  55.558  1.00  0.00     0.149 C 
ENDBRANCH  12  15
ENDBRANCH   6   9
ENDBRANCH   4   5
ENDBRANCH   3   4
ENDBRANCH   1   3
BRANCH   1  18
HETATM   18  C   UNL     1       7.638  23.045  53.765  1.00  0.00     0.066 A 
HETATM   19  C   UNL     1       7.821  23.265  55.142  1.00  0.00     0.051 A 
HETATM   20  C   UNL     1       7.975  22.151  55.983  1.00  0.00     0.030 A 
HETATM   21  C   UNL     1       8.028  20.855  55.463  1.00  0.00     0.002 A 
HETATM   22  C   UNL     1       7.904  20.649  54.093  1.00  0.00     0.001 A 
HETATM   23  C   UNL     1       7.693  21.736  53.247  1.00  0.00     0.020 A 
BRANCH  19  24
HETATM   24  N   UNL     1       7.882  24.521  55.785  1.00  0.00    -0.320 N 
HETATM   25  C   UNL     1       6.832  25.203  56.380  1.00  0.00     0.279 C 
HETATM   26  O   UNL     1       5.672  24.805  56.416  1.00  0.00    -0.265 OA
HETATM   27  H   UNL     1       8.702  25.096  55.618  1.00  0.00     0.169 HD
BRANCH  25  28
HETATM   28  C   UNL     1       7.222  26.507  56.882  1.00  0.00     0.142 A 
HETATM   29  O   UNL     1       6.254  27.384  57.307  1.00  0.00    -0.317 OA
HETATM   30  C   UNL     1       6.890  28.505  57.735  1.00  0.00     0.143 A 
HETATM   31  C   UNL     1       8.252  28.368  57.604  1.00  0.00     0.027 A 
HETATM   32  C   UNL     1       8.467  27.083  57.053  1.00  0.00     0.045 A 
ENDBRANCH  25  28
ENDBRANCH  19  24
ENDBRANCH   1  18
TORSDOF 8
ENDMDL
MODEL 8
REMARK VINA RESULT:      -8.3      2.069      3.530
REMARK  8 active torsions:
REMARK  status: ('A' for Active; 'I' for Inactive)
REMARK    1  A    between atoms: N_2  and  C_3 
REMARK    2  A    between atoms: C_6  and  N_7 
REMARK       I    between atoms: N_7  and  C_8 
REMARK    3  A    between atoms: C_8  and  C_9 
REMARK    4  A    between atoms: C_9  and  O_10 
REMARK    5  A    between atoms: O_10  and  C_11 
REMARK    6  A    between atoms: C_11  and  C_12 
REMARK    7  A    between atoms: C_13  and  N_14 
REMARK       I    between atoms: N_14  and  C_15 
REMARK    8  A    between atoms: C_15  and  C_16 
ROOT
HETATM    1  C   UNL     1       7.376  26.874  54.987  1.00  0.00     0.296 C 
HETATM    2  O   UNL     1       7.836  26.148  55.857  1.00  0.00    -0.259 OA
ENDROOT
BRANCH   1   3
HETATM    3  O   UNL     1       7.380  28.228  54.991  1.00  0.00    -0.308 OA
BRANCH   3   4
HETATM    4  C   UNL     1       8.227  28.824  55.970  1.00  0.00     0.282 C 
BRANCH   4   5
HETATM    5  C   UNL     1       7.503  29.280  57.243  1.00  0.00     0.246 C 
HETATM    6  N   UNL     1       8.200  30.248  57.944  1.00  0.00    -0.325 N 
HETATM    7  H   UNL     1       9.137  30.460  57.594  1.00  0.00     0.169 HD
HETATM    8  O   UNL     1       6.410  28.806  57.547  1.00  0.00    -0.271 OA
BRANCH   6   9
HETATM    9  C   UNL     1       7.801  30.935  59.106  1.00  0.00     0.034 A 
HETATM   10  C   UNL     1       6.726  31.814  59.167  1.00  0.00     0.032 A 
HETATM   11  C   UNL     1       6.412  32.477  60.366  1.00  0.00     0.031 A 
HETATM   12  C   UNL     1       7.145  32.276  61.545  1.00  0.00     0.029 A 
HETATM   13  C   UNL     1       8.232  31.392  61.454  1.00  0.00     0.031 A 
HETATM   14  C   UNL     1       8.556  30.730  60.261  1.00  0.00     0.032 A 
BRANCH  12  15
HETATM   15  N   UNL     1       6.871  32.945  62.748  1.00  0.00    -0.390 N 
HETATM   16  C   UNL     1       6.276  34.277  62.602  1.00  0.00     0.149 C 
HETATM   17  C   UNL     1       7.840  32.836  63.838  1.00  0.00     0.149 C 
ENDBRANCH  12  15
ENDBRANCH   6   9
ENDBRANCH   4   5
ENDBRANCH   3   4
ENDBRANCH   1   3
BRANCH   1  18
HETATM   18  C   UNL     1       6.671  26.384  53.785  1.00  0.00     0.066 A 
HETATM   19  C   UNL     1       6.316  25.034  53.615  1.00  0.00     0.051 A 
HETATM   20  C   UNL     1       5.409  24.704  52.594  1.00  0.00     0.030 A 
HETATM   21  C   UNL     1       4.930  25.676  51.712  1.00  0.00     0.002 A 
HETATM   22  C   UNL     1       5.331  27.001  51.851  1.00  0.00     0.001 A 
HETATM   23  C   UNL     1       6.185  27.358  52.892  1.00  0.00     0.020 A 
BRANCH  19  24
HETATM   24  N   UNL     1       6.797  23.942  54.372  1.00  0.00    -0.320 N 
HETATM   25  C   UNL     1       7.767  23.029  53.990  1.00  0.00     0.279 C 
HETATM   26  O   UNL     1       8.345  23.036  52.908  1.00  0.00    -0.265 OA
HETATM   27  H   UNL     1       6.247  23.646  55.173  1.00  0.00     0.169 HD
BRANCH  25  28
HETATM   28  C   UNL     1       7.970  21.982  54.974  1.00  0.00     0.142 A 
HETATM   29  O   UNL     1       8.218  22.323  56.282  1.00  0.00    -0.317 OA
HETATM   30  C   UNL     1       8.351  21.165  56.978  1.00  0.00     0.143 A 
HETATM   31  C   UNL     1       8.185  20.081  56.150  1.00  0.00     0.027 A 
HETATM   32  C   UNL     1       7.941  20.605  54.858  1.00  0.00     0.045 A 
ENDBRANCH  25  28
ENDBRANCH  19  24
ENDBRANCH   1  18
TORSDOF 8
ENDMDL
MODEL 9
REMARK VINA RESULT:      -8.3      3.125      9.822
REMARK  8 active torsions:
REMARK  status: ('A' for Active; 'I' for Inactive)
REMARK    1  A    between atoms: N_2  and  C_3 
REMARK    2  A    between atoms: C_6  and  N_7 
REMARK       I    between atoms: N_7  and  C_8 
REMARK    3  A    between atoms: C_8  and  C_9 
REMARK    4  A    between atoms: C_9  and  O_10 
REMARK    5  A    between atoms: O_10  and  C_11 
REMARK    6  A    between atoms: C_11  and  C_12 
REMARK    7  A    between atoms: C_13  and  N_14 
REMARK       I    between atoms: N_14  and  C_15 
REMARK    8  A    between atoms: C_15  and  C_16 
ROOT
HETATM    1  C   UNL     1       5.631  32.497  59.847  1.00  0.00     0.296 C 
HETATM    2  O   UNL     1       4.585  32.621  60.468  1.00  0.00    -0.259 OA
ENDROOT
BRANCH   1   3
HETATM    3  O   UNL     1       5.775  32.566  58.501  1.00  0.00    -0.308 OA
BRANCH   3   4
HETATM    4  C   UNL     1       4.810  31.829  57.755  1.00  0.00     0.282 C 
BRANCH   4   5
HETATM    5  C   UNL     1       5.387  30.652  56.959  1.00  0.00     0.246 C 
HETATM    6  N   UNL     1       5.705  29.567  57.756  1.00  0.00    -0.325 N 
HETATM    7  H   UNL     1       5.619  29.715  58.764  1.00  0.00     0.169 HD
HETATM    8  O   UNL     1       5.514  30.721  55.739  1.00  0.00    -0.271 OA
BRANCH   6   9
HETATM    9  C   UNL     1       6.185  28.305  57.354  1.00  0.00     0.034 A 
HETATM   10  C   UNL     1       5.391  27.303  56.806  1.00  0.00     0.032 A 
HETATM   11  C   UNL     1       5.949  26.062  56.454  1.00  0.00     0.031 A 
HETATM   12  C   UNL     1       7.313  25.782  56.621  1.00  0.00     0.029 A 
HETATM   13  C   UNL     1       8.091  26.806  57.187  1.00  0.00     0.031 A 
HETATM   14  C   UNL     1       7.542  28.046  57.545  1.00  0.00     0.032 A 
BRANCH  12  15
HETATM   15  N   UNL     1       7.891  24.543  56.304  1.00  0.00    -0.390 N 
HETATM   16  C   UNL     1       7.074  23.671  55.453  1.00  0.00     0.149 C 
HETATM   17  C   UNL     1       8.635  23.838  57.348  1.00  0.00     0.149 C 
ENDBRANCH  12  15
ENDBRANCH   6   9
ENDBRANCH   4   5
ENDBRANCH   3   4
ENDBRANCH   1   3
BRANCH   1  18
HETATM   18  C   UNL     1       6.934  32.186  60.469  1.00  0.00     0.066 A 
HETATM   19  C   UNL     1       7.195  32.419  61.831  1.00  0.00     0.051 A 
HETATM   20  C   UNL     1       8.341  31.840  62.400  1.00  0.00     0.030 A 
HETATM   21  C   UNL     1       9.249  31.118  61.621  1.00  0.00     0.002 A 
HETATM   22  C   UNL     1       9.013  30.941  60.261  1.00  0.00     0.001 A 
HETATM   23  C   UNL     1       7.853  31.458  59.689  1.00  0.00     0.020 A 
BRANCH  19  24
HETATM   24  N   UNL     1       6.415  33.204  62.708  1.00  0.00    -0.320 N 
HETATM   25  C   UNL     1       5.395  32.762  63.535  1.00  0.00     0.279 C 
HETATM   26  O   UNL     1       5.009  31.599  63.609  1.00  0.00    -0.265 OA
HETATM   27  H   UNL     1       6.431  34.212  62.579  1.00  0.00     0.169 HD
BRANCH  25  28
HETATM   28  C   UNL     1       4.744  33.843  64.251  1.00  0.00     0.142 A 
HETATM   29  O   UNL     1       4.195  33.601  65.487  1.00  0.00    -0.317 OA
HETATM   30  C   UNL     1       3.674  34.774  65.930  1.00  0.00     0.143 A 
HETATM   31  C   UNL     1       3.883  35.774  65.010  1.00  0.00     0.027 A 
HETATM   32  C   UNL     1       4.571  35.176  63.927  1.00  0.00     0.045 A 
ENDBRANCH  25  28
ENDBRANCH  19  24
ENDBRANCH   1  18
TORSDOF 8
ENDMDL
MODEL 10
REMARK VINA RESULT:      -8.1      2.159      3.543
REMARK  8 active torsions:
REMARK  status: ('A' for Active; 'I' for Inactive)
REMARK    1  A    between atoms: N_2  and  C_3 
REMARK    2  A    between atoms: C_6  and  N_7 
REMARK       I    between atoms: N_7  and  C_8 
REMARK    3  A    between atoms: C_8  and  C_9 
REMARK    4  A    between atoms: C_9  and  O_10 
REMARK    5  A    between atoms: O_10  and  C_11 
REMARK    6  A    between atoms: C_11  and  C_12 
REMARK    7  A    between atoms: C_13  and  N_14 
REMARK       I    between atoms: N_14  and  C_15 
REMARK    8  A    between atoms: C_15  and  C_16 
ROOT
HETATM    1  C   UNL     1       7.473  27.419  56.699  1.00  0.00     0.296 C 
HETATM    2  O   UNL     1       6.888  28.145  55.908  1.00  0.00    -0.259 OA
ENDROOT
BRANCH   1   3
HETATM    3  O   UNL     1       8.022  27.799  57.878  1.00  0.00    -0.308 OA
BRANCH   3   4
HETATM    4  C   UNL     1       8.588  29.107  57.883  1.00  0.00     0.282 C 
BRANCH   4   5
HETATM    5  C   UNL     1       7.766  30.152  58.648  1.00  0.00     0.246 C 
HETATM    6  N   UNL     1       8.213  30.347  59.943  1.00  0.00    -0.325 N 
HETATM    7  H   UNL     1       8.951  29.712  60.258  1.00  0.00     0.169 HD
HETATM    8  O   UNL     1       6.828  30.732  58.106  1.00  0.00    -0.271 OA
BRANCH   6   9
HETATM    9  C   UNL     1       7.742  31.272  60.894  1.00  0.00     0.034 A 
HETATM   10  C   UNL     1       6.954  32.377  60.590  1.00  0.00     0.032 A 
HETATM   11  C   UNL     1       6.547  33.264  61.601  1.00  0.00     0.031 A 
HETATM   12  C   UNL     1       6.896  33.074  62.946  1.00  0.00     0.029 A 
HETATM   13  C   UNL     1       7.701  31.958  63.226  1.00  0.00     0.031 A 
HETATM   14  C   UNL     1       8.116  31.070  62.223  1.00  0.00     0.032 A 
BRANCH  12  15
HETATM   15  N   UNL     1       6.526  33.959  63.971  1.00  0.00    -0.390 N 
HETATM   16  C   UNL     1       7.351  33.895  65.182  1.00  0.00     0.149 C 
HETATM   17  C   UNL     1       5.101  34.167  64.226  1.00  0.00     0.149 C 
ENDBRANCH  12  15
ENDBRANCH   6   9
ENDBRANCH   4   5
ENDBRANCH   3   4
ENDBRANCH   1   3
BRANCH   1  18
HETATM   18  C   UNL     1       7.736  25.983  56.471  1.00  0.00     0.066 A 
HETATM   19  C   UNL     1       7.636  25.390  55.200  1.00  0.00     0.051 A 
HETATM   20  C   UNL     1       8.171  24.105  55.018  1.00  0.00     0.030 A 
HETATM   21  C   UNL     1       8.720  23.392  56.087  1.00  0.00     0.002 A 
HETATM   22  C   UNL     1       8.763  23.964  57.355  1.00  0.00     0.001 A 
HETATM   23  C   UNL     1       8.289  25.260  57.545  1.00  0.00     0.020 A 
BRANCH  19  24
HETATM   24  N   UNL     1       7.024  25.957  54.059  1.00  0.00    -0.320 N 
HETATM   25  C   UNL     1       5.744  25.706  53.591  1.00  0.00     0.279 C 
HETATM   26  O   UNL     1       4.951  24.925  54.108  1.00  0.00    -0.265 OA
HETATM   27  H   UNL     1       7.626  26.419  53.383  1.00  0.00     0.169 HD
BRANCH  25  28
HETATM   28  C   UNL     1       5.457  26.396  52.347  1.00  0.00     0.142 A 
HETATM   29  O   UNL     1       5.174  27.740  52.370  1.00  0.00    -0.317 OA
HETATM   30  C   UNL     1       4.963  28.126  51.085  1.00  0.00     0.143 A 
HETATM   31  C   UNL     1       5.113  27.061  50.230  1.00  0.00     0.027 A 
HETATM   32  C   UNL     1       5.430  25.945  51.040  1.00  0.00     0.045 A 
ENDBRANCH  25  28
ENDBRANCH  19  24
ENDBRANCH   1  18
TORSDOF 8
ENDMDL
