MODEL 1
REMARK VINA RESULT:     -10.0      0.000      0.000
REMARK  4 active torsions:
REMARK  status: ('A' for Active; 'I' for Inactive)
REMARK       I    between atoms: C_2  and  N_3 
REMARK    1  A    between atoms: N_7  and  N_8 
REMARK       I    between atoms: N_8  and  C_9 
REMARK    2  A    between atoms: C_9  and  C_10 
REMARK    3  A    between atoms: C_18  and  C_19 
REMARK    4  A    between atoms: C_20  and  O_21 
ROOT
HETATM    1  C   UNL     1       7.311  25.139  54.036  1.00  0.00     0.048 A 
HETATM    2  C   UNL     1       7.612  23.962  54.759  1.00  0.00     0.009 A 
HETATM    3  C   UNL     1       8.008  24.149  56.098  1.00  0.00     0.068 A 
HETATM    4  C   UNL     1       8.360  23.041  56.856  1.00  0.00     0.032 A 
HETATM    5  C   UNL     1       8.306  21.743  56.343  1.00  0.00     0.002 A 
HETATM    6  C   UNL     1       7.869  21.538  55.043  1.00  0.00     0.001 A 
HETATM    7  C   UNL     1       7.515  22.634  54.260  1.00  0.00     0.015 A 
HETATM    8  N   UNL     1       8.048  25.352  56.691  1.00  0.00    -0.247 NA
HETATM    9  C   UNL     1       7.708  26.462  55.994  1.00  0.00     0.071 A 
HETATM   10  C   UNL     1       7.347  26.389  54.659  1.00  0.00     0.050 A 
ENDROOT
BRANCH   1  11
HETATM   11  C   UNL     1       6.909  25.151  52.608  1.00  0.00     0.272 C 
HETATM   12  N   UNL     1       5.588  25.499  52.361  1.00  0.00    -0.243 N 
HETATM   13  H   UNL     1       4.948  25.640  53.132  1.00  0.00     0.192 HD
HETATM   14  O   UNL     1       7.738  24.826  51.764  1.00  0.00    -0.266 OA
BRANCH  12  15
HETATM   15  N   UNL     1       5.125  25.468  51.086  1.00  0.00    -0.181 NA
HETATM   16  C   UNL     1       4.948  26.569  50.422  1.00  0.00     0.035 C 
HETATM   17  C   UNL     1       4.427  26.448  49.006  1.00  0.00     0.076 C 
HETATM   18  C   UNL     1       5.320  27.965  50.867  1.00  0.00     0.076 C 
HETATM   19  C   UNL     1       3.289  27.433  48.804  1.00  0.00     0.131 C 
HETATM   20  N   UNL     1       3.675  28.788  49.207  1.00  0.00    -0.352 N 
HETATM   21  C   UNL     1       3.231  29.853  48.430  1.00  0.00     0.215 C 
HETATM   22  C   UNL     1       4.168  28.919  50.579  1.00  0.00     0.131 C 
HETATM   23  C   UNL     1       3.561  31.244  48.909  1.00  0.00     0.117 C 
HETATM   24  O   UNL     1       2.612  29.698  47.377  1.00  0.00    -0.274 OA
ENDBRANCH  12  15
ENDBRANCH   1  11
BRANCH   9  25
HETATM   25  C   UNL     1       7.679  27.734  56.743  1.00  0.00     0.026 A 
HETATM   26  C   UNL     1       6.485  28.367  57.138  1.00  0.00     0.080 A 
HETATM   27  C   UNL     1       6.501  29.563  57.867  1.00  0.00     0.037 A 
HETATM   28  C   UNL     1       7.711  30.174  58.187  1.00  0.00     0.003 A 
HETATM   29  C   UNL     1       8.906  29.583  57.790  1.00  0.00     0.001 A 
HETATM   30  C   UNL     1       8.889  28.379  57.079  1.00  0.00     0.016 A 
BRANCH  26  31
HETATM   31  O   UNL     1       5.272  27.771  56.892  1.00  0.00    -0.355 OA
HETATM   32  C   UNL     1       4.470  28.603  56.053  1.00  0.00     0.210 C 
ENDBRANCH  26  31
ENDBRANCH   9  25
TORSDOF 4
ENDMDL
MODEL 2
REMARK VINA RESULT:      -9.8      1.014      1.702
REMARK  4 active torsions:
REMARK  status: ('A' for Active; 'I' for Inactive)
REMARK       I    between atoms: C_2  and  N_3 
REMARK    1  A    between atoms: N_7  and  N_8 
REMARK       I    between atoms: N_8  and  C_9 
REMARK    2  A    between atoms: C_9  and  C_10 
REMARK    3  A    between atoms: C_18  and  C_19 
REMARK    4  A    between atoms: C_20  and  O_21 
ROOT
HETATM    1  C   UNL     1       7.350  25.519  54.171  1.00  0.00     0.048 A 
HETATM    2  C   UNL     1       7.678  24.378  54.938  1.00  0.00     0.009 A 
HETATM    3  C   UNL     1       7.997  24.619  56.289  1.00  0.00     0.068 A 
HETATM    4  C   UNL     1       8.370  23.552  57.093  1.00  0.00     0.032 A 
HETATM    5  C   UNL     1       8.413  22.240  56.613  1.00  0.00     0.002 A 
HETATM    6  C   UNL     1       8.054  21.980  55.300  1.00  0.00     0.001 A 
HETATM    7  C   UNL     1       7.680  23.035  54.471  1.00  0.00     0.015 A 
HETATM    8  N   UNL     1       7.940  25.836  56.852  1.00  0.00    -0.247 NA
HETATM    9  C   UNL     1       7.575  26.909  56.109  1.00  0.00     0.071 A 
HETATM   10  C   UNL     1       7.285  26.783  54.761  1.00  0.00     0.050 A 
ENDROOT
BRANCH   1  11
HETATM   11  C   UNL     1       7.019  25.474  52.725  1.00  0.00     0.272 C 
HETATM   12  N   UNL     1       5.688  25.708  52.408  1.00  0.00    -0.243 N 
HETATM   13  H   UNL     1       5.001  25.808  53.144  1.00  0.00     0.192 HD
HETATM   14  O   UNL     1       7.912  25.204  51.928  1.00  0.00    -0.266 OA
BRANCH  12  15
HETATM   15  N   UNL     1       5.292  25.617  51.113  1.00  0.00    -0.181 NA
HETATM   16  C   UNL     1       4.997  26.686  50.438  1.00  0.00     0.035 C 
HETATM   17  C   UNL     1       4.563  26.499  48.999  1.00  0.00     0.076 C 
HETATM   18  C   UNL     1       5.155  28.119  50.895  1.00  0.00     0.076 C 
HETATM   19  C   UNL     1       3.312  27.320  48.742  1.00  0.00     0.131 C 
HETATM   20  N   UNL     1       3.490  28.714  49.158  1.00  0.00    -0.352 N 
HETATM   21  C   UNL     1       2.941  29.710  48.358  1.00  0.00     0.215 C 
HETATM   22  C   UNL     1       3.897  28.907  50.551  1.00  0.00     0.131 C 
HETATM   23  C   UNL     1       3.056  31.132  48.847  1.00  0.00     0.117 C 
HETATM   24  O   UNL     1       2.398  29.476  47.278  1.00  0.00    -0.274 OA
ENDBRANCH  12  15
ENDBRANCH   1  11
BRANCH   9  25
HETATM   25  C   UNL     1       7.440  28.194  56.821  1.00  0.00     0.026 A 
HETATM   26  C   UNL     1       8.543  28.946  57.269  1.00  0.00     0.080 A 
HETATM   27  C   UNL     1       8.372  30.173  57.923  1.00  0.00     0.037 A 
HETATM   28  C   UNL     1       7.093  30.661  58.176  1.00  0.00     0.003 A 
HETATM   29  C   UNL     1       5.984  29.929  57.766  1.00  0.00     0.001 A 
HETATM   30  C   UNL     1       6.156  28.714  57.096  1.00  0.00     0.016 A 
BRANCH  26  31
HETATM   31  O   UNL     1       9.823  28.529  56.990  1.00  0.00    -0.355 OA
HETATM   32  C   UNL     1      10.629  29.638  56.590  1.00  0.00     0.210 C 
ENDBRANCH  26  31
ENDBRANCH   9  25
TORSDOF 4
ENDMDL
MODEL 3
REMARK VINA RESULT:      -9.5      3.612      8.280
REMARK  4 active torsions:
REMARK  status: ('A' for Active; 'I' for Inactive)
REMARK       I    between atoms: C_2  and  N_3 
REMARK    1  A    between atoms: N_7  and  N_8 
REMARK       I    between atoms: N_8  and  C_9 
REMARK    2  A    between atoms: C_9  and  C_10 
REMARK    3  A    between atoms: C_18  and  C_19 
REMARK    4  A    between atoms: C_20  and  O_21 
ROOT
HETATM    1  C   UNL     1       7.373  26.058  55.679  1.00  0.00     0.048 A 
HETATM    2  C   UNL     1       6.312  26.525  54.871  1.00  0.00     0.009 A 
HETATM    3  C   UNL     1       5.907  25.663  53.833  1.00  0.00     0.068 A 
HETATM    4  C   UNL     1       4.899  26.074  52.972  1.00  0.00     0.032 A 
HETATM    5  C   UNL     1       4.252  27.303  53.119  1.00  0.00     0.002 A 
HETATM    6  C   UNL     1       4.604  28.141  54.166  1.00  0.00     0.001 A 
HETATM    7  C   UNL     1       5.617  27.754  55.041  1.00  0.00     0.015 A 
HETATM    8  N   UNL     1       6.436  24.446  53.640  1.00  0.00    -0.247 NA
HETATM    9  C   UNL     1       7.419  23.998  54.458  1.00  0.00     0.071 A 
HETATM   10  C   UNL     1       7.918  24.787  55.480  1.00  0.00     0.050 A 
ENDROOT
BRANCH   1  11
HETATM   11  C   UNL     1       7.961  26.835  56.799  1.00  0.00     0.272 C 
HETATM   12  N   UNL     1       8.449  28.091  56.465  1.00  0.00    -0.243 N 
HETATM   13  H   UNL     1       8.468  28.387  55.497  1.00  0.00     0.192 HD
HETATM   14  O   UNL     1       8.009  26.316  57.909  1.00  0.00    -0.266 OA
BRANCH  12  15
HETATM   15  N   UNL     1       9.063  28.836  57.419  1.00  0.00    -0.181 NA
HETATM   16  C   UNL     1       8.365  29.550  58.248  1.00  0.00     0.035 C 
HETATM   17  C   UNL     1       9.126  30.353  59.281  1.00  0.00     0.076 C 
HETATM   18  C   UNL     1       6.858  29.577  58.375  1.00  0.00     0.076 C 
HETATM   19  C   UNL     1       8.582  31.770  59.315  1.00  0.00     0.131 C 
HETATM   20  N   UNL     1       7.125  31.783  59.473  1.00  0.00    -0.352 N 
HETATM   21  C   UNL     1       6.565  32.754  60.295  1.00  0.00     0.215 C 
HETATM   22  C   UNL     1       6.378  31.020  58.471  1.00  0.00     0.131 C 
HETATM   23  C   UNL     1       5.060  32.809  60.374  1.00  0.00     0.117 C 
HETATM   24  O   UNL     1       7.242  33.538  60.960  1.00  0.00    -0.274 OA
ENDBRANCH  12  15
ENDBRANCH   1  11
BRANCH   9  25
HETATM   25  C   UNL     1       7.880  22.612  54.245  1.00  0.00     0.026 A 
HETATM   26  C   UNL     1       8.380  21.800  55.282  1.00  0.00     0.080 A 
HETATM   27  C   UNL     1       8.787  20.481  55.042  1.00  0.00     0.037 A 
HETATM   28  C   UNL     1       8.739  19.955  53.754  1.00  0.00     0.003 A 
HETATM   29  C   UNL     1       8.271  20.741  52.707  1.00  0.00     0.001 A 
HETATM   30  C   UNL     1       7.847  22.051  52.951  1.00  0.00     0.016 A 
BRANCH  26  31
HETATM   31  O   UNL     1       8.392  22.260  56.576  1.00  0.00    -0.355 OA
HETATM   32  C   UNL     1       8.354  21.165  57.493  1.00  0.00     0.210 C 
ENDBRANCH  26  31
ENDBRANCH   9  25
TORSDOF 4
ENDMDL
MODEL 4
REMARK VINA RESULT:      -9.4      4.209      7.607
REMARK  4 active torsions:
REMARK  status: ('A' for Active; 'I' for Inactive)
REMARK       I    between atoms: C_2  and  N_3 
REMARK    1  A    between atoms: N_7  and  N_8 
REMARK       I    between atoms: N_8  and  C_9 
REMARK    2  A    between atoms: C_9  and  C_10 
REMARK    3  A    between atoms: C_18  and  C_19 
REMARK    4  A    between atoms: C_20  and  O_21 
ROOT
HETATM    1  C   UNL     1       7.102  29.660  57.419  1.00  0.00     0.048 A 
HETATM    2  C   UNL     1       8.503  29.847  57.432  1.00  0.00     0.009 A 
HETATM    3  C   UNL     1       8.967  30.953  58.171  1.00  0.00     0.068 A 
HETATM    4  C   UNL     1      10.328  31.223  58.194  1.00  0.00     0.032 A 
HETATM    5  C   UNL     1      11.256  30.416  57.532  1.00  0.00     0.002 A 
HETATM    6  C   UNL     1      10.820  29.295  56.843  1.00  0.00     0.001 A 
HETATM    7  C   UNL     1       9.458  29.004  56.800  1.00  0.00     0.015 A 
HETATM    8  N   UNL     1       8.157  31.758  58.875  1.00  0.00    -0.247 NA
HETATM    9  C   UNL     1       6.821  31.532  58.888  1.00  0.00     0.071 A 
HETATM   10  C   UNL     1       6.262  30.496  58.159  1.00  0.00     0.050 A 
ENDROOT
BRANCH   1  11
HETATM   11  C   UNL     1       6.421  28.574  56.672  1.00  0.00     0.272 C 
HETATM   12  N   UNL     1       7.236  27.817  55.841  1.00  0.00    -0.243 N 
HETATM   13  H   UNL     1       8.205  28.075  55.709  1.00  0.00     0.192 HD
HETATM   14  O   UNL     1       5.209  28.442  56.806  1.00  0.00    -0.266 OA
BRANCH  12  15
HETATM   15  N   UNL     1       6.676  26.847  55.073  1.00  0.00    -0.181 NA
HETATM   16  C   UNL     1       6.796  25.597  55.399  1.00  0.00     0.035 C 
HETATM   17  C   UNL     1       6.144  24.578  54.489  1.00  0.00     0.076 C 
HETATM   18  C   UNL     1       7.419  25.046  56.662  1.00  0.00     0.076 C 
HETATM   19  C   UNL     1       7.131  23.461  54.198  1.00  0.00     0.131 C 
HETATM   20  N   UNL     1       7.701  22.913  55.432  1.00  0.00    -0.352 N 
HETATM   21  C   UNL     1       7.901  21.539  55.506  1.00  0.00     0.215 C 
HETATM   22  C   UNL     1       8.346  23.888  56.314  1.00  0.00     0.131 C 
HETATM   23  C   UNL     1       8.570  21.003  56.746  1.00  0.00     0.117 C 
HETATM   24  O   UNL     1       7.537  20.763  54.622  1.00  0.00    -0.274 OA
ENDBRANCH  12  15
ENDBRANCH   1  11
BRANCH   9  25
HETATM   25  C   UNL     1       6.009  32.398  59.765  1.00  0.00     0.026 A 
HETATM   26  C   UNL     1       6.117  32.389  61.169  1.00  0.00     0.080 A 
HETATM   27  C   UNL     1       5.343  33.243  61.965  1.00  0.00     0.037 A 
HETATM   28  C   UNL     1       4.417  34.101  61.378  1.00  0.00     0.003 A 
HETATM   29  C   UNL     1       4.272  34.115  59.995  1.00  0.00     0.001 A 
HETATM   30  C   UNL     1       5.059  33.277  59.200  1.00  0.00     0.016 A 
BRANCH  26  31
HETATM   31  O   UNL     1       7.058  31.599  61.785  1.00  0.00    -0.355 OA
HETATM   32  C   UNL     1       7.776  32.353  62.762  1.00  0.00     0.210 C 
ENDBRANCH  26  31
ENDBRANCH   9  25
TORSDOF 4
ENDMDL
MODEL 5
REMARK VINA RESULT:      -9.3      2.630      8.364
REMARK  4 active torsions:
REMARK  status: ('A' for Active; 'I' for Inactive)
REMARK       I    between atoms: C_2  and  N_3 
REMARK    1  A    between atoms: N_7  and  N_8 
REMARK       I    between atoms: N_8  and  C_9 
REMARK    2  A    between atoms: C_9  and  C_10 
REMARK    3  A    between atoms: C_18  and  C_19 
REMARK    4  A    between atoms: C_20  and  O_21 
ROOT
HETATM    1  C   UNL     1       5.039  28.111  54.505  1.00  0.00     0.048 A 
HETATM    2  C   UNL     1       4.266  29.219  54.921  1.00  0.00     0.009 A 
HETATM    3  C   UNL     1       3.810  30.068  53.894  1.00  0.00     0.068 A 
HETATM    4  C   UNL     1       3.082  31.200  54.230  1.00  0.00     0.032 A 
HETATM    5  C   UNL     1       2.760  31.509  55.554  1.00  0.00     0.002 A 
HETATM    6  C   UNL     1       3.158  30.657  56.572  1.00  0.00     0.001 A 
HETATM    7  C   UNL     1       3.895  29.516  56.261  1.00  0.00     0.015 A 
HETATM    8  N   UNL     1       4.030  29.830  52.591  1.00  0.00    -0.247 NA
HETATM    9  C   UNL     1       4.732  28.735  52.213  1.00  0.00     0.071 A 
HETATM   10  C   UNL     1       5.260  27.862  53.148  1.00  0.00     0.050 A 
ENDROOT
BRANCH   1  11
HETATM   11  C   UNL     1       5.635  27.123  55.439  1.00  0.00     0.272 C 
HETATM   12  N   UNL     1       6.954  26.775  55.179  1.00  0.00    -0.243 N 
HETATM   13  H   UNL     1       7.415  27.120  54.348  1.00  0.00     0.192 HD
HETATM   14  O   UNL     1       4.932  26.665  56.333  1.00  0.00    -0.266 OA
BRANCH  12  15
HETATM   15  N   UNL     1       7.549  25.827  55.947  1.00  0.00    -0.181 NA
HETATM   16  C   UNL     1       7.965  24.717  55.419  1.00  0.00     0.035 C 
HETATM   17  C   UNL     1       8.617  23.711  56.344  1.00  0.00     0.076 C 
HETATM   18  C   UNL     1       7.979  24.362  53.949  1.00  0.00     0.076 C 
HETATM   19  C   UNL     1       8.029  22.336  56.084  1.00  0.00     0.131 C 
HETATM   20  N   UNL     1       8.080  21.990  54.661  1.00  0.00    -0.352 N 
HETATM   21  C   UNL     1       8.391  20.679  54.317  1.00  0.00     0.215 C 
HETATM   22  C   UNL     1       7.441  22.950  53.758  1.00  0.00     0.131 C 
HETATM   23  C   UNL     1       8.351  20.320  52.853  1.00  0.00     0.117 C 
HETATM   24  O   UNL     1       8.711  19.829  55.147  1.00  0.00    -0.274 OA
ENDBRANCH  12  15
ENDBRANCH   1  11
BRANCH   9  25
HETATM   25  C   UNL     1       4.845  28.488  50.762  1.00  0.00     0.026 A 
HETATM   26  C   UNL     1       5.554  29.336  49.890  1.00  0.00     0.080 A 
HETATM   27  C   UNL     1       5.657  29.055  48.522  1.00  0.00     0.037 A 
HETATM   28  C   UNL     1       5.022  27.938  47.986  1.00  0.00     0.003 A 
HETATM   29  C   UNL     1       4.295  27.094  48.819  1.00  0.00     0.001 A 
HETATM   30  C   UNL     1       4.210  27.365  50.188  1.00  0.00     0.016 A 
BRANCH  26  31
HETATM   31  O   UNL     1       6.242  30.418  50.385  1.00  0.00    -0.355 OA
HETATM   32  C   UNL     1       5.864  31.607  49.691  1.00  0.00     0.210 C 
ENDBRANCH  26  31
ENDBRANCH   9  25
TORSDOF 4
ENDMDL
MODEL 6
REMARK VINA RESULT:      -9.2      3.040      7.111
REMARK  4 active torsions:
REMARK  status: ('A' for Active; 'I' for Inactive)
REMARK       I    between atoms: C_2  and  N_3 
REMARK    1  A    between atoms: N_7  and  N_8 
REMARK       I    between atoms: N_8  and  C_9 
REMARK    2  A    between atoms: C_9  and  C_10 
REMARK    3  A    between atoms: C_18  and  C_19 
REMARK    4  A    between atoms: C_20  and  O_21 
ROOT
HETATM    1  C   UNL     1       6.886  26.793  54.107  1.00  0.00     0.048 A 
HETATM    2  C   UNL     1       6.207  27.010  52.887  1.00  0.00     0.009 A 
HETATM    3  C   UNL     1       6.096  25.891  52.039  1.00  0.00     0.068 A 
HETATM    4  C   UNL     1       5.479  26.040  50.806  1.00  0.00     0.032 A 
HETATM    5  C   UNL     1       4.937  27.258  50.389  1.00  0.00     0.002 A 
HETATM    6  C   UNL     1       4.993  28.356  51.233  1.00  0.00     0.001 A 
HETATM    7  C   UNL     1       5.612  28.234  52.475  1.00  0.00     0.015 A 
HETATM    8  N   UNL     1       6.544  24.670  52.371  1.00  0.00    -0.247 NA
HETATM    9  C   UNL     1       7.149  24.474  53.567  1.00  0.00     0.071 A 
HETATM   10  C   UNL     1       7.346  25.519  54.453  1.00  0.00     0.050 A 
ENDROOT
BRANCH   1  11
HETATM   11  C   UNL     1       7.133  27.854  55.115  1.00  0.00     0.272 C 
HETATM   12  N   UNL     1       6.163  27.981  56.100  1.00  0.00    -0.243 N 
HETATM   13  H   UNL     1       5.314  27.433  56.049  1.00  0.00     0.192 HD
HETATM   14  O   UNL     1       8.134  28.553  54.995  1.00  0.00    -0.266 OA
BRANCH  12  15
HETATM   15  N   UNL     1       6.282  28.973  57.019  1.00  0.00    -0.181 NA
HETATM   16  C   UNL     1       5.419  29.942  57.058  1.00  0.00     0.035 C 
HETATM   17  C   UNL     1       5.624  31.009  58.112  1.00  0.00     0.076 C 
HETATM   18  C   UNL     1       4.153  30.062  56.240  1.00  0.00     0.076 C 
HETATM   19  C   UNL     1       5.486  32.379  57.472  1.00  0.00     0.131 C 
HETATM   20  N   UNL     1       4.239  32.493  56.710  1.00  0.00    -0.352 N 
HETATM   21  C   UNL     1       3.547  33.698  56.766  1.00  0.00     0.215 C 
HETATM   22  C   UNL     1       4.037  31.473  55.679  1.00  0.00     0.131 C 
HETATM   23  C   UNL     1       2.315  33.828  55.906  1.00  0.00     0.117 C 
HETATM   24  O   UNL     1       3.888  34.631  57.493  1.00  0.00    -0.274 OA
ENDBRANCH  12  15
ENDBRANCH   1  11
BRANCH   9  25
HETATM   25  C   UNL     1       7.524  23.086  53.902  1.00  0.00     0.026 A 
HETATM   26  C   UNL     1       7.630  22.615  55.224  1.00  0.00     0.080 A 
HETATM   27  C   UNL     1       7.967  21.283  55.500  1.00  0.00     0.037 A 
HETATM   28  C   UNL     1       8.243  20.400  54.459  1.00  0.00     0.003 A 
HETATM   29  C   UNL     1       8.169  20.843  53.143  1.00  0.00     0.001 A 
HETATM   30  C   UNL     1       7.812  22.167  52.869  1.00  0.00     0.016 A 
BRANCH  26  31
HETATM   31  O   UNL     1       7.312  23.437  56.279  1.00  0.00    -0.355 OA
HETATM   32  C   UNL     1       8.397  23.498  57.205  1.00  0.00     0.210 C 
ENDBRANCH  26  31
ENDBRANCH   9  25
TORSDOF 4
ENDMDL
MODEL 7
REMARK VINA RESULT:      -9.2      6.021      9.303
REMARK  4 active torsions:
REMARK  status: ('A' for Active; 'I' for Inactive)
REMARK       I    between atoms: C_2  and  N_3 
REMARK    1  A    between atoms: N_7  and  N_8 
REMARK       I    between atoms: N_8  and  C_9 
REMARK    2  A    between atoms: C_9  and  C_10 
REMARK    3  A    between atoms: C_18  and  C_19 
REMARK    4  A    between atoms: C_20  and  O_21 
ROOT
HETATM    1  C   UNL     1       5.980  32.656  60.371  1.00  0.00     0.048 A 
HETATM    2  C   UNL     1       7.213  32.050  60.704  1.00  0.00     0.009 A 
HETATM    3  C   UNL     1       7.745  32.393  61.962  1.00  0.00     0.068 A 
HETATM    4  C   UNL     1       8.974  31.869  62.338  1.00  0.00     0.032 A 
HETATM    5  C   UNL     1       9.687  30.988  61.521  1.00  0.00     0.002 A 
HETATM    6  C   UNL     1       9.152  30.601  60.302  1.00  0.00     0.001 A 
HETATM    7  C   UNL     1       7.923  31.117  59.899  1.00  0.00     0.015 A 
HETATM    8  N   UNL     1       7.114  33.194  62.833  1.00  0.00    -0.247 NA
HETATM    9  C   UNL     1       5.909  33.726  62.514  1.00  0.00     0.071 A 
HETATM   10  C   UNL     1       5.322  33.484  61.284  1.00  0.00     0.050 A 
ENDROOT
BRANCH   1  11
HETATM   11  C   UNL     1       5.278  32.446  59.081  1.00  0.00     0.272 C 
HETATM   12  N   UNL     1       4.521  31.286  58.993  1.00  0.00    -0.243 N 
HETATM   13  H   UNL     1       4.543  30.609  59.744  1.00  0.00     0.192 HD
HETATM   14  O   UNL     1       5.438  33.271  58.187  1.00  0.00    -0.266 OA
BRANCH  12  15
HETATM   15  N   UNL     1       3.903  30.989  57.821  1.00  0.00    -0.181 NA
HETATM   16  C   UNL     1       4.409  30.106  57.016  1.00  0.00     0.035 C 
HETATM   17  C   UNL     1       3.659  29.833  55.729  1.00  0.00     0.076 C 
HETATM   18  C   UNL     1       5.610  29.225  57.276  1.00  0.00     0.076 C 
HETATM   19  C   UNL     1       4.637  29.845  54.567  1.00  0.00     0.131 C 
HETATM   20  N   UNL     1       5.779  28.961  54.817  1.00  0.00    -0.352 N 
HETATM   21  C   UNL     1       6.273  28.214  53.753  1.00  0.00     0.215 C 
HETATM   22  C   UNL     1       6.519  29.224  56.053  1.00  0.00     0.131 C 
HETATM   23  C   UNL     1       7.503  27.379  54.007  1.00  0.00     0.117 C 
HETATM   24  O   UNL     1       5.738  28.196  52.645  1.00  0.00    -0.274 OA
ENDBRANCH  12  15
ENDBRANCH   1  11
BRANCH   9  25
HETATM   25  C   UNL     1       5.232  34.514  63.562  1.00  0.00     0.026 A 
HETATM   26  C   UNL     1       5.327  35.916  63.652  1.00  0.00     0.080 A 
HETATM   27  C   UNL     1       4.651  36.630  64.650  1.00  0.00     0.037 A 
HETATM   28  C   UNL     1       3.893  35.956  65.604  1.00  0.00     0.003 A 
HETATM   29  C   UNL     1       3.799  34.569  65.553  1.00  0.00     0.001 A 
HETATM   30  C   UNL     1       4.458  33.859  64.545  1.00  0.00     0.016 A 
BRANCH  26  31
HETATM   31  O   UNL     1       6.018  36.625  62.700  1.00  0.00    -0.355 OA
HETATM   32  C   UNL     1       5.943  38.025  62.971  1.00  0.00     0.210 C 
ENDBRANCH  26  31
ENDBRANCH   9  25
TORSDOF 4
ENDMDL
MODEL 8
REMARK VINA RESULT:      -9.2      1.929      5.112
REMARK  4 active torsions:
REMARK  status: ('A' for Active; 'I' for Inactive)
REMARK       I    between atoms: C_2  and  N_3 
REMARK    1  A    between atoms: N_7  and  N_8 
REMARK       I    between atoms: N_8  and  C_9 
REMARK    2  A    between atoms: C_9  and  C_10 
REMARK    3  A    between atoms: C_18  and  C_19 
REMARK    4  A    between atoms: C_20  and  O_21 
ROOT
HETATM    1  C   UNL     1       5.996  25.860  53.481  1.00  0.00     0.048 A 
HETATM    2  C   UNL     1       6.553  26.697  54.475  1.00  0.00     0.009 A 
HETATM    3  C   UNL     1       7.424  26.070  55.387  1.00  0.00     0.068 A 
HETATM    4  C   UNL     1       7.975  26.821  56.415  1.00  0.00     0.032 A 
HETATM    5  C   UNL     1       7.717  28.186  56.558  1.00  0.00     0.002 A 
HETATM    6  C   UNL     1       6.903  28.829  55.639  1.00  0.00     0.001 A 
HETATM    7  C   UNL     1       6.333  28.096  54.600  1.00  0.00     0.015 A 
HETATM    8  N   UNL     1       7.767  24.775  55.304  1.00  0.00    -0.247 NA
HETATM    9  C   UNL     1       7.259  24.003  54.314  1.00  0.00     0.071 A 
HETATM   10  C   UNL     1       6.361  24.514  53.393  1.00  0.00     0.050 A 
ENDROOT
BRANCH   1  11
HETATM   11  C   UNL     1       5.033  26.327  52.453  1.00  0.00     0.272 C 
HETATM   12  N   UNL     1       5.456  26.201  51.137  1.00  0.00    -0.243 N 
HETATM   13  H   UNL     1       6.398  25.892  50.934  1.00  0.00     0.192 HD
HETATM   14  O   UNL     1       3.971  26.814  52.825  1.00  0.00    -0.266 OA
BRANCH  12  15
HETATM   15  N   UNL     1       4.660  26.667  50.141  1.00  0.00    -0.181 NA
HETATM   16  C   UNL     1       4.859  27.847  49.637  1.00  0.00     0.035 C 
HETATM   17  C   UNL     1       3.927  28.293  48.530  1.00  0.00     0.076 C 
HETATM   18  C   UNL     1       6.002  28.785  49.951  1.00  0.00     0.076 C 
HETATM   19  C   UNL     1       3.443  29.703  48.821  1.00  0.00     0.131 C 
HETATM   20  N   UNL     1       4.563  30.610  49.090  1.00  0.00    -0.352 N 
HETATM   21  C   UNL     1       4.493  31.903  48.584  1.00  0.00     0.215 C 
HETATM   22  C   UNL     1       5.463  30.194  50.167  1.00  0.00     0.131 C 
HETATM   23  C   UNL     1       5.610  32.849  48.946  1.00  0.00     0.117 C 
HETATM   24  O   UNL     1       3.581  32.284  47.850  1.00  0.00    -0.274 OA
ENDBRANCH  12  15
ENDBRANCH   1  11
BRANCH   9  25
HETATM   25  C   UNL     1       7.761  22.617  54.229  1.00  0.00     0.026 A 
HETATM   26  C   UNL     1       8.180  21.880  55.354  1.00  0.00     0.080 A 
HETATM   27  C   UNL     1       8.629  20.559  55.234  1.00  0.00     0.037 A 
HETATM   28  C   UNL     1       8.706  19.955  53.982  1.00  0.00     0.003 A 
HETATM   29  C   UNL     1       8.321  20.667  52.850  1.00  0.00     0.001 A 
HETATM   30  C   UNL     1       7.854  21.978  52.974  1.00  0.00     0.016 A 
BRANCH  26  31
HETATM   31  O   UNL     1       8.067  22.418  56.614  1.00  0.00    -0.355 OA
HETATM   32  C   UNL     1       8.274  21.409  57.604  1.00  0.00     0.210 C 
ENDBRANCH  26  31
ENDBRANCH   9  25
TORSDOF 4
ENDMDL
MODEL 9
REMARK VINA RESULT:      -9.1      5.025      8.906
REMARK  4 active torsions:
REMARK  status: ('A' for Active; 'I' for Inactive)
REMARK       I    between atoms: C_2  and  N_3 
REMARK    1  A    between atoms: N_7  and  N_8 
REMARK       I    between atoms: N_8  and  C_9 
REMARK    2  A    between atoms: C_9  and  C_10 
REMARK    3  A    between atoms: C_18  and  C_19 
REMARK    4  A    between atoms: C_20  and  O_21 
ROOT
HETATM    1  C   UNL     1       6.495  31.796  59.324  1.00  0.00     0.048 A 
HETATM    2  C   UNL     1       5.545  32.555  58.603  1.00  0.00     0.009 A 
HETATM    3  C   UNL     1       4.739  33.417  59.372  1.00  0.00     0.068 A 
HETATM    4  C   UNL     1       3.756  34.163  58.737  1.00  0.00     0.032 A 
HETATM    5  C   UNL     1       3.559  34.107  57.355  1.00  0.00     0.002 A 
HETATM    6  C   UNL     1       4.377  33.302  56.579  1.00  0.00     0.001 A 
HETATM    7  C   UNL     1       5.368  32.539  57.192  1.00  0.00     0.015 A 
HETATM    8  N   UNL     1       4.884  33.572  60.697  1.00  0.00    -0.247 NA
HETATM    9  C   UNL     1       5.834  32.871  61.360  1.00  0.00     0.071 A 
HETATM   10  C   UNL     1       6.648  31.964  60.702  1.00  0.00     0.050 A 
ENDROOT
BRANCH   1  11
HETATM   11  C   UNL     1       7.410  30.810  58.698  1.00  0.00     0.272 C 
HETATM   12  N   UNL     1       6.860  29.561  58.441  1.00  0.00    -0.243 N 
HETATM   13  H   UNL     1       5.923  29.346  58.757  1.00  0.00     0.192 HD
HETATM   14  O   UNL     1       8.572  31.141  58.487  1.00  0.00    -0.266 OA
BRANCH  12  15
HETATM   15  N   UNL     1       7.652  28.583  57.932  1.00  0.00    -0.181 NA
HETATM   16  C   UNL     1       7.293  27.933  56.868  1.00  0.00     0.035 C 
HETATM   17  C   UNL     1       8.231  26.856  56.365  1.00  0.00     0.076 C 
HETATM   18  C   UNL     1       6.088  28.212  55.998  1.00  0.00     0.076 C 
HETATM   19  C   UNL     1       7.437  25.596  56.069  1.00  0.00     0.131 C 
HETATM   20  N   UNL     1       6.292  25.876  55.197  1.00  0.00    -0.352 N 
HETATM   21  C   UNL     1       5.980  24.947  54.210  1.00  0.00     0.215 C 
HETATM   22  C   UNL     1       5.371  26.906  55.680  1.00  0.00     0.131 C 
HETATM   23  C   UNL     1       4.747  25.207  53.382  1.00  0.00     0.117 C 
HETATM   24  O   UNL     1       6.673  23.956  53.983  1.00  0.00    -0.274 OA
ENDBRANCH  12  15
ENDBRANCH   1  11
BRANCH   9  25
HETATM   25  C   UNL     1       5.999  33.170  62.797  1.00  0.00     0.026 A 
HETATM   26  C   UNL     1       4.913  33.321  63.680  1.00  0.00     0.080 A 
HETATM   27  C   UNL     1       5.112  33.583  65.042  1.00  0.00     0.037 A 
HETATM   28  C   UNL     1       6.401  33.736  65.546  1.00  0.00     0.003 A 
HETATM   29  C   UNL     1       7.492  33.615  64.691  1.00  0.00     0.001 A 
HETATM   30  C   UNL     1       7.293  33.334  63.337  1.00  0.00     0.016 A 
BRANCH  26  31
HETATM   31  O   UNL     1       3.628  33.122  63.237  1.00  0.00    -0.355 OA
HETATM   32  C   UNL     1       2.811  34.248  63.559  1.00  0.00     0.210 C 
ENDBRANCH  26  31
ENDBRANCH   9  25
TORSDOF 4
ENDMDL
MODEL 10
REMARK VINA RESULT:      -9.0      2.487      5.134
REMARK  4 active torsions:
REMARK  status: ('A' for Active; 'I' for Inactive)
REMARK       I    between atoms: C_2  and  N_3 
REMARK    1  A    between atoms: N_7  and  N_8 
REMARK       I    between atoms: N_8  and  C_9 
REMARK    2  A    between atoms: C_9  and  C_10 
REMARK    3  A    between atoms: C_18  and  C_19 
REMARK    4  A    between atoms: C_20  and  O_21 
ROOT
HETATM    1  C   UNL     1       5.577  25.655  52.431  1.00  0.00     0.048 A 
HETATM    2  C   UNL     1       5.281  26.407  53.590  1.00  0.00     0.009 A 
HETATM    3  C   UNL     1       5.699  25.842  54.810  1.00  0.00     0.068 A 
HETATM    4  C   UNL     1       5.406  26.504  55.994  1.00  0.00     0.032 A 
HETATM    5  C   UNL     1       4.733  27.728  56.013  1.00  0.00     0.002 A 
HETATM    6  C   UNL     1       4.359  28.322  54.817  1.00  0.00     0.001 A 
HETATM    7  C   UNL     1       4.638  27.675  53.615  1.00  0.00     0.015 A 
HETATM    8  N   UNL     1       6.390  24.695  54.890  1.00  0.00    -0.247 NA
HETATM    9  C   UNL     1       6.706  24.015  53.762  1.00  0.00     0.071 A 
HETATM   10  C   UNL     1       6.302  24.464  52.517  1.00  0.00     0.050 A 
ENDROOT
BRANCH   1  11
HETATM   11  C   UNL     1       5.188  26.066  51.058  1.00  0.00     0.272 C 
HETATM   12  N   UNL     1       5.738  27.261  50.614  1.00  0.00    -0.243 N 
HETATM   13  H   UNL     1       6.287  27.832  51.243  1.00  0.00     0.192 HD
HETATM   14  O   UNL     1       4.401  25.360  50.437  1.00  0.00    -0.266 OA
BRANCH  12  15
HETATM   15  N   UNL     1       5.378  27.740  49.395  1.00  0.00    -0.181 NA
HETATM   16  C   UNL     1       4.461  28.652  49.291  1.00  0.00     0.035 C 
HETATM   17  C   UNL     1       4.118  29.131  47.896  1.00  0.00     0.076 C 
HETATM   18  C   UNL     1       3.776  29.383  50.423  1.00  0.00     0.076 C 
HETATM   19  C   UNL     1       2.608  29.152  47.731  1.00  0.00     0.131 C 
HETATM   20  N   UNL     1       1.959  29.892  48.817  1.00  0.00    -0.352 N 
HETATM   21  C   UNL     1       0.872  30.699  48.500  1.00  0.00     0.215 C 
HETATM   22  C   UNL     1       2.275  29.429  50.169  1.00  0.00     0.131 C 
HETATM   23  C   UNL     1       0.161  31.382  49.641  1.00  0.00     0.117 C 
HETATM   24  O   UNL     1       0.494  30.886  47.343  1.00  0.00    -0.274 OA
ENDBRANCH  12  15
ENDBRANCH   1  11
BRANCH   9  25
HETATM   25  C   UNL     1       7.552  22.816  53.924  1.00  0.00     0.026 A 
HETATM   26  C   UNL     1       8.507  22.681  54.950  1.00  0.00     0.080 A 
HETATM   27  C   UNL     1       9.275  21.517  55.083  1.00  0.00     0.037 A 
HETATM   28  C   UNL     1       9.134  20.476  54.170  1.00  0.00     0.003 A 
HETATM   29  C   UNL     1       8.215  20.590  53.132  1.00  0.00     0.001 A 
HETATM   30  C   UNL     1       7.434  21.744  53.013  1.00  0.00     0.016 A 
BRANCH  26  31
HETATM   31  O   UNL     1       8.639  23.661  55.905  1.00  0.00    -0.355 OA
HETATM   32  C   UNL     1       8.479  23.106  57.211  1.00  0.00     0.210 C 
ENDBRANCH  26  31
ENDBRANCH   9  25
TORSDOF 4
ENDMDL
