MODEL 1
REMARK VINA RESULT:      -9.0      0.000      0.000
REMARK  5 active torsions:
REMARK  status: ('A' for Active; 'I' for Inactive)
REMARK    1  A    between atoms: C_8  and  C_9 
REMARK    2  A    between atoms: N_10  and  N_11 
REMARK       I    between atoms: N_11  and  C_12 
REMARK    3  A    between atoms: C_12  and  C_13 
REMARK    4  A    between atoms: C_13  and  N_14 
REMARK    5  A    between atoms: N_14  and  C_15 
ROOT
HETATM    1  N   UNL     1       7.969  28.022  57.801  1.00  0.00    -0.246 N 
HETATM    2  C   UNL     1       8.827  29.094  57.540  1.00  0.00     0.255 C 
HETATM    3  O   UNL     1       9.994  28.999  57.169  1.00  0.00    -0.270 OA
HETATM    4  H   UNL     1       6.970  28.201  57.756  1.00  0.00     0.192 HD
ENDROOT
BRANCH   1   5
HETATM    5  N   UNL     1       8.298  26.702  57.587  1.00  0.00    -0.184 NA
HETATM    6  C   UNL     1       7.760  26.112  56.564  1.00  0.00     0.152 C 
BRANCH   6   7
HETATM    7  C   UNL     1       8.018  24.707  56.322  1.00  0.00     0.011 A 
HETATM    8  C   UNL     1       7.949  24.028  55.063  1.00  0.00     0.004 A 
HETATM    9  C   UNL     1       7.648  24.427  53.743  1.00  0.00     0.014 A 
HETATM   10  C   UNL     1       8.260  22.686  55.294  1.00  0.00     0.043 A 
HETATM   11  C   UNL     1       7.669  23.482  52.712  1.00  0.00     0.001 A 
HETATM   12  C   UNL     1       7.983  22.152  52.976  1.00  0.00     0.002 A 
HETATM   13  C   UNL     1       8.284  21.727  54.274  1.00  0.00     0.030 A 
HETATM   14  N   UNL     1       8.508  22.554  56.640  1.00  0.00    -0.364 N 
HETATM   15  H   UNL     1       8.754  21.685  57.095  1.00  0.00     0.165 HD
HETATM   16  C   UNL     1       8.368  23.761  57.268  1.00  0.00     0.102 A 
ENDBRANCH   6   7
ENDBRANCH   1   5
BRANCH   2  17
HETATM   17  C   UNL     1       8.149  30.452  57.739  1.00  0.00     0.224 C 
BRANCH  17  18
HETATM   18  N   UNL     1       7.292  30.438  58.927  1.00  0.00    -0.381 N 
HETATM   19  H   UNL     1       6.293  30.457  58.743  1.00  0.00     0.160 HD
BRANCH  18  20
HETATM   20  C   UNL     1       7.674  31.085  60.098  1.00  0.00     0.028 A 
HETATM   21  C   UNL     1       6.820  32.065  60.630  1.00  0.00     0.032 A 
HETATM   22  C   UNL     1       7.101  32.694  61.846  1.00  0.00     0.044 A 
HETATM   23  C   UNL     1       8.233  32.327  62.557  1.00  0.00     0.116 A 
HETATM   24  F   UNL     1       8.502  32.919  63.728  1.00  0.00    -0.206 F 
HETATM   25  C   UNL     1       9.081  31.342  62.075  1.00  0.00     0.044 A 
HETATM   26  C   UNL     1       8.796  30.719  60.856  1.00  0.00     0.032 A 
ENDBRANCH  18  20
ENDBRANCH  17  18
ENDBRANCH   2  17
TORSDOF 5
ENDMDL
MODEL 2
REMARK VINA RESULT:      -8.9      3.878     10.109
REMARK  5 active torsions:
REMARK  status: ('A' for Active; 'I' for Inactive)
REMARK    1  A    between atoms: C_8  and  C_9 
REMARK    2  A    between atoms: N_10  and  N_11 
REMARK       I    between atoms: N_11  and  C_12 
REMARK    3  A    between atoms: C_12  and  C_13 
REMARK    4  A    between atoms: C_13  and  N_14 
REMARK    5  A    between atoms: N_14  and  C_15 
ROOT
HETATM    1  N   UNL     1       8.106  26.997  57.499  1.00  0.00    -0.246 N 
HETATM    2  C   UNL     1       7.400  25.835  57.175  1.00  0.00     0.255 C 
HETATM    3  O   UNL     1       6.238  25.596  57.495  1.00  0.00    -0.270 OA
HETATM    4  H   UNL     1       8.899  27.242  56.911  1.00  0.00     0.192 HD
ENDROOT
BRANCH   1   5
HETATM    5  N   UNL     1       7.556  28.079  58.150  1.00  0.00    -0.184 NA
HETATM    6  C   UNL     1       8.088  29.241  57.929  1.00  0.00     0.152 C 
BRANCH   6   7
HETATM    7  C   UNL     1       7.592  30.407  58.632  1.00  0.00     0.011 A 
HETATM    8  C   UNL     1       8.055  30.910  59.891  1.00  0.00     0.004 A 
HETATM    9  C   UNL     1       9.053  30.509  60.805  1.00  0.00     0.014 A 
HETATM   10  C   UNL     1       7.291  32.039  60.198  1.00  0.00     0.043 A 
HETATM   11  C   UNL     1       9.252  31.243  61.980  1.00  0.00     0.001 A 
HETATM   12  C   UNL     1       8.473  32.364  62.255  1.00  0.00     0.002 A 
HETATM   13  C   UNL     1       7.476  32.783  61.368  1.00  0.00     0.030 A 
HETATM   14  N   UNL     1       6.399  32.215  59.166  1.00  0.00    -0.364 N 
HETATM   15  H   UNL     1       5.714  32.957  59.122  1.00  0.00     0.165 HD
HETATM   16  C   UNL     1       6.572  31.244  58.219  1.00  0.00     0.102 A 
ENDBRANCH   6   7
ENDBRANCH   1   5
BRANCH   2  17
HETATM   17  C   UNL     1       8.225  24.860  56.333  1.00  0.00     0.224 C 
BRANCH  17  18
HETATM   18  N   UNL     1       7.736  23.489  56.492  1.00  0.00    -0.381 N 
HETATM   19  H   UNL     1       7.873  23.081  57.413  1.00  0.00     0.160 HD
BRANCH  18  20
HETATM   20  C   UNL     1       7.798  22.575  55.444  1.00  0.00     0.028 A 
HETATM   21  C   UNL     1       7.811  23.067  54.128  1.00  0.00     0.032 A 
HETATM   22  C   UNL     1       7.956  22.212  53.032  1.00  0.00     0.044 A 
HETATM   23  C   UNL     1       8.115  20.851  53.247  1.00  0.00     0.116 A 
HETATM   24  F   UNL     1       8.265  20.028  52.201  1.00  0.00    -0.206 F 
HETATM   25  C   UNL     1       8.137  20.336  54.534  1.00  0.00     0.044 A 
HETATM   26  C   UNL     1       7.989  21.198  55.626  1.00  0.00     0.032 A 
ENDBRANCH  18  20
ENDBRANCH  17  18
ENDBRANCH   2  17
TORSDOF 5
ENDMDL
MODEL 3
REMARK VINA RESULT:      -8.9      1.439      2.008
REMARK  5 active torsions:
REMARK  status: ('A' for Active; 'I' for Inactive)
REMARK    1  A    between atoms: C_8  and  C_9 
REMARK    2  A    between atoms: N_10  and  N_11 
REMARK       I    between atoms: N_11  and  C_12 
REMARK    3  A    between atoms: C_12  and  C_13 
REMARK    4  A    between atoms: C_13  and  N_14 
REMARK    5  A    between atoms: N_14  and  C_15 
ROOT
HETATM    1  N   UNL     1       7.288  27.475  56.693  1.00  0.00    -0.246 N 
HETATM    2  C   UNL     1       7.842  28.751  56.832  1.00  0.00     0.255 C 
HETATM    3  O   UNL     1       8.571  29.304  56.012  1.00  0.00    -0.270 OA
HETATM    4  H   UNL     1       6.453  27.267  57.233  1.00  0.00     0.192 HD
ENDROOT
BRANCH   1   5
HETATM    5  N   UNL     1       7.415  26.698  55.563  1.00  0.00    -0.184 NA
HETATM    6  C   UNL     1       7.460  25.412  55.727  1.00  0.00     0.152 C 
BRANCH   6   7
HETATM    7  C   UNL     1       7.654  24.545  54.583  1.00  0.00     0.011 A 
HETATM    8  C   UNL     1       7.753  23.115  54.598  1.00  0.00     0.004 A 
HETATM    9  C   UNL     1       7.695  22.134  55.611  1.00  0.00     0.014 A 
HETATM   10  C   UNL     1       7.950  22.695  53.280  1.00  0.00     0.043 A 
HETATM   11  C   UNL     1       7.834  20.783  55.275  1.00  0.00     0.001 A 
HETATM   12  C   UNL     1       8.029  20.398  53.952  1.00  0.00     0.002 A 
HETATM   13  C   UNL     1       8.092  21.348  52.927  1.00  0.00     0.030 A 
HETATM   14  N   UNL     1       7.972  23.824  52.495  1.00  0.00    -0.364 N 
HETATM   15  H   UNL     1       8.106  23.822  51.493  1.00  0.00     0.165 HD
HETATM   16  C   UNL     1       7.793  24.940  53.265  1.00  0.00     0.102 A 
ENDBRANCH   6   7
ENDBRANCH   1   5
BRANCH   2  17
HETATM   17  C   UNL     1       7.423  29.436  58.135  1.00  0.00     0.224 C 
BRANCH  17  18
HETATM   18  N   UNL     1       8.213  30.648  58.365  1.00  0.00    -0.381 N 
HETATM   19  H   UNL     1       9.024  30.760  57.763  1.00  0.00     0.160 HD
BRANCH  18  20
HETATM   20  C   UNL     1       8.368  31.175  59.644  1.00  0.00     0.028 A 
HETATM   21  C   UNL     1       7.531  32.232  60.037  1.00  0.00     0.032 A 
HETATM   22  C   UNL     1       7.575  32.752  61.334  1.00  0.00     0.044 A 
HETATM   23  C   UNL     1       8.445  32.199  62.260  1.00  0.00     0.116 A 
HETATM   24  F   UNL     1       8.484  32.686  63.507  1.00  0.00    -0.206 F 
HETATM   25  C   UNL     1       9.264  31.135  61.914  1.00  0.00     0.044 A 
HETATM   26  C   UNL     1       9.216  30.620  60.614  1.00  0.00     0.032 A 
ENDBRANCH  18  20
ENDBRANCH  17  18
ENDBRANCH   2  17
TORSDOF 5
ENDMDL
MODEL 4
REMARK VINA RESULT:      -8.8      7.109      9.739
REMARK  5 active torsions:
REMARK  status: ('A' for Active; 'I' for Inactive)
REMARK    1  A    between atoms: C_8  and  C_9 
REMARK    2  A    between atoms: N_10  and  N_11 
REMARK       I    between atoms: N_11  and  C_12 
REMARK    3  A    between atoms: C_12  and  C_13 
REMARK    4  A    between atoms: C_13  and  N_14 
REMARK    5  A    between atoms: N_14  and  C_15 
ROOT
HETATM    1  N   UNL     1       6.368  25.691  51.559  1.00  0.00    -0.246 N 
HETATM    2  C   UNL     1       5.442  26.727  51.713  1.00  0.00     0.255 C 
HETATM    3  O   UNL     1       4.711  26.889  52.687  1.00  0.00    -0.270 OA
HETATM    4  H   UNL     1       7.137  25.844  50.913  1.00  0.00     0.192 HD
ENDROOT
BRANCH   1   5
HETATM    5  N   UNL     1       6.650  24.758  52.532  1.00  0.00    -0.184 NA
HETATM    6  C   UNL     1       7.643  25.008  53.328  1.00  0.00     0.152 C 
BRANCH   6   7
HETATM    7  C   UNL     1       8.028  24.036  54.331  1.00  0.00     0.011 A 
HETATM    8  C   UNL     1       8.237  22.633  54.129  1.00  0.00     0.004 A 
HETATM    9  C   UNL     1       8.165  21.778  53.009  1.00  0.00     0.014 A 
HETATM   10  C   UNL     1       8.581  22.079  55.364  1.00  0.00     0.043 A 
HETATM   11  C   UNL     1       8.437  20.414  53.160  1.00  0.00     0.001 A 
HETATM   12  C   UNL     1       8.777  19.893  54.406  1.00  0.00     0.002 A 
HETATM   13  C   UNL     1       8.855  20.717  55.533  1.00  0.00     0.030 A 
HETATM   14  N   UNL     1       8.580  23.104  56.281  1.00  0.00    -0.364 N 
HETATM   15  H   UNL     1       8.789  22.993  57.264  1.00  0.00     0.165 HD
HETATM   16  C   UNL     1       8.252  24.284  55.673  1.00  0.00     0.102 A 
ENDBRANCH   6   7
ENDBRANCH   1   5
BRANCH   2  17
HETATM   17  C   UNL     1       5.436  27.693  50.526  1.00  0.00     0.224 C 
BRANCH  17  18
HETATM   18  N   UNL     1       5.219  26.974  49.268  1.00  0.00    -0.381 N 
HETATM   19  H   UNL     1       5.986  27.016  48.604  1.00  0.00     0.160 HD
BRANCH  18  20
HETATM   20  C   UNL     1       3.957  26.906  48.686  1.00  0.00     0.028 A 
HETATM   21  C   UNL     1       2.981  27.830  49.095  1.00  0.00     0.032 A 
HETATM   22  C   UNL     1       1.720  27.872  48.494  1.00  0.00     0.044 A 
HETATM   23  C   UNL     1       1.432  27.000  47.455  1.00  0.00     0.116 A 
HETATM   24  F   UNL     1       0.229  27.043  46.867  1.00  0.00    -0.206 F 
HETATM   25  C   UNL     1       2.382  26.096  47.007  1.00  0.00     0.044 A 
HETATM   26  C   UNL     1       3.642  26.057  47.615  1.00  0.00     0.032 A 
ENDBRANCH  18  20
ENDBRANCH  17  18
ENDBRANCH   2  17
TORSDOF 5
ENDMDL
MODEL 5
REMARK VINA RESULT:      -8.5      3.812      9.225
REMARK  5 active torsions:
REMARK  status: ('A' for Active; 'I' for Inactive)
REMARK    1  A    between atoms: C_8  and  C_9 
REMARK    2  A    between atoms: N_10  and  N_11 
REMARK       I    between atoms: N_11  and  C_12 
REMARK    3  A    between atoms: C_12  and  C_13 
REMARK    4  A    between atoms: C_13  and  N_14 
REMARK    5  A    between atoms: N_14  and  C_15 
ROOT
HETATM    1  N   UNL     1       6.600  27.197  55.615  1.00  0.00    -0.246 N 
HETATM    2  C   UNL     1       6.776  26.463  54.438  1.00  0.00     0.255 C 
HETATM    3  O   UNL     1       7.583  26.726  53.550  1.00  0.00    -0.270 OA
HETATM    4  H   UNL     1       6.182  26.716  56.407  1.00  0.00     0.192 HD
ENDROOT
BRANCH   1   5
HETATM    5  N   UNL     1       7.381  28.270  55.979  1.00  0.00    -0.184 NA
HETATM    6  C   UNL     1       8.417  28.030  56.722  1.00  0.00     0.152 C 
BRANCH   6   7
HETATM    7  C   UNL     1       9.242  29.125  57.189  1.00  0.00     0.011 A 
HETATM    8  C   UNL     1       8.905  30.080  58.203  1.00  0.00     0.004 A 
HETATM    9  C   UNL     1       7.781  30.280  59.033  1.00  0.00     0.014 A 
HETATM   10  C   UNL     1       9.982  30.962  58.322  1.00  0.00     0.043 A 
HETATM   11  C   UNL     1       7.774  31.343  59.944  1.00  0.00     0.001 A 
HETATM   12  C   UNL     1       8.864  32.204  60.037  1.00  0.00     0.002 A 
HETATM   13  C   UNL     1       9.990  32.030  59.226  1.00  0.00     0.030 A 
HETATM   14  N   UNL     1      10.935  30.560  57.415  1.00  0.00    -0.364 N 
HETATM   15  H   UNL     1      11.824  31.021  57.277  1.00  0.00     0.165 HD
HETATM   16  C   UNL     1      10.503  29.457  56.731  1.00  0.00     0.102 A 
ENDBRANCH   6   7
ENDBRANCH   1   5
BRANCH   2  17
HETATM   17  C   UNL     1       5.856  25.243  54.362  1.00  0.00     0.224 C 
BRANCH  17  18
HETATM   18  N   UNL     1       6.429  24.211  53.493  1.00  0.00    -0.381 N 
HETATM   19  H   UNL     1       5.821  23.881  52.749  1.00  0.00     0.160 HD
BRANCH  18  20
HETATM   20  C   UNL     1       7.298  23.247  53.996  1.00  0.00     0.028 A 
HETATM   21  C   UNL     1       7.321  23.025  55.383  1.00  0.00     0.032 A 
HETATM   22  C   UNL     1       8.108  22.016  55.945  1.00  0.00     0.044 A 
HETATM   23  C   UNL     1       8.865  21.201  55.118  1.00  0.00     0.116 A 
HETATM   24  F   UNL     1       9.612  20.226  55.651  1.00  0.00    -0.206 F 
HETATM   25  C   UNL     1       8.842  21.374  53.743  1.00  0.00     0.044 A 
HETATM   26  C   UNL     1       8.054  22.387  53.186  1.00  0.00     0.032 A 
ENDBRANCH  18  20
ENDBRANCH  17  18
ENDBRANCH   2  17
TORSDOF 5
ENDMDL
MODEL 6
REMARK VINA RESULT:      -8.3      1.564      2.466
REMARK  5 active torsions:
REMARK  status: ('A' for Active; 'I' for Inactive)
REMARK    1  A    between atoms: C_8  and  C_9 
REMARK    2  A    between atoms: N_10  and  N_11 
REMARK       I    between atoms: N_11  and  C_12 
REMARK    3  A    between atoms: C_12  and  C_13 
REMARK    4  A    between atoms: C_13  and  N_14 
REMARK    5  A    between atoms: N_14  and  C_15 
ROOT
HETATM    1  N   UNL     1       7.295  28.966  58.509  1.00  0.00    -0.246 N 
HETATM    2  C   UNL     1       8.435  29.774  58.552  1.00  0.00     0.255 C 
HETATM    3  O   UNL     1       9.257  29.894  57.647  1.00  0.00    -0.270 OA
HETATM    4  H   UNL     1       6.530  29.203  59.135  1.00  0.00     0.192 HD
ENDROOT
BRANCH   1   5
HETATM    5  N   UNL     1       6.891  28.260  57.397  1.00  0.00    -0.184 NA
HETATM    6  C   UNL     1       7.134  26.986  57.380  1.00  0.00     0.152 C 
BRANCH   6   7
HETATM    7  C   UNL     1       6.790  26.200  56.213  1.00  0.00     0.011 A 
HETATM    8  C   UNL     1       7.439  25.005  55.761  1.00  0.00     0.004 A 
HETATM    9  C   UNL     1       8.522  24.234  56.235  1.00  0.00     0.014 A 
HETATM   10  C   UNL     1       6.791  24.591  54.595  1.00  0.00     0.043 A 
HETATM   11  C   UNL     1       8.914  23.088  55.534  1.00  0.00     0.001 A 
HETATM   12  C   UNL     1       8.246  22.703  54.374  1.00  0.00     0.002 A 
HETATM   13  C   UNL     1       7.171  23.449  53.882  1.00  0.00     0.030 A 
HETATM   14  N   UNL     1       5.787  25.499  54.347  1.00  0.00    -0.364 N 
HETATM   15  H   UNL     1       5.156  25.453  53.559  1.00  0.00     0.165 HD
HETATM   16  C   UNL     1       5.776  26.468  55.312  1.00  0.00     0.102 A 
ENDBRANCH   6   7
ENDBRANCH   1   5
BRANCH   2  17
HETATM   17  C   UNL     1       8.560  30.546  59.867  1.00  0.00     0.224 C 
BRANCH  17  18
HETATM   18  N   UNL     1       7.320  31.263  60.172  1.00  0.00    -0.381 N 
HETATM   19  H   UNL     1       6.847  31.675  59.372  1.00  0.00     0.160 HD
BRANCH  18  20
HETATM   20  C   UNL     1       7.172  31.976  61.358  1.00  0.00     0.028 A 
HETATM   21  C   UNL     1       8.141  31.811  62.362  1.00  0.00     0.032 A 
HETATM   22  C   UNL     1       8.100  32.558  63.543  1.00  0.00     0.044 A 
HETATM   23  C   UNL     1       7.098  33.499  63.719  1.00  0.00     0.116 A 
HETATM   24  F   UNL     1       7.060  34.225  64.844  1.00  0.00    -0.206 F 
HETATM   25  C   UNL     1       6.144  33.708  62.735  1.00  0.00     0.044 A 
HETATM   26  C   UNL     1       6.189  32.956  61.557  1.00  0.00     0.032 A 
ENDBRANCH  18  20
ENDBRANCH  17  18
ENDBRANCH   2  17
TORSDOF 5
ENDMDL
MODEL 7
REMARK VINA RESULT:      -8.2      4.106      9.311
REMARK  5 active torsions:
REMARK  status: ('A' for Active; 'I' for Inactive)
REMARK    1  A    between atoms: C_8  and  C_9 
REMARK    2  A    between atoms: N_10  and  N_11 
REMARK       I    between atoms: N_11  and  C_12 
REMARK    3  A    between atoms: C_12  and  C_13 
REMARK    4  A    between atoms: C_13  and  N_14 
REMARK    5  A    between atoms: N_14  and  C_15 
ROOT
HETATM    1  N   UNL     1       5.702  26.675  54.594  1.00  0.00    -0.246 N 
HETATM    2  C   UNL     1       6.596  26.070  53.705  1.00  0.00     0.255 C 
HETATM    3  O   UNL     1       7.669  26.545  53.341  1.00  0.00    -0.270 OA
HETATM    4  H   UNL     1       5.048  26.070  55.083  1.00  0.00     0.192 HD
ENDROOT
BRANCH   1   5
HETATM    5  N   UNL     1       5.952  27.856  55.256  1.00  0.00    -0.184 NA
HETATM    6  C   UNL     1       6.229  27.783  56.522  1.00  0.00     0.152 C 
BRANCH   6   7
HETATM    7  C   UNL     1       6.440  28.995  57.286  1.00  0.00     0.011 A 
HETATM    8  C   UNL     1       7.702  29.581  57.631  1.00  0.00     0.004 A 
HETATM    9  C   UNL     1       9.048  29.241  57.378  1.00  0.00     0.014 A 
HETATM   10  C   UNL     1       7.438  30.730  58.381  1.00  0.00     0.043 A 
HETATM   11  C   UNL     1      10.072  30.053  57.877  1.00  0.00     0.001 A 
HETATM   12  C   UNL     1       9.775  31.192  58.621  1.00  0.00     0.002 A 
HETATM   13  C   UNL     1       8.451  31.552  58.888  1.00  0.00     0.030 A 
HETATM   14  N   UNL     1       6.071  30.838  58.488  1.00  0.00    -0.364 N 
HETATM   15  H   UNL     1       5.592  31.577  58.985  1.00  0.00     0.165 HD
HETATM   16  C   UNL     1       5.461  29.804  57.832  1.00  0.00     0.102 A 
ENDBRANCH   6   7
ENDBRANCH   1   5
BRANCH   2  17
HETATM   17  C   UNL     1       6.113  24.699  53.227  1.00  0.00     0.224 C 
BRANCH  17  18
HETATM   18  N   UNL     1       7.244  23.859  52.824  1.00  0.00    -0.381 N 
HETATM   19  H   UNL     1       7.372  23.753  51.822  1.00  0.00     0.160 HD
BRANCH  18  20
HETATM   20  C   UNL     1       7.618  22.747  53.573  1.00  0.00     0.028 A 
HETATM   21  C   UNL     1       7.474  22.802  54.969  1.00  0.00     0.032 A 
HETATM   22  C   UNL     1       7.751  21.694  55.774  1.00  0.00     0.044 A 
HETATM   23  C   UNL     1       8.155  20.507  55.183  1.00  0.00     0.116 A 
HETATM   24  F   UNL     1       8.412  19.438  55.948  1.00  0.00    -0.206 F 
HETATM   25  C   UNL     1       8.279  20.410  53.805  1.00  0.00     0.044 A 
HETATM   26  C   UNL     1       8.002  21.524  53.006  1.00  0.00     0.032 A 
ENDBRANCH  18  20
ENDBRANCH  17  18
ENDBRANCH   2  17
TORSDOF 5
ENDMDL
MODEL 8
REMARK VINA RESULT:      -8.2      2.413      2.982
REMARK  5 active torsions:
REMARK  status: ('A' for Active; 'I' for Inactive)
REMARK    1  A    between atoms: C_8  and  C_9 
REMARK    2  A    between atoms: N_10  and  N_11 
REMARK       I    between atoms: N_11  and  C_12 
REMARK    3  A    between atoms: C_12  and  C_13 
REMARK    4  A    between atoms: C_13  and  N_14 
REMARK    5  A    between atoms: N_14  and  C_15 
ROOT
HETATM    1  N   UNL     1       6.594  29.048  54.835  1.00  0.00    -0.246 N 
HETATM    2  C   UNL     1       5.632  29.245  55.831  1.00  0.00     0.255 C 
HETATM    3  O   UNL     1       4.700  28.484  56.080  1.00  0.00    -0.270 OA
HETATM    4  H   UNL     1       7.483  29.528  54.943  1.00  0.00     0.192 HD
ENDROOT
BRANCH   1   5
HETATM    5  N   UNL     1       6.676  27.917  54.055  1.00  0.00    -0.184 NA
HETATM    6  C   UNL     1       7.370  26.923  54.517  1.00  0.00     0.152 C 
BRANCH   6   7
HETATM    7  C   UNL     1       7.544  25.729  53.715  1.00  0.00     0.011 A 
HETATM    8  C   UNL     1       7.617  24.379  54.191  1.00  0.00     0.004 A 
HETATM    9  C   UNL     1       7.546  23.780  55.467  1.00  0.00     0.014 A 
HETATM   10  C   UNL     1       7.801  23.553  53.080  1.00  0.00     0.043 A 
HETATM   11  C   UNL     1       7.659  22.390  55.586  1.00  0.00     0.001 A 
HETATM   12  C   UNL     1       7.842  21.595  54.458  1.00  0.00     0.002 A 
HETATM   13  C   UNL     1       7.918  22.162  53.182  1.00  0.00     0.030 A 
HETATM   14  N   UNL     1       7.840  24.367  51.972  1.00  0.00    -0.364 N 
HETATM   15  H   UNL     1       7.969  24.039  51.025  1.00  0.00     0.165 HD
HETATM   16  C   UNL     1       7.684  25.675  52.340  1.00  0.00     0.102 A 
ENDBRANCH   6   7
ENDBRANCH   1   5
BRANCH   2  17
HETATM   17  C   UNL     1       5.867  30.528  56.630  1.00  0.00     0.224 C 
BRANCH  17  18
HETATM   18  N   UNL     1       6.063  30.230  58.051  1.00  0.00    -0.381 N 
HETATM   19  H   UNL     1       5.213  30.138  58.599  1.00  0.00     0.160 HD
BRANCH  18  20
HETATM   20  C   UNL     1       7.147  30.751  58.753  1.00  0.00     0.028 A 
HETATM   21  C   UNL     1       6.924  31.833  59.620  1.00  0.00     0.032 A 
HETATM   22  C   UNL     1       7.948  32.350  60.418  1.00  0.00     0.044 A 
HETATM   23  C   UNL     1       9.206  31.769  60.372  1.00  0.00     0.116 A 
HETATM   24  F   UNL     1      10.189  32.254  61.141  1.00  0.00    -0.206 F 
HETATM   25  C   UNL     1       9.452  30.681  59.549  1.00  0.00     0.044 A 
HETATM   26  C   UNL     1       8.423  30.170  58.751  1.00  0.00     0.032 A 
ENDBRANCH  18  20
ENDBRANCH  17  18
ENDBRANCH   2  17
TORSDOF 5
ENDMDL
MODEL 9
REMARK VINA RESULT:      -8.0      3.872      8.973
REMARK  5 active torsions:
REMARK  status: ('A' for Active; 'I' for Inactive)
REMARK    1  A    between atoms: C_8  and  C_9 
REMARK    2  A    between atoms: N_10  and  N_11 
REMARK       I    between atoms: N_11  and  C_12 
REMARK    3  A    between atoms: C_12  and  C_13 
REMARK    4  A    between atoms: C_13  and  N_14 
REMARK    5  A    between atoms: N_14  and  C_15 
ROOT
HETATM    1  N   UNL     1       5.919  28.792  55.267  1.00  0.00    -0.246 N 
HETATM    2  C   UNL     1       6.069  28.037  54.099  1.00  0.00     0.255 C 
HETATM    3  O   UNL     1       7.054  28.051  53.364  1.00  0.00    -0.270 OA
HETATM    4  H   UNL     1       5.255  28.456  55.958  1.00  0.00     0.192 HD
ENDROOT
BRANCH   1   5
HETATM    5  N   UNL     1       6.905  29.591  55.800  1.00  0.00    -0.184 NA
HETATM    6  C   UNL     1       7.777  29.025  56.577  1.00  0.00     0.152 C 
BRANCH   6   7
HETATM    7  C   UNL     1       8.801  29.824  57.217  1.00  0.00     0.011 A 
HETATM    8  C   UNL     1       8.664  30.586  58.424  1.00  0.00     0.004 A 
HETATM    9  C   UNL     1       7.608  30.808  59.334  1.00  0.00     0.014 A 
HETATM   10  C   UNL     1       9.890  31.208  58.667  1.00  0.00     0.043 A 
HETATM   11  C   UNL     1       7.814  31.635  60.444  1.00  0.00     0.001 A 
HETATM   12  C   UNL     1       9.050  32.240  60.657  1.00  0.00     0.002 A 
HETATM   13  C   UNL     1      10.113  32.039  59.772  1.00  0.00     0.030 A 
HETATM   14  N   UNL     1      10.740  30.840  57.649  1.00  0.00    -0.364 N 
HETATM   15  H   UNL     1      11.699  31.149  57.564  1.00  0.00     0.165 HD
HETATM   16  C   UNL     1      10.097  30.008  56.774  1.00  0.00     0.102 A 
ENDBRANCH   6   7
ENDBRANCH   1   5
BRANCH   2  17
HETATM   17  C   UNL     1       4.863  27.138  53.821  1.00  0.00     0.224 C 
BRANCH  17  18
HETATM   18  N   UNL     1       4.997  25.854  54.514  1.00  0.00    -0.381 N 
HETATM   19  H   UNL     1       4.644  25.835  55.467  1.00  0.00     0.160 HD
BRANCH  18  20
HETATM   20  C   UNL     1       6.090  25.024  54.288  1.00  0.00     0.028 A 
HETATM   21  C   UNL     1       6.758  24.480  55.397  1.00  0.00     0.032 A 
HETATM   22  C   UNL     1       7.811  23.574  55.241  1.00  0.00     0.044 A 
HETATM   23  C   UNL     1       8.189  23.182  53.966  1.00  0.00     0.116 A 
HETATM   24  F   UNL     1       9.189  22.305  53.811  1.00  0.00    -0.206 F 
HETATM   25  C   UNL     1       7.530  23.676  52.851  1.00  0.00     0.044 A 
HETATM   26  C   UNL     1       6.480  24.585  53.014  1.00  0.00     0.032 A 
ENDBRANCH  18  20
ENDBRANCH  17  18
ENDBRANCH   2  17
TORSDOF 5
ENDMDL
MODEL 10
REMARK VINA RESULT:      -7.8      2.503      3.867
REMARK  5 active torsions:
REMARK  status: ('A' for Active; 'I' for Inactive)
REMARK    1  A    between atoms: C_8  and  C_9 
REMARK    2  A    between atoms: N_10  and  N_11 
REMARK       I    between atoms: N_11  and  C_12 
REMARK    3  A    between atoms: C_12  and  C_13 
REMARK    4  A    between atoms: C_13  and  N_14 
REMARK    5  A    between atoms: N_14  and  C_15 
ROOT
HETATM    1  N   UNL     1       7.247  30.552  58.966  1.00  0.00    -0.246 N 
HETATM    2  C   UNL     1       8.262  30.807  59.892  1.00  0.00     0.255 C 
HETATM    3  O   UNL     1       9.103  29.995  60.270  1.00  0.00    -0.270 OA
HETATM    4  H   UNL     1       6.848  31.349  58.477  1.00  0.00     0.192 HD
ENDROOT
BRANCH   1   5
HETATM    5  N   UNL     1       7.112  29.367  58.278  1.00  0.00    -0.184 NA
HETATM    6  C   UNL     1       6.146  29.285  57.415  1.00  0.00     0.152 C 
BRANCH   6   7
HETATM    7  C   UNL     1       5.914  28.044  56.705  1.00  0.00     0.011 A 
HETATM    8  C   UNL     1       6.730  26.866  56.748  1.00  0.00     0.004 A 
HETATM    9  C   UNL     1       7.918  26.516  57.425  1.00  0.00     0.014 A 
HETATM   10  C   UNL     1       6.143  25.920  55.906  1.00  0.00     0.043 A 
HETATM   11  C   UNL     1       8.471  25.244  57.239  1.00  0.00     0.001 A 
HETATM   12  C   UNL     1       7.860  24.323  56.391  1.00  0.00     0.002 A 
HETATM   13  C   UNL     1       6.684  24.644  55.707  1.00  0.00     0.030 A 
HETATM   14  N   UNL     1       5.016  26.498  55.371  1.00  0.00    -0.364 N 
HETATM   15  H   UNL     1       4.394  26.042  54.718  1.00  0.00     0.165 HD
HETATM   16  C   UNL     1       4.867  27.772  55.845  1.00  0.00     0.102 A 
ENDBRANCH   6   7
ENDBRANCH   1   5
BRANCH   2  17
HETATM   17  C   UNL     1       8.248  32.252  60.396  1.00  0.00     0.224 C 
BRANCH  17  18
HETATM   18  N   UNL     1       8.549  32.309  61.829  1.00  0.00    -0.381 N 
HETATM   19  H   UNL     1       9.298  31.698  62.142  1.00  0.00     0.160 HD
BRANCH  18  20
HETATM   20  C   UNL     1       7.543  32.513  62.769  1.00  0.00     0.028 A 
HETATM   21  C   UNL     1       7.888  33.086  64.004  1.00  0.00     0.032 A 
HETATM   22  C   UNL     1       6.916  33.396  64.960  1.00  0.00     0.044 A 
HETATM   23  C   UNL     1       5.581  33.156  64.676  1.00  0.00     0.116 A 
HETATM   24  F   UNL     1       4.644  33.461  65.584  1.00  0.00    -0.206 F 
HETATM   25  C   UNL     1       5.203  32.619  63.454  1.00  0.00     0.044 A 
HETATM   26  C   UNL     1       6.181  32.309  62.503  1.00  0.00     0.032 A 
ENDBRANCH  18  20
ENDBRANCH  17  18
ENDBRANCH   2  17
TORSDOF 5
ENDMDL
