MODEL 1
REMARK VINA RESULT:      -8.4      0.000      0.000
REMARK  6 active torsions:
REMARK  status: ('A' for Active; 'I' for Inactive)
REMARK    1  A    between atoms: C_8  and  N_9 
REMARK       I    between atoms: N_9  and  C_10 
REMARK    2  A    between atoms: C_10  and  C_11 
REMARK    3  A    between atoms: C_11  and  N_12 
REMARK    4  A    between atoms: N_12  and  C_13 
REMARK    5  A    between atoms: C_13  and  C_14 
REMARK    6  A    between atoms: C_13  and  C_17 
ROOT
HETATM    1  C   UNL     1       6.619  27.334  56.907  1.00  0.00     0.372 C 
ENDROOT
BRANCH   1   2
HETATM    2  C   UNL     1       7.073  28.796  56.986  1.00  0.00     0.250 C 
HETATM    3  N   UNL     1       8.026  28.981  57.966  1.00  0.00    -0.322 N 
HETATM    4  H   UNL     1       8.181  28.181  58.570  1.00  0.00     0.169 HD
HETATM    5  O   UNL     1       6.629  29.634  56.209  1.00  0.00    -0.271 OA
BRANCH   3   6
HETATM    6  C   UNL     1       8.748  30.129  58.242  1.00  0.00     0.085 A 
HETATM    7  C   UNL     1      10.012  30.331  57.716  1.00  0.00     0.052 A 
HETATM    8  C   UNL     1      10.868  29.515  56.824  1.00  0.00     0.072 C 
HETATM    9  N   UNL     1      10.419  31.548  58.179  1.00  0.00    -0.280 N 
HETATM   10  H   UNL     1      11.295  32.027  57.998  1.00  0.00     0.189 HD
HETATM   11  N   UNL     1       9.523  32.159  58.956  1.00  0.00    -0.177 NA
HETATM   12  C   UNL     1       8.487  31.307  59.003  1.00  0.00     0.079 A 
HETATM   13  C   UNL     1       7.296  31.705  59.795  1.00  0.00     0.075 C 
ENDBRANCH   3   6
ENDBRANCH   1   2
BRANCH   1  14
HETATM   14  N   UNL     1       7.682  26.507  56.304  1.00  0.00     0.101 N 
HETATM   15  H   UNL     1       7.790  25.667  56.873  1.00  0.00     0.317 HD
BRANCH  14  16
HETATM   16  C   UNL     1       7.356  26.122  54.911  1.00  0.00     0.259 C 
BRANCH  16  17
HETATM   17  C   UNL     1       5.927  26.546  54.439  1.00  0.00     0.015 C 
HETATM   18  C   UNL     1       5.901  27.611  53.334  1.00  0.00     0.012 C 
HETATM   19  C   UNL     1       5.089  25.342  53.994  1.00  0.00     0.012 C 
ENDBRANCH  16  17
BRANCH  16  20
HETATM   20  C   UNL     1       7.586  24.624  54.691  1.00  0.00    -0.003 A 
HETATM   21  C   UNL     1       7.925  24.097  53.429  1.00  0.00     0.042 A 
HETATM   22 CL   UNL     1       8.144  25.098  52.034  1.00  0.00    -0.084 Cl
HETATM   23  C   UNL     1       8.092  22.718  53.247  1.00  0.00     0.024 A 
HETATM   24  C   UNL     1       7.918  21.840  54.313  1.00  0.00     0.002 A 
HETATM   25  C   UNL     1       7.578  22.335  55.566  1.00  0.00     0.001 A 
HETATM   26  C   UNL     1       7.415  23.711  55.753  1.00  0.00     0.011 A 
ENDBRANCH  16  20
ENDBRANCH  14  16
ENDBRANCH   1  14
TORSDOF 6
ENDMDL
MODEL 2
REMARK VINA RESULT:      -8.1      3.012      7.535
REMARK  6 active torsions:
REMARK  status: ('A' for Active; 'I' for Inactive)
REMARK    1  A    between atoms: C_8  and  N_9 
REMARK       I    between atoms: N_9  and  C_10 
REMARK    2  A    between atoms: C_10  and  C_11 
REMARK    3  A    between atoms: C_11  and  N_12 
REMARK    4  A    between atoms: N_12  and  C_13 
REMARK    5  A    between atoms: C_13  and  C_14 
REMARK    6  A    between atoms: C_13  and  C_17 
ROOT
HETATM    1  C   UNL     1       7.449  25.748  57.333  1.00  0.00     0.372 C 
ENDROOT
BRANCH   1   2
HETATM    2  C   UNL     1       6.976  24.803  56.223  1.00  0.00     0.250 C 
HETATM    3  N   UNL     1       7.995  23.983  55.783  1.00  0.00    -0.322 N 
HETATM    4  H   UNL     1       8.916  24.212  56.143  1.00  0.00     0.169 HD
HETATM    5  O   UNL     1       5.806  24.802  55.855  1.00  0.00    -0.271 OA
BRANCH   3   6
HETATM    6  C   UNL     1       7.912  22.932  54.887  1.00  0.00     0.085 A 
HETATM    7  C   UNL     1       7.885  23.148  53.521  1.00  0.00     0.052 A 
HETATM    8  C   UNL     1       7.931  24.380  52.701  1.00  0.00     0.072 C 
HETATM    9  N   UNL     1       7.810  21.911  52.949  1.00  0.00    -0.280 N 
HETATM   10  H   UNL     1       7.773  21.678  51.961  1.00  0.00     0.189 HD
HETATM   11  N   UNL     1       7.794  20.908  53.827  1.00  0.00    -0.177 NA
HETATM   12  C   UNL     1       7.862  21.512  55.024  1.00  0.00     0.079 A 
HETATM   13  C   UNL     1       7.876  20.655  56.236  1.00  0.00     0.075 C 
ENDBRANCH   3   6
ENDBRANCH   1   2
BRANCH   1  14
HETATM   14  N   UNL     1       8.361  26.766  56.775  1.00  0.00     0.101 N 
HETATM   15  H   UNL     1       8.585  26.498  55.816  1.00  0.00     0.317 HD
BRANCH  14  16
HETATM   16  C   UNL     1       7.750  28.116  56.781  1.00  0.00     0.259 C 
BRANCH  16  17
HETATM   17  C   UNL     1       7.099  28.538  55.424  1.00  0.00     0.015 C 
HETATM   18  C   UNL     1       7.686  27.850  54.184  1.00  0.00     0.012 C 
HETATM   19  C   UNL     1       5.578  28.345  55.432  1.00  0.00     0.012 C 
ENDBRANCH  16  17
BRANCH  16  20
HETATM   20  C   UNL     1       8.755  29.167  57.261  1.00  0.00    -0.003 A 
HETATM   21  C   UNL     1       8.361  30.281  58.030  1.00  0.00     0.042 A 
HETATM   22 CL   UNL     1       6.723  30.534  58.524  1.00  0.00    -0.084 Cl
HETATM   23  C   UNL     1       9.294  31.248  58.423  1.00  0.00     0.024 A 
HETATM   24  C   UNL     1      10.632  31.130  58.053  1.00  0.00     0.002 A 
HETATM   25  C   UNL     1      11.042  30.043  57.290  1.00  0.00     0.001 A 
HETATM   26  C   UNL     1      10.115  29.073  56.900  1.00  0.00     0.011 A 
ENDBRANCH  16  20
ENDBRANCH  14  16
ENDBRANCH   1  14
TORSDOF 6
ENDMDL
MODEL 3
REMARK VINA RESULT:      -7.9      3.771      4.597
REMARK  6 active torsions:
REMARK  status: ('A' for Active; 'I' for Inactive)
REMARK    1  A    between atoms: C_8  and  N_9 
REMARK       I    between atoms: N_9  and  C_10 
REMARK    2  A    between atoms: C_10  and  C_11 
REMARK    3  A    between atoms: C_11  and  N_12 
REMARK    4  A    between atoms: N_12  and  C_13 
REMARK    5  A    between atoms: C_13  and  C_14 
REMARK    6  A    between atoms: C_13  and  C_17 
ROOT
HETATM    1  C   UNL     1       6.461  25.704  56.130  1.00  0.00     0.372 C 
ENDROOT
BRANCH   1   2
HETATM    2  C   UNL     1       6.156  27.013  55.393  1.00  0.00     0.250 C 
HETATM    3  N   UNL     1       4.847  27.408  55.576  1.00  0.00    -0.322 N 
HETATM    4  H   UNL     1       4.254  26.726  56.038  1.00  0.00     0.169 HD
HETATM    5  O   UNL     1       7.034  27.603  54.772  1.00  0.00    -0.271 OA
BRANCH   3   6
HETATM    6  C   UNL     1       4.251  28.588  55.168  1.00  0.00     0.085 A 
HETATM    7  C   UNL     1       3.847  28.777  53.858  1.00  0.00     0.052 A 
HETATM    8  C   UNL     1       3.908  27.914  52.656  1.00  0.00     0.072 C 
HETATM    9  N   UNL     1       3.302  30.027  53.813  1.00  0.00    -0.280 N 
HETATM   10  H   UNL     1       2.898  30.507  53.014  1.00  0.00     0.189 HD
HETATM   11  N   UNL     1       3.310  30.665  54.984  1.00  0.00    -0.177 NA
HETATM   12  C   UNL     1       3.884  29.796  55.832  1.00  0.00     0.079 A 
HETATM   13  C   UNL     1       4.035  30.207  57.251  1.00  0.00     0.075 C 
ENDBRANCH   3   6
ENDBRANCH   1   2
BRANCH   1  14
HETATM   14  N   UNL     1       6.141  24.551  55.266  1.00  0.00     0.101 N 
HETATM   15  H   UNL     1       5.355  24.812  54.669  1.00  0.00     0.317 HD
BRANCH  14  16
HETATM   16  C   UNL     1       7.294  24.158  54.423  1.00  0.00     0.259 C 
BRANCH  16  17
HETATM   17  C   UNL     1       7.058  24.323  52.886  1.00  0.00     0.015 C 
HETATM   18  C   UNL     1       5.633  24.732  52.491  1.00  0.00     0.012 C 
HETATM   19  C   UNL     1       8.055  25.302  52.254  1.00  0.00     0.012 C 
ENDBRANCH  16  17
BRANCH  16  20
HETATM   20  C   UNL     1       7.757  22.738  54.760  1.00  0.00    -0.003 A 
HETATM   21  C   UNL     1       8.361  22.421  55.993  1.00  0.00     0.042 A 
HETATM   22 CL   UNL     1       8.597  23.599  57.239  1.00  0.00    -0.084 Cl
HETATM   23  C   UNL     1       8.810  21.122  56.261  1.00  0.00     0.024 A 
HETATM   24  C   UNL     1       8.673  20.117  55.306  1.00  0.00     0.002 A 
HETATM   25  C   UNL     1       8.086  20.407  54.081  1.00  0.00     0.001 A 
HETATM   26  C   UNL     1       7.632  21.701  53.811  1.00  0.00     0.011 A 
ENDBRANCH  16  20
ENDBRANCH  14  16
ENDBRANCH   1  14
TORSDOF 6
ENDMDL
MODEL 4
REMARK VINA RESULT:      -7.9      1.530      2.291
REMARK  6 active torsions:
REMARK  status: ('A' for Active; 'I' for Inactive)
REMARK    1  A    between atoms: C_8  and  N_9 
REMARK       I    between atoms: N_9  and  C_10 
REMARK    2  A    between atoms: C_10  and  C_11 
REMARK    3  A    between atoms: C_11  and  N_12 
REMARK    4  A    between atoms: N_12  and  C_13 
REMARK    5  A    between atoms: C_13  and  C_14 
REMARK    6  A    between atoms: C_13  and  C_17 
ROOT
HETATM    1  C   UNL     1       8.783  26.746  57.011  1.00  0.00     0.372 C 
ENDROOT
BRANCH   1   2
HETATM    2  C   UNL     1       8.226  28.158  56.794  1.00  0.00     0.250 C 
HETATM    3  N   UNL     1       7.783  28.717  57.975  1.00  0.00    -0.322 N 
HETATM    4  H   UNL     1       7.757  28.083  58.767  1.00  0.00     0.169 HD
HETATM    5  O   UNL     1       8.247  28.677  55.684  1.00  0.00    -0.271 OA
BRANCH   3   6
HETATM    6  C   UNL     1       7.334  30.009  58.186  1.00  0.00     0.085 A 
HETATM    7  C   UNL     1       6.035  30.380  57.887  1.00  0.00     0.052 A 
HETATM    8  C   UNL     1       4.882  29.633  57.332  1.00  0.00     0.072 C 
HETATM    9  N   UNL     1       5.937  31.699  58.223  1.00  0.00    -0.280 N 
HETATM   10  H   UNL     1       5.129  32.308  58.144  1.00  0.00     0.189 HD
HETATM   11  N   UNL     1       7.060  32.216  58.724  1.00  0.00    -0.177 NA
HETATM   12  C   UNL     1       7.930  31.193  58.715  1.00  0.00     0.079 A 
HETATM   13  C   UNL     1       9.299  31.441  59.232  1.00  0.00     0.075 C 
ENDBRANCH   3   6
ENDBRANCH   1   2
BRANCH   1  14
HETATM   14  N   UNL     1       7.686  25.759  56.975  1.00  0.00     0.101 N 
HETATM   15  H   UNL     1       6.953  26.079  57.609  1.00  0.00     0.317 HD
BRANCH  14  16
HETATM   16  C   UNL     1       7.128  25.605  55.611  1.00  0.00     0.259 C 
BRANCH  16  17
HETATM   17  C   UNL     1       5.585  25.841  55.512  1.00  0.00     0.015 C 
HETATM   18  C   UNL     1       4.865  25.978  56.860  1.00  0.00     0.012 C 
HETATM   19  C   UNL     1       5.245  27.053  54.636  1.00  0.00     0.012 C 
ENDBRANCH  16  17
BRANCH  16  20
HETATM   20  C   UNL     1       7.518  24.251  55.012  1.00  0.00    -0.003 A 
HETATM   21  C   UNL     1       7.874  24.108  53.656  1.00  0.00     0.042 A 
HETATM   22 CL   UNL     1       7.936  25.451  52.567  1.00  0.00    -0.084 Cl
HETATM   23  C   UNL     1       8.189  22.851  53.124  1.00  0.00     0.024 A 
HETATM   24  C   UNL     1       8.148  21.715  53.928  1.00  0.00     0.002 A 
HETATM   25  C   UNL     1       7.793  21.830  55.267  1.00  0.00     0.001 A 
HETATM   26  C   UNL     1       7.483  23.083  55.803  1.00  0.00     0.011 A 
ENDBRANCH  16  20
ENDBRANCH  14  16
ENDBRANCH   1  14
TORSDOF 6
ENDMDL
MODEL 5
REMARK VINA RESULT:      -7.8      2.101      3.155
REMARK  6 active torsions:
REMARK  status: ('A' for Active; 'I' for Inactive)
REMARK    1  A    between atoms: C_8  and  N_9 
REMARK       I    between atoms: N_9  and  C_10 
REMARK    2  A    between atoms: C_10  and  C_11 
REMARK    3  A    between atoms: C_11  and  N_12 
REMARK    4  A    between atoms: N_12  and  C_13 
REMARK    5  A    between atoms: C_13  and  C_14 
REMARK    6  A    between atoms: C_13  and  C_17 
ROOT
HETATM    1  C   UNL     1       7.620  26.684  55.402  1.00  0.00     0.372 C 
ENDROOT
BRANCH   1   2
HETATM    2  C   UNL     1       7.495  27.437  56.731  1.00  0.00     0.250 C 
HETATM    3  N   UNL     1       7.311  28.790  56.535  1.00  0.00    -0.322 N 
HETATM    4  H   UNL     1       7.424  29.104  55.577  1.00  0.00     0.169 HD
HETATM    5  O   UNL     1       7.520  26.834  57.799  1.00  0.00    -0.271 OA
BRANCH   3   6
HETATM    6  C   UNL     1       7.040  29.757  57.487  1.00  0.00     0.085 A 
HETATM    7  C   UNL     1       5.751  30.207  57.712  1.00  0.00     0.052 A 
HETATM    8  C   UNL     1       4.447  29.856  57.106  1.00  0.00     0.072 C 
HETATM    9  N   UNL     1       5.849  31.136  58.708  1.00  0.00    -0.280 N 
HETATM   10  H   UNL     1       5.105  31.678  59.136  1.00  0.00     0.189 HD
HETATM   11  N   UNL     1       7.092  31.322  59.155  1.00  0.00    -0.177 NA
HETATM   12  C   UNL     1       7.839  30.480  58.423  1.00  0.00     0.079 A 
HETATM   13  C   UNL     1       9.298  30.435  58.689  1.00  0.00     0.075 C 
ENDBRANCH   3   6
ENDBRANCH   1   2
BRANCH   1  14
HETATM   14  N   UNL     1       7.165  25.289  55.567  1.00  0.00     0.101 N 
HETATM   15  H   UNL     1       6.154  25.268  55.433  1.00  0.00     0.317 HD
BRANCH  14  16
HETATM   16  C   UNL     1       7.813  24.380  54.592  1.00  0.00     0.259 C 
BRANCH  16  17
HETATM   17  C   UNL     1       7.139  24.360  53.180  1.00  0.00     0.015 C 
HETATM   18  C   UNL     1       5.675  24.818  53.157  1.00  0.00     0.012 C 
HETATM   19  C   UNL     1       7.936  25.172  52.153  1.00  0.00     0.012 C 
ENDBRANCH  16  17
BRANCH  16  20
HETATM   20  C   UNL     1       7.936  22.965  55.164  1.00  0.00    -0.003 A 
HETATM   21  C   UNL     1       8.415  22.725  56.467  1.00  0.00     0.042 A 
HETATM   22 CL   UNL     1       8.868  24.006  57.539  1.00  0.00    -0.084 Cl
HETATM   23  C   UNL     1       8.555  21.419  56.953  1.00  0.00     0.024 A 
HETATM   24  C   UNL     1       8.228  20.329  56.149  1.00  0.00     0.002 A 
HETATM   25  C   UNL     1       7.760  20.541  54.858  1.00  0.00     0.001 A 
HETATM   26  C   UNL     1       7.614  21.843  54.372  1.00  0.00     0.011 A 
ENDBRANCH  16  20
ENDBRANCH  14  16
ENDBRANCH   1  14
TORSDOF 6
ENDMDL
MODEL 6
REMARK VINA RESULT:      -7.8      4.525      7.520
REMARK  6 active torsions:
REMARK  status: ('A' for Active; 'I' for Inactive)
REMARK    1  A    between atoms: C_8  and  N_9 
REMARK       I    between atoms: N_9  and  C_10 
REMARK    2  A    between atoms: C_10  and  C_11 
REMARK    3  A    between atoms: C_11  and  N_12 
REMARK    4  A    between atoms: N_12  and  C_13 
REMARK    5  A    between atoms: C_13  and  C_14 
REMARK    6  A    between atoms: C_13  and  C_17 
ROOT
HETATM    1  C   UNL     1       4.557  26.443  52.938  1.00  0.00     0.372 C 
ENDROOT
BRANCH   1   2
HETATM    2  C   UNL     1       5.006  26.274  51.482  1.00  0.00     0.250 C 
HETATM    3  N   UNL     1       4.124  26.871  50.604  1.00  0.00    -0.322 N 
HETATM    4  H   UNL     1       3.260  27.200  51.022  1.00  0.00     0.169 HD
HETATM    5  O   UNL     1       6.057  25.704  51.212  1.00  0.00    -0.271 OA
BRANCH   3   6
HETATM    6  C   UNL     1       4.263  27.025  49.236  1.00  0.00     0.085 A 
HETATM    7  C   UNL     1       4.968  28.087  48.698  1.00  0.00     0.052 A 
HETATM    8  C   UNL     1       5.692  29.224  49.312  1.00  0.00     0.072 C 
HETATM    9  N   UNL     1       4.910  27.925  47.344  1.00  0.00    -0.280 N 
HETATM   10  H   UNL     1       5.318  28.513  46.624  1.00  0.00     0.189 HD
HETATM   11  N   UNL     1       4.234  26.843  46.956  1.00  0.00    -0.177 NA
HETATM   12  C   UNL     1       3.832  26.272  48.103  1.00  0.00     0.079 A 
HETATM   13  C   UNL     1       3.048  25.015  48.017  1.00  0.00     0.075 C 
ENDBRANCH   3   6
ENDBRANCH   1   2
BRANCH   1  14
HETATM   14  N   UNL     1       4.786  25.191  53.686  1.00  0.00     0.101 N 
HETATM   15  H   UNL     1       5.016  24.459  53.013  1.00  0.00     0.317 HD
BRANCH  14  16
HETATM   16  C   UNL     1       5.890  25.329  54.665  1.00  0.00     0.259 C 
BRANCH  16  17
HETATM   17  C   UNL     1       6.592  26.726  54.656  1.00  0.00     0.015 C 
HETATM   18  C   UNL     1       6.758  27.374  56.037  1.00  0.00     0.012 C 
HETATM   19  C   UNL     1       7.956  26.678  53.957  1.00  0.00     0.012 C 
ENDBRANCH  16  17
BRANCH  16  20
HETATM   20  C   UNL     1       6.910  24.199  54.499  1.00  0.00    -0.003 A 
HETATM   21  C   UNL     1       7.703  23.746  55.572  1.00  0.00     0.042 A 
HETATM   22 CL   UNL     1       7.567  24.401  57.168  1.00  0.00    -0.084 Cl
HETATM   23  C   UNL     1       8.656  22.737  55.385  1.00  0.00     0.024 A 
HETATM   24  C   UNL     1       8.842  22.166  54.127  1.00  0.00     0.002 A 
HETATM   25  C   UNL     1       8.075  22.601  53.053  1.00  0.00     0.001 A 
HETATM   26  C   UNL     1       7.120  23.604  53.237  1.00  0.00     0.011 A 
ENDBRANCH  16  20
ENDBRANCH  14  16
ENDBRANCH   1  14
TORSDOF 6
ENDMDL
MODEL 7
REMARK VINA RESULT:      -7.8      3.852      7.045
REMARK  6 active torsions:
REMARK  status: ('A' for Active; 'I' for Inactive)
REMARK    1  A    between atoms: C_8  and  N_9 
REMARK       I    between atoms: N_9  and  C_10 
REMARK    2  A    between atoms: C_10  and  C_11 
REMARK    3  A    between atoms: C_11  and  N_12 
REMARK    4  A    between atoms: N_12  and  C_13 
REMARK    5  A    between atoms: C_13  and  C_14 
REMARK    6  A    between atoms: C_13  and  C_17 
ROOT
HETATM    1  C   UNL     1       5.843  25.152  52.884  1.00  0.00     0.372 C 
ENDROOT
BRANCH   1   2
HETATM    2  C   UNL     1       7.077  24.283  53.149  1.00  0.00     0.250 C 
HETATM    3  N   UNL     1       6.898  23.464  54.245  1.00  0.00    -0.322 N 
HETATM    4  H   UNL     1       6.060  23.650  54.786  1.00  0.00     0.169 HD
HETATM    5  O   UNL     1       8.051  24.334  52.406  1.00  0.00    -0.271 OA
BRANCH   3   6
HETATM    6  C   UNL     1       7.739  22.468  54.707  1.00  0.00     0.085 A 
HETATM    7  C   UNL     1       8.344  22.552  55.948  1.00  0.00     0.052 A 
HETATM    8  C   UNL     1       8.294  23.573  57.020  1.00  0.00     0.072 C 
HETATM    9  N   UNL     1       9.085  21.413  56.080  1.00  0.00    -0.280 N 
HETATM   10  H   UNL     1       9.663  21.129  56.864  1.00  0.00     0.189 HD
HETATM   11  N   UNL     1       9.007  20.592  55.032  1.00  0.00    -0.177 NA
HETATM   12  C   UNL     1       8.181  21.218  54.179  1.00  0.00     0.079 A 
HETATM   13  C   UNL     1       7.871  20.546  52.892  1.00  0.00     0.075 C 
ENDBRANCH   3   6
ENDBRANCH   1   2
BRANCH   1  14
HETATM   14  N   UNL     1       6.182  26.578  53.059  1.00  0.00     0.101 N 
HETATM   15  H   UNL     1       5.857  27.085  52.234  1.00  0.00     0.317 HD
BRANCH  14  16
HETATM   16  C   UNL     1       5.549  27.150  54.271  1.00  0.00     0.259 C 
BRANCH  16  17
HETATM   17  C   UNL     1       4.651  28.402  54.003  1.00  0.00     0.015 C 
HETATM   18  C   UNL     1       3.552  28.197  52.952  1.00  0.00     0.012 C 
HETATM   19  C   UNL     1       4.019  28.941  55.292  1.00  0.00     0.012 C 
ENDBRANCH  16  17
BRANCH  16  20
HETATM   20  C   UNL     1       6.598  27.444  55.347  1.00  0.00    -0.003 A 
HETATM   21  C   UNL     1       6.558  26.834  56.616  1.00  0.00     0.042 A 
HETATM   22 CL   UNL     1       5.345  25.678  57.052  1.00  0.00    -0.084 Cl
HETATM   23  C   UNL     1       7.507  27.149  57.596  1.00  0.00     0.024 A 
HETATM   24  C   UNL     1       8.508  28.082  57.334  1.00  0.00     0.002 A 
HETATM   25  C   UNL     1       8.564  28.701  56.092  1.00  0.00     0.001 A 
HETATM   26  C   UNL     1       7.622  28.386  55.110  1.00  0.00     0.011 A 
ENDBRANCH  16  20
ENDBRANCH  14  16
ENDBRANCH   1  14
TORSDOF 6
ENDMDL
MODEL 8
REMARK VINA RESULT:      -7.6      2.840      7.077
REMARK  6 active torsions:
REMARK  status: ('A' for Active; 'I' for Inactive)
REMARK    1  A    between atoms: C_8  and  N_9 
REMARK       I    between atoms: N_9  and  C_10 
REMARK    2  A    between atoms: C_10  and  C_11 
REMARK    3  A    between atoms: C_11  and  N_12 
REMARK    4  A    between atoms: N_12  and  C_13 
REMARK    5  A    between atoms: C_13  and  C_14 
REMARK    6  A    between atoms: C_13  and  C_17 
ROOT
HETATM    1  C   UNL     1       8.185  25.646  57.598  1.00  0.00     0.372 C 
ENDROOT
BRANCH   1   2
HETATM    2  C   UNL     1       7.509  24.749  56.556  1.00  0.00     0.250 C 
HETATM    3  N   UNL     1       8.433  24.029  55.827  1.00  0.00    -0.322 N 
HETATM    4  H   UNL     1       9.401  24.294  55.981  1.00  0.00     0.169 HD
HETATM    5  O   UNL     1       6.287  24.698  56.470  1.00  0.00    -0.271 OA
BRANCH   3   6
HETATM    6  C   UNL     1       8.191  23.038  54.893  1.00  0.00     0.085 A 
HETATM    7  C   UNL     1       8.136  21.703  55.254  1.00  0.00     0.052 A 
HETATM    8  C   UNL     1       8.290  21.010  56.554  1.00  0.00     0.072 C 
HETATM    9  N   UNL     1       7.875  21.016  54.105  1.00  0.00    -0.280 N 
HETATM   10  H   UNL     1       7.764  20.014  53.984  1.00  0.00     0.189 HD
HETATM   11  N   UNL     1       7.749  21.791  53.026  1.00  0.00    -0.177 NA
HETATM   12  C   UNL     1       7.934  23.038  53.489  1.00  0.00     0.079 A 
HETATM   13  C   UNL     1       7.843  24.159  52.521  1.00  0.00     0.075 C 
ENDBRANCH   3   6
ENDBRANCH   1   2
BRANCH   1  14
HETATM   14  N   UNL     1       7.552  26.980  57.604  1.00  0.00     0.101 N 
HETATM   15  H   UNL     1       7.711  27.402  58.519  1.00  0.00     0.317 HD
BRANCH  14  16
HETATM   16  C   UNL     1       8.112  27.859  56.550  1.00  0.00     0.259 C 
BRANCH  16  17
HETATM   17  C   UNL     1       8.643  29.235  57.070  1.00  0.00     0.015 C 
HETATM   18  C   UNL     1       8.310  29.544  58.535  1.00  0.00     0.012 C 
HETATM   19  C   UNL     1      10.154  29.384  56.857  1.00  0.00     0.012 C 
ENDBRANCH  16  17
BRANCH  16  20
HETATM   20  C   UNL     1       7.108  28.052  55.410  1.00  0.00    -0.003 A 
HETATM   21  C   UNL     1       5.777  28.453  55.646  1.00  0.00     0.042 A 
HETATM   22 CL   UNL     1       5.180  28.795  57.234  1.00  0.00    -0.084 Cl
HETATM   23  C   UNL     1       4.868  28.585  54.589  1.00  0.00     0.024 A 
HETATM   24  C   UNL     1       5.263  28.313  53.281  1.00  0.00     0.002 A 
HETATM   25  C   UNL     1       6.567  27.910  53.025  1.00  0.00     0.001 A 
HETATM   26  C   UNL     1       7.479  27.782  54.076  1.00  0.00     0.011 A 
ENDBRANCH  16  20
ENDBRANCH  14  16
ENDBRANCH   1  14
TORSDOF 6
ENDMDL
MODEL 9
REMARK VINA RESULT:      -7.6      5.574      8.569
REMARK  6 active torsions:
REMARK  status: ('A' for Active; 'I' for Inactive)
REMARK    1  A    between atoms: C_8  and  N_9 
REMARK       I    between atoms: N_9  and  C_10 
REMARK    2  A    between atoms: C_10  and  C_11 
REMARK    3  A    between atoms: C_11  and  N_12 
REMARK    4  A    between atoms: N_12  and  C_13 
REMARK    5  A    between atoms: C_13  and  C_14 
REMARK    6  A    between atoms: C_13  and  C_17 
ROOT
HETATM    1  C   UNL     1       4.821  27.952  51.271  1.00  0.00     0.372 C 
ENDROOT
BRANCH   1   2
HETATM    2  C   UNL     1       4.446  27.853  49.789  1.00  0.00     0.250 C 
HETATM    3  N   UNL     1       3.117  27.523  49.620  1.00  0.00    -0.322 N 
HETATM    4  H   UNL     1       2.629  27.261  50.471  1.00  0.00     0.169 HD
HETATM    5  O   UNL     1       5.271  28.096  48.915  1.00  0.00    -0.271 OA
BRANCH   3   6
HETATM    6  C   UNL     1       2.400  27.465  48.439  1.00  0.00     0.085 A 
HETATM    7  C   UNL     1       2.398  26.328  47.650  1.00  0.00     0.052 A 
HETATM    8  C   UNL     1       3.058  25.009  47.792  1.00  0.00     0.072 C 
HETATM    9  N   UNL     1       1.594  26.613  46.585  1.00  0.00    -0.280 N 
HETATM   10  H   UNL     1       1.356  26.015  45.800  1.00  0.00     0.189 HD
HETATM   11  N   UNL     1       1.065  27.838  46.618  1.00  0.00    -0.177 NA
HETATM   12  C   UNL     1       1.543  28.376  47.751  1.00  0.00     0.079 A 
HETATM   13  C   UNL     1       1.124  29.758  48.094  1.00  0.00     0.075 C 
ENDBRANCH   3   6
ENDBRANCH   1   2
BRANCH   1  14
HETATM   14  N   UNL     1       4.653  26.639  51.924  1.00  0.00     0.101 N 
HETATM   15  H   UNL     1       5.101  25.934  51.336  1.00  0.00     0.317 HD
BRANCH  14  16
HETATM   16  C   UNL     1       5.260  26.614  53.276  1.00  0.00     0.259 C 
BRANCH  16  17
HETATM   17  C   UNL     1       5.979  27.940  53.687  1.00  0.00     0.015 C 
HETATM   18  C   UNL     1       5.410  28.622  54.938  1.00  0.00     0.012 C 
HETATM   19  C   UNL     1       7.489  27.742  53.866  1.00  0.00     0.012 C 
ENDBRANCH  16  17
BRANCH  16  20
HETATM   20  C   UNL     1       6.193  25.410  53.432  1.00  0.00    -0.003 A 
HETATM   21  C   UNL     1       6.347  24.739  54.662  1.00  0.00     0.042 A 
HETATM   22 CL   UNL     1       5.472  25.196  56.084  1.00  0.00    -0.084 Cl
HETATM   23  C   UNL     1       7.236  23.665  54.789  1.00  0.00     0.024 A 
HETATM   24  C   UNL     1       7.992  23.243  53.698  1.00  0.00     0.002 A 
HETATM   25  C   UNL     1       7.862  23.892  52.476  1.00  0.00     0.001 A 
HETATM   26  C   UNL     1       6.972  24.962  52.345  1.00  0.00     0.011 A 
ENDBRANCH  16  20
ENDBRANCH  14  16
ENDBRANCH   1  14
TORSDOF 6
ENDMDL
MODEL 10
REMARK VINA RESULT:      -7.6      4.414      7.800
REMARK  6 active torsions:
REMARK  status: ('A' for Active; 'I' for Inactive)
REMARK    1  A    between atoms: C_8  and  N_9 
REMARK       I    between atoms: N_9  and  C_10 
REMARK    2  A    between atoms: C_10  and  C_11 
REMARK    3  A    between atoms: C_11  and  N_12 
REMARK    4  A    between atoms: N_12  and  C_13 
REMARK    5  A    between atoms: C_13  and  C_14 
REMARK    6  A    between atoms: C_13  and  C_17 
ROOT
HETATM    1  C   UNL     1       6.743  25.319  51.726  1.00  0.00     0.372 C 
ENDROOT
BRANCH   1   2
HETATM    2  C   UNL     1       5.601  26.235  51.273  1.00  0.00     0.250 C 
HETATM    3  N   UNL     1       5.598  26.408  49.904  1.00  0.00    -0.322 N 
HETATM    4  H   UNL     1       6.410  26.035  49.423  1.00  0.00     0.169 HD
HETATM    5  O   UNL     1       4.799  26.685  52.084  1.00  0.00    -0.271 OA
BRANCH   3   6
HETATM    6  C   UNL     1       4.654  27.063  49.134  1.00  0.00     0.085 A 
HETATM    7  C   UNL     1       4.658  28.440  49.002  1.00  0.00     0.052 A 
HETATM    8  C   UNL     1       5.537  29.497  49.554  1.00  0.00     0.072 C 
HETATM    9  N   UNL     1       3.612  28.740  48.178  1.00  0.00    -0.280 N 
HETATM   10  H   UNL     1       3.309  29.653  47.856  1.00  0.00     0.189 HD
HETATM   11  N   UNL     1       2.932  27.673  47.756  1.00  0.00    -0.177 NA
HETATM   12  C   UNL     1       3.559  26.631  48.327  1.00  0.00     0.079 A 
HETATM   13  C   UNL     1       3.043  25.269  48.042  1.00  0.00     0.075 C 
ENDBRANCH   3   6
ENDBRANCH   1   2
BRANCH   1  14
HETATM   14  N   UNL     1       6.304  24.487  52.863  1.00  0.00     0.101 N 
HETATM   15  H   UNL     1       6.325  23.510  52.567  1.00  0.00     0.317 HD
BRANCH  14  16
HETATM   16  C   UNL     1       7.178  24.665  54.046  1.00  0.00     0.259 C 
BRANCH  16  17
HETATM   17  C   UNL     1       7.635  23.330  54.720  1.00  0.00     0.015 C 
HETATM   18  C   UNL     1       7.830  22.153  53.756  1.00  0.00     0.012 C 
HETATM   19  C   UNL     1       8.910  23.514  55.552  1.00  0.00     0.012 C 
ENDBRANCH  16  17
BRANCH  16  20
HETATM   20  C   UNL     1       6.529  25.604  55.067  1.00  0.00    -0.003 A 
HETATM   21  C   UNL     1       6.821  26.982  55.106  1.00  0.00     0.042 A 
HETATM   22 CL   UNL     1       7.906  27.732  53.986  1.00  0.00    -0.084 Cl
HETATM   23  C   UNL     1       6.244  27.812  56.075  1.00  0.00     0.024 A 
HETATM   24  C   UNL     1       5.372  27.286  57.025  1.00  0.00     0.002 A 
HETATM   25  C   UNL     1       5.073  25.929  57.010  1.00  0.00     0.001 A 
HETATM   26  C   UNL     1       5.644  25.098  56.042  1.00  0.00     0.011 A 
ENDBRANCH  16  20
ENDBRANCH  14  16
ENDBRANCH   1  14
TORSDOF 6
ENDMDL
