MODEL 1
REMARK VINA RESULT:     -11.0      0.000      0.000
REMARK  9 active torsions:
REMARK  status: ('A' for Active; 'I' for Inactive)
REMARK    1  A    between atoms: O_2  and  C_3 
REMARK    2  A    between atoms: C_6  and  N_7 
REMARK    3  A    between atoms: N_10  and  C_12 
REMARK    4  A    between atoms: C_12  and  C_13 
REMARK    5  A    between atoms: C_13  and  C_14 
REMARK    6  A    between atoms: C_14  and  N_15 
REMARK       I    between atoms: N_15  and  C_16 
REMARK    7  A    between atoms: C_16  and  C_17 
REMARK    8  A    between atoms: C_17  and  C_18 
REMARK    9  A    between atoms: C_18  and  C_19 
ROOT
HETATM    1  N   UNL     1       7.992  30.322  59.716  1.00  0.00    -0.361 N 
HETATM    2  C   UNL     1       9.039  31.108  60.155  1.00  0.00     0.217 C 
HETATM    3  O   UNL     1       9.590  31.944  59.443  1.00  0.00    -0.274 OA
HETATM    4  H   UNL     1       7.741  29.521  60.286  1.00  0.00     0.162 HD
ENDROOT
BRANCH   1   5
HETATM    5  C   UNL     1       7.679  30.249  58.305  1.00  0.00     0.124 C 
BRANCH   5   6
HETATM    6  C   UNL     1       8.414  29.108  57.604  1.00  0.00     0.047 C 
BRANCH   6   7
HETATM    7  C   UNL     1       8.401  29.314  56.096  1.00  0.00     0.236 C 
BRANCH   7   8
HETATM    8  N   UNL     1       7.359  28.427  55.451  1.00  0.00    -0.068 N 
HETATM    9  C   UNL     1       7.737  27.983  54.029  1.00  0.00     0.254 C 
HETATM   10  C   UNL     1       6.612  27.115  53.421  1.00  0.00     0.150 C 
HETATM   11  N   UNL     1       6.270  25.978  54.296  1.00  0.00    -0.378 N 
HETATM   12  C   UNL     1       5.918  26.363  55.679  1.00  0.00     0.150 C 
HETATM   13  C   UNL     1       7.050  27.198  56.316  1.00  0.00     0.254 C 
HETATM   14  H   UNL     1       6.484  28.961  55.377  1.00  0.00     0.280 HD
BRANCH  11  15
HETATM   15  C   UNL     1       6.883  24.735  54.122  1.00  0.00     0.030 A 
HETATM   16  C   UNL     1       7.400  24.293  52.897  1.00  0.00     0.032 A 
HETATM   17  C   UNL     1       8.013  23.038  52.769  1.00  0.00     0.039 A 
HETATM   18  C   UNL     1       8.116  22.176  53.857  1.00  0.00     0.068 A 
HETATM   19  C   UNL     1       7.578  22.574  55.074  1.00  0.00     0.039 A 
HETATM   20  C   UNL     1       6.968  23.831  55.196  1.00  0.00     0.032 A 
BRANCH  18  21
HETATM   21  O   UNL     1       8.741  20.991  53.596  1.00  0.00    -0.356 OA
HETATM   22  C   UNL     1       8.754  20.024  54.640  1.00  0.00     0.210 C 
ENDBRANCH  18  21
ENDBRANCH  11  15
ENDBRANCH   7   8
ENDBRANCH   6   7
ENDBRANCH   5   6
ENDBRANCH   1   5
BRANCH   2  23
HETATM   23  C   UNL     1       9.486  30.829  61.574  1.00  0.00     0.105 C 
BRANCH  23  24
HETATM   24  C   UNL     1       8.382  31.036  62.619  1.00  0.00     0.046 C 
BRANCH  24  25
HETATM   25  C   UNL     1       7.828  32.458  62.740  1.00  0.00     0.203 A 
HETATM   26  N   UNL     1       7.775  32.889  64.153  1.00  0.00    -0.257 NA
HETATM   27  C   UNL     1       6.543  33.266  64.324  1.00  0.00     0.147 A 
HETATM   28  N   UNL     1       5.684  33.144  63.270  1.00  0.00    -0.239 N 
HETATM   29  C   UNL     1       6.031  33.802  65.588  1.00  0.00     0.037 A 
HETATM   30  C   UNL     1       4.321  33.452  63.327  1.00  0.00     0.187 A 
HETATM   31  C   UNL     1       6.412  32.622  62.220  1.00  0.00     0.257 A 
HETATM   32  S   UNL     1       3.181  33.245  62.114  1.00  0.00    -0.040 SA
HETATM   33  N   UNL     1       3.871  33.974  64.520  1.00  0.00    -0.332 N 
HETATM   34  C   UNL     1       4.684  34.156  65.643  1.00  0.00     0.048 A 
HETATM   35  H   UNL     1       2.889  34.224  64.572  1.00  0.00     0.168 HD
HETATM   36  C   UNL     1       4.149  34.683  66.817  1.00  0.00     0.030 A 
HETATM   37  C   UNL     1       4.971  34.854  67.933  1.00  0.00     0.002 A 
HETATM   38  C   UNL     1       6.321  34.497  67.876  1.00  0.00     0.001 A 
HETATM   39  C   UNL     1       6.856  33.970  66.701  1.00  0.00     0.017 A 
HETATM   40  O   UNL     1       6.057  32.303  61.094  1.00  0.00    -0.270 OA
ENDBRANCH  24  25
ENDBRANCH  23  24
ENDBRANCH   2  23
TORSDOF 9
ENDMDL
MODEL 2
REMARK VINA RESULT:     -10.2      3.256     12.360
REMARK  9 active torsions:
REMARK  status: ('A' for Active; 'I' for Inactive)
REMARK    1  A    between atoms: O_2  and  C_3 
REMARK    2  A    between atoms: C_6  and  N_7 
REMARK    3  A    between atoms: N_10  and  C_12 
REMARK    4  A    between atoms: C_12  and  C_13 
REMARK    5  A    between atoms: C_13  and  C_14 
REMARK    6  A    between atoms: C_14  and  N_15 
REMARK       I    between atoms: N_15  and  C_16 
REMARK    7  A    between atoms: C_16  and  C_17 
REMARK    8  A    between atoms: C_17  and  C_18 
REMARK    9  A    between atoms: C_18  and  C_19 
ROOT
HETATM    1  N   UNL     1       9.468  30.109  58.122  1.00  0.00    -0.361 N 
HETATM    2  C   UNL     1       9.710  29.617  56.855  1.00  0.00     0.217 C 
HETATM    3  O   UNL     1      10.564  30.087  56.107  1.00  0.00    -0.274 OA
HETATM    4  H   UNL     1       8.615  29.809  58.582  1.00  0.00     0.162 HD
ENDROOT
BRANCH   1   5
HETATM    5  C   UNL     1      10.020  31.385  58.524  1.00  0.00     0.124 C 
BRANCH   5   6
HETATM    6  C   UNL     1       9.388  31.912  59.811  1.00  0.00     0.047 C 
BRANCH   6   7
HETATM    7  C   UNL     1       8.764  30.771  60.602  1.00  0.00     0.236 C 
BRANCH   7   8
HETATM    8  N   UNL     1       7.341  31.113  60.988  1.00  0.00    -0.068 N 
HETATM    9  C   UNL     1       7.182  31.449  62.480  1.00  0.00     0.254 C 
HETATM   10  C   UNL     1       5.702  31.749  62.807  1.00  0.00     0.150 C 
HETATM   11  N   UNL     1       5.153  32.800  61.929  1.00  0.00    -0.378 N 
HETATM   12  C   UNL     1       5.304  32.521  60.485  1.00  0.00     0.150 C 
HETATM   13  C   UNL     1       6.784  32.259  60.132  1.00  0.00     0.254 C 
HETATM   14  H   UNL     1       6.751  30.293  60.799  1.00  0.00     0.280 HD
BRANCH  11  15
HETATM   15  C   UNL     1       5.177  34.140  62.320  1.00  0.00     0.030 A 
HETATM   16  C   UNL     1       4.800  35.197  61.481  1.00  0.00     0.032 A 
HETATM   17  C   UNL     1       4.834  36.529  61.918  1.00  0.00     0.039 A 
HETATM   18  C   UNL     1       5.262  36.852  63.203  1.00  0.00     0.068 A 
HETATM   19  C   UNL     1       5.677  35.827  64.043  1.00  0.00     0.039 A 
HETATM   20  C   UNL     1       5.638  34.496  63.600  1.00  0.00     0.032 A 
BRANCH  18  21
HETATM   21  O   UNL     1       5.238  38.183  63.501  1.00  0.00    -0.356 OA
HETATM   22  C   UNL     1       6.481  38.875  63.465  1.00  0.00     0.210 C 
ENDBRANCH  18  21
ENDBRANCH  11  15
ENDBRANCH   7   8
ENDBRANCH   6   7
ENDBRANCH   5   6
ENDBRANCH   1   5
BRANCH   2  23
HETATM   23  C   UNL     1       8.807  28.475  56.438  1.00  0.00     0.105 C 
BRANCH  23  24
HETATM   24  C   UNL     1       7.932  27.936  57.576  1.00  0.00     0.046 C 
BRANCH  24  25
HETATM   25  C   UNL     1       7.035  26.746  57.229  1.00  0.00     0.203 A 
HETATM   26  N   UNL     1       7.840  25.551  56.897  1.00  0.00    -0.257 NA
HETATM   27  C   UNL     1       7.399  25.183  55.732  1.00  0.00     0.147 A 
HETATM   28  N   UNL     1       6.423  25.941  55.148  1.00  0.00    -0.239 N 
HETATM   29  C   UNL     1       7.898  24.008  55.012  1.00  0.00     0.037 A 
HETATM   30  C   UNL     1       5.897  25.701  53.874  1.00  0.00     0.187 A 
HETATM   31  C   UNL     1       6.140  26.969  56.024  1.00  0.00     0.257 A 
HETATM   32  S   UNL     1       4.772  26.630  53.048  1.00  0.00    -0.040 SA
HETATM   33  N   UNL     1       6.369  24.578  53.230  1.00  0.00    -0.332 N 
HETATM   34  C   UNL     1       7.348  23.732  53.762  1.00  0.00     0.048 A 
HETATM   35  H   UNL     1       5.982  24.376  52.315  1.00  0.00     0.168 HD
HETATM   36  C   UNL     1       7.778  22.620  53.042  1.00  0.00     0.030 A 
HETATM   37  C   UNL     1       8.761  21.787  53.582  1.00  0.00     0.002 A 
HETATM   38  C   UNL     1       9.312  22.066  54.835  1.00  0.00     0.001 A 
HETATM   39  C   UNL     1       8.881  23.180  55.556  1.00  0.00     0.017 A 
HETATM   40  O   UNL     1       5.370  27.913  55.911  1.00  0.00    -0.270 OA
ENDBRANCH  24  25
ENDBRANCH  23  24
ENDBRANCH   2  23
TORSDOF 9
ENDMDL
MODEL 3
REMARK VINA RESULT:      -9.8      4.916     11.674
REMARK  9 active torsions:
REMARK  status: ('A' for Active; 'I' for Inactive)
REMARK    1  A    between atoms: O_2  and  C_3 
REMARK    2  A    between atoms: C_6  and  N_7 
REMARK    3  A    between atoms: N_10  and  C_12 
REMARK    4  A    between atoms: C_12  and  C_13 
REMARK    5  A    between atoms: C_13  and  C_14 
REMARK    6  A    between atoms: C_14  and  N_15 
REMARK       I    between atoms: N_15  and  C_16 
REMARK    7  A    between atoms: C_16  and  C_17 
REMARK    8  A    between atoms: C_17  and  C_18 
REMARK    9  A    between atoms: C_18  and  C_19 
ROOT
HETATM    1  N   UNL     1       5.097  28.642  50.685  1.00  0.00    -0.361 N 
HETATM    2  C   UNL     1       4.730  27.403  50.199  1.00  0.00     0.217 C 
HETATM    3  O   UNL     1       3.798  27.243  49.415  1.00  0.00    -0.274 OA
HETATM    4  H   UNL     1       5.727  28.662  51.481  1.00  0.00     0.162 HD
ENDROOT
BRANCH   1   5
HETATM    5  C   UNL     1       4.220  29.781  50.512  1.00  0.00     0.124 C 
BRANCH   5   6
HETATM    6  C   UNL     1       3.249  29.950  51.679  1.00  0.00     0.047 C 
BRANCH   6   7
HETATM    7  C   UNL     1       3.798  30.951  52.687  1.00  0.00     0.236 C 
BRANCH   7   8
HETATM    8  N   UNL     1       3.579  30.452  54.099  1.00  0.00    -0.068 N 
HETATM    9  C   UNL     1       4.423  29.214  54.442  1.00  0.00     0.254 C 
HETATM   10  C   UNL     1       4.120  28.740  55.880  1.00  0.00     0.150 C 
HETATM   11  N   UNL     1       4.291  29.830  56.859  1.00  0.00    -0.378 N 
HETATM   12  C   UNL     1       3.508  31.046  56.554  1.00  0.00     0.150 C 
HETATM   13  C   UNL     1       3.829  31.558  55.133  1.00  0.00     0.254 C 
HETATM   14  H   UNL     1       2.592  30.180  54.194  1.00  0.00     0.280 HD
BRANCH  11  15
HETATM   15  C   UNL     1       5.508  30.011  57.520  1.00  0.00     0.030 A 
HETATM   16  C   UNL     1       6.521  29.043  57.552  1.00  0.00     0.032 A 
HETATM   17  C   UNL     1       7.731  29.270  58.223  1.00  0.00     0.039 A 
HETATM   18  C   UNL     1       7.964  30.464  58.899  1.00  0.00     0.068 A 
HETATM   19  C   UNL     1       6.962  31.425  58.915  1.00  0.00     0.039 A 
HETATM   20  C   UNL     1       5.754  31.193  58.239  1.00  0.00     0.032 A 
BRANCH  18  21
HETATM   21  O   UNL     1       9.184  30.556  59.503  1.00  0.00    -0.356 OA
HETATM   22  C   UNL     1       9.194  30.765  60.910  1.00  0.00     0.210 C 
ENDBRANCH  18  21
ENDBRANCH  11  15
ENDBRANCH   7   8
ENDBRANCH   6   7
ENDBRANCH   5   6
ENDBRANCH   1   5
BRANCH   2  23
HETATM   23  C   UNL     1       5.542  26.246  50.742  1.00  0.00     0.105 C 
BRANCH  23  24
HETATM   24  C   UNL     1       5.784  26.321  52.254  1.00  0.00     0.046 C 
BRANCH  24  25
HETATM   25  C   UNL     1       7.171  25.891  52.736  1.00  0.00     0.203 A 
HETATM   26  N   UNL     1       7.387  24.445  52.513  1.00  0.00    -0.257 NA
HETATM   27  C   UNL     1       7.733  23.991  53.680  1.00  0.00     0.147 A 
HETATM   28  N   UNL     1       7.771  24.872  54.724  1.00  0.00    -0.239 N 
HETATM   29  C   UNL     1       8.075  22.589  53.933  1.00  0.00     0.037 A 
HETATM   30  C   UNL     1       8.067  24.515  56.044  1.00  0.00     0.187 A 
HETATM   31  C   UNL     1       7.412  26.104  54.219  1.00  0.00     0.257 A 
HETATM   32  S   UNL     1       8.044  25.508  57.394  1.00  0.00    -0.040 SA
HETATM   33  N   UNL     1       8.405  23.195  56.249  1.00  0.00    -0.332 N 
HETATM   34  C   UNL     1       8.417  22.231  55.235  1.00  0.00     0.048 A 
HETATM   35  H   UNL     1       8.645  22.923  57.196  1.00  0.00     0.168 HD
HETATM   36  C   UNL     1       8.763  20.913  55.528  1.00  0.00     0.030 A 
HETATM   37  C   UNL     1       8.764  19.958  54.508  1.00  0.00     0.002 A 
HETATM   38  C   UNL     1       8.420  20.319  53.203  1.00  0.00     0.001 A 
HETATM   39  C   UNL     1       8.074  21.639  52.911  1.00  0.00     0.017 A 
HETATM   40  O   UNL     1       7.264  27.178  54.786  1.00  0.00    -0.270 OA
ENDBRANCH  24  25
ENDBRANCH  23  24
ENDBRANCH   2  23
TORSDOF 9
ENDMDL
MODEL 4
REMARK VINA RESULT:      -9.8      2.227      3.552
REMARK  9 active torsions:
REMARK  status: ('A' for Active; 'I' for Inactive)
REMARK    1  A    between atoms: O_2  and  C_3 
REMARK    2  A    between atoms: C_6  and  N_7 
REMARK    3  A    between atoms: N_10  and  C_12 
REMARK    4  A    between atoms: C_12  and  C_13 
REMARK    5  A    between atoms: C_13  and  C_14 
REMARK    6  A    between atoms: C_14  and  N_15 
REMARK       I    between atoms: N_15  and  C_16 
REMARK    7  A    between atoms: C_16  and  C_17 
REMARK    8  A    between atoms: C_17  and  C_18 
REMARK    9  A    between atoms: C_18  and  C_19 
ROOT
HETATM    1  N   UNL     1       9.056  30.425  58.830  1.00  0.00    -0.361 N 
HETATM    2  C   UNL     1       9.810  31.566  59.022  1.00  0.00     0.217 C 
HETATM    3  O   UNL     1      10.638  31.964  58.206  1.00  0.00    -0.274 OA
HETATM    4  H   UNL     1       8.562  30.054  59.634  1.00  0.00     0.162 HD
ENDROOT
BRANCH   1   5
HETATM    5  C   UNL     1       9.407  29.489  57.783  1.00  0.00     0.124 C 
BRANCH   5   6
HETATM    6  C   UNL     1       8.231  28.602  57.379  1.00  0.00     0.047 C 
BRANCH   6   7
HETATM    7  C   UNL     1       7.188  29.414  56.625  1.00  0.00     0.236 C 
BRANCH   7   8
HETATM    8  N   UNL     1       6.464  28.541  55.622  1.00  0.00    -0.068 N 
HETATM    9  C   UNL     1       7.290  28.260  54.356  1.00  0.00     0.254 C 
HETATM   10  C   UNL     1       6.475  27.398  53.365  1.00  0.00     0.150 C 
HETATM   11  N   UNL     1       5.976  26.165  54.001  1.00  0.00    -0.378 N 
HETATM   12  C   UNL     1       5.191  26.393  55.232  1.00  0.00     0.150 C 
HETATM   13  C   UNL     1       6.006  27.219  56.251  1.00  0.00     0.254 C 
HETATM   14  H   UNL     1       5.613  29.034  55.323  1.00  0.00     0.280 HD
BRANCH  11  15
HETATM   15  C   UNL     1       6.710  24.978  53.929  1.00  0.00     0.030 A 
HETATM   16  C   UNL     1       7.331  24.524  52.758  1.00  0.00     0.032 A 
HETATM   17  C   UNL     1       8.063  23.328  52.733  1.00  0.00     0.039 A 
HETATM   18  C   UNL     1       8.186  22.538  53.872  1.00  0.00     0.068 A 
HETATM   19  C   UNL     1       7.549  22.946  55.037  1.00  0.00     0.039 A 
HETATM   20  C   UNL     1       6.820  24.145  55.056  1.00  0.00     0.032 A 
BRANCH  18  21
HETATM   21  O   UNL     1       8.931  21.406  53.711  1.00  0.00    -0.356 OA
HETATM   22  C   UNL     1       8.372  20.374  52.907  1.00  0.00     0.210 C 
ENDBRANCH  18  21
ENDBRANCH  11  15
ENDBRANCH   7   8
ENDBRANCH   6   7
ENDBRANCH   5   6
ENDBRANCH   1   5
BRANCH   2  23
HETATM   23  C   UNL     1       9.569  32.268  60.341  1.00  0.00     0.105 C 
BRANCH  23  24
HETATM   24  C   UNL     1       9.120  31.327  61.465  1.00  0.00     0.046 C 
BRANCH  24  25
HETATM   25  C   UNL     1       7.635  31.379  61.834  1.00  0.00     0.203 A 
HETATM   26  N   UNL     1       6.800  31.640  60.642  1.00  0.00    -0.257 NA
HETATM   27  C   UNL     1       6.085  32.673  60.974  1.00  0.00     0.147 A 
HETATM   28  N   UNL     1       6.292  33.225  62.206  1.00  0.00    -0.239 N 
HETATM   29  C   UNL     1       5.079  33.276  60.095  1.00  0.00     0.037 A 
HETATM   30  C   UNL     1       5.640  34.372  62.673  1.00  0.00     0.187 A 
HETATM   31  C   UNL     1       7.274  32.476  62.819  1.00  0.00     0.257 A 
HETATM   32  S   UNL     1       5.900  35.167  64.126  1.00  0.00    -0.040 SA
HETATM   33  N   UNL     1       4.686  34.905  61.835  1.00  0.00    -0.332 N 
HETATM   34  C   UNL     1       4.391  34.391  60.568  1.00  0.00     0.048 A 
HETATM   35  H   UNL     1       4.187  35.723  62.167  1.00  0.00     0.168 HD
HETATM   36  C   UNL     1       3.416  34.995  59.777  1.00  0.00     0.030 A 
HETATM   37  C   UNL     1       3.136  34.475  58.511  1.00  0.00     0.002 A 
HETATM   38  C   UNL     1       3.829  33.358  58.038  1.00  0.00     0.001 A 
HETATM   39  C   UNL     1       4.804  32.753  58.830  1.00  0.00     0.017 A 
HETATM   40  O   UNL     1       7.815  32.620  63.907  1.00  0.00    -0.270 OA
ENDBRANCH  24  25
ENDBRANCH  23  24
ENDBRANCH   2  23
TORSDOF 9
ENDMDL
MODEL 5
REMARK VINA RESULT:      -9.7      2.843     12.344
REMARK  9 active torsions:
REMARK  status: ('A' for Active; 'I' for Inactive)
REMARK    1  A    between atoms: O_2  and  C_3 
REMARK    2  A    between atoms: C_6  and  N_7 
REMARK    3  A    between atoms: N_10  and  C_12 
REMARK    4  A    between atoms: C_12  and  C_13 
REMARK    5  A    between atoms: C_13  and  C_14 
REMARK    6  A    between atoms: C_14  and  N_15 
REMARK       I    between atoms: N_15  and  C_16 
REMARK    7  A    between atoms: C_16  and  C_17 
REMARK    8  A    between atoms: C_17  and  C_18 
REMARK    9  A    between atoms: C_18  and  C_19 
ROOT
HETATM    1  N   UNL     1       6.135  31.126  58.736  1.00  0.00    -0.361 N 
HETATM    2  C   UNL     1       7.475  31.238  59.048  1.00  0.00     0.217 C 
HETATM    3  O   UNL     1       8.050  32.320  59.145  1.00  0.00    -0.274 OA
HETATM    4  H   UNL     1       5.795  30.208  58.468  1.00  0.00     0.162 HD
ENDROOT
BRANCH   1   5
HETATM    5  C   UNL     1       5.407  32.271  58.232  1.00  0.00     0.124 C 
BRANCH   5   6
HETATM    6  C   UNL     1       3.965  32.310  58.734  1.00  0.00     0.047 C 
BRANCH   6   7
HETATM    7  C   UNL     1       3.923  32.132  60.245  1.00  0.00     0.236 C 
BRANCH   7   8
HETATM    8  N   UNL     1       4.567  33.316  60.934  1.00  0.00    -0.068 N 
HETATM    9  C   UNL     1       3.567  34.175  61.723  1.00  0.00     0.254 C 
HETATM   10  C   UNL     1       4.287  35.383  62.364  1.00  0.00     0.150 C 
HETATM   11  N   UNL     1       5.437  34.957  63.184  1.00  0.00    -0.378 N 
HETATM   12  C   UNL     1       6.413  34.113  62.464  1.00  0.00     0.150 C 
HETATM   13  C   UNL     1       5.718  32.879  61.851  1.00  0.00     0.254 C 
HETATM   14  H   UNL     1       4.981  33.920  60.213  1.00  0.00     0.280 HD
BRANCH  11  15
HETATM   15  C   UNL     1       5.290  34.727  64.554  1.00  0.00     0.030 A 
HETATM   16  C   UNL     1       4.104  34.980  65.257  1.00  0.00     0.032 A 
HETATM   17  C   UNL     1       4.000  34.729  66.632  1.00  0.00     0.039 A 
HETATM   18  C   UNL     1       5.080  34.232  67.355  1.00  0.00     0.068 A 
HETATM   19  C   UNL     1       6.279  34.009  66.691  1.00  0.00     0.039 A 
HETATM   20  C   UNL     1       6.376  34.260  65.314  1.00  0.00     0.032 A 
BRANCH  18  21
HETATM   21  O   UNL     1       4.840  34.027  68.683  1.00  0.00    -0.356 OA
HETATM   22  C   UNL     1       5.974  33.864  69.527  1.00  0.00     0.210 C 
ENDBRANCH  18  21
ENDBRANCH  11  15
ENDBRANCH   7   8
ENDBRANCH   6   7
ENDBRANCH   5   6
ENDBRANCH   1   5
BRANCH   2  23
HETATM   23  C   UNL     1       8.196  29.918  59.219  1.00  0.00     0.105 C 
BRANCH  23  24
HETATM   24  C   UNL     1       8.288  29.095  57.929  1.00  0.00     0.046 C 
BRANCH  24  25
HETATM   25  C   UNL     1       7.256  27.976  57.769  1.00  0.00     0.203 A 
HETATM   26  N   UNL     1       7.913  26.685  57.474  1.00  0.00    -0.257 NA
HETATM   27  C   UNL     1       7.329  26.271  56.390  1.00  0.00     0.147 A 
HETATM   28  N   UNL     1       6.375  27.072  55.831  1.00  0.00    -0.239 N 
HETATM   29  C   UNL     1       7.647  24.998  55.735  1.00  0.00     0.037 A 
HETATM   30  C   UNL     1       5.709  26.785  54.635  1.00  0.00     0.187 A 
HETATM   31  C   UNL     1       6.273  28.190  56.633  1.00  0.00     0.257 A 
HETATM   32  S   UNL     1       4.598  27.753  53.833  1.00  0.00    -0.040 SA
HETATM   33  N   UNL     1       6.012  25.574  54.053  1.00  0.00    -0.332 N 
HETATM   34  C   UNL     1       6.956  24.680  54.569  1.00  0.00     0.048 A 
HETATM   35  H   UNL     1       5.521  25.338  53.197  1.00  0.00     0.168 HD
HETATM   36  C   UNL     1       7.211  23.476  53.914  1.00  0.00     0.030 A 
HETATM   37  C   UNL     1       8.161  22.596  54.436  1.00  0.00     0.002 A 
HETATM   38  C   UNL     1       8.854  22.918  55.606  1.00  0.00     0.001 A 
HETATM   39  C   UNL     1       8.598  24.122  56.261  1.00  0.00     0.017 A 
HETATM   40  O   UNL     1       5.585  29.194  56.507  1.00  0.00    -0.270 OA
ENDBRANCH  24  25
ENDBRANCH  23  24
ENDBRANCH   2  23
TORSDOF 9
ENDMDL
MODEL 6
REMARK VINA RESULT:      -9.7      2.649      3.078
REMARK  9 active torsions:
REMARK  status: ('A' for Active; 'I' for Inactive)
REMARK    1  A    between atoms: O_2  and  C_3 
REMARK    2  A    between atoms: C_6  and  N_7 
REMARK    3  A    between atoms: N_10  and  C_12 
REMARK    4  A    between atoms: C_12  and  C_13 
REMARK    5  A    between atoms: C_13  and  C_14 
REMARK    6  A    between atoms: C_14  and  N_15 
REMARK       I    between atoms: N_15  and  C_16 
REMARK    7  A    between atoms: C_16  and  C_17 
REMARK    8  A    between atoms: C_17  and  C_18 
REMARK    9  A    between atoms: C_18  and  C_19 
ROOT
HETATM    1  N   UNL     1       7.406  30.803  59.607  1.00  0.00    -0.361 N 
HETATM    2  C   UNL     1       7.058  32.127  59.785  1.00  0.00     0.217 C 
HETATM    3  O   UNL     1       6.478  32.786  58.925  1.00  0.00    -0.274 OA
HETATM    4  H   UNL     1       8.062  30.402  60.268  1.00  0.00     0.162 HD
ENDROOT
BRANCH   1   5
HETATM    5  C   UNL     1       7.354  30.208  58.288  1.00  0.00     0.124 C 
BRANCH   5   6
HETATM    6  C   UNL     1       8.743  29.878  57.744  1.00  0.00     0.047 C 
BRANCH   6   7
HETATM    7  C   UNL     1       8.642  29.324  56.330  1.00  0.00     0.236 C 
BRANCH   7   8
HETATM    8  N   UNL     1       7.588  28.240  56.261  1.00  0.00    -0.068 N 
HETATM    9  C   UNL     1       7.246  27.818  54.824  1.00  0.00     0.254 C 
HETATM   10  C   UNL     1       6.139  26.740  54.831  1.00  0.00     0.150 C 
HETATM   11  N   UNL     1       6.503  25.593  55.685  1.00  0.00    -0.378 N 
HETATM   12  C   UNL     1       6.857  25.961  57.072  1.00  0.00     0.150 C 
HETATM   13  C   UNL     1       7.991  27.009  57.085  1.00  0.00     0.254 C 
HETATM   14  H   UNL     1       6.725  28.605  56.683  1.00  0.00     0.280 HD
BRANCH  11  15
HETATM   15  C   UNL     1       7.142  24.475  55.144  1.00  0.00     0.030 A 
HETATM   16  C   UNL     1       7.587  24.407  53.817  1.00  0.00     0.032 A 
HETATM   17  C   UNL     1       8.229  23.265  53.317  1.00  0.00     0.039 A 
HETATM   18  C   UNL     1       8.434  22.147  54.120  1.00  0.00     0.068 A 
HETATM   19  C   UNL     1       7.969  22.174  55.428  1.00  0.00     0.039 A 
HETATM   20  C   UNL     1       7.329  23.321  55.924  1.00  0.00     0.032 A 
BRANCH  18  21
HETATM   21  O   UNL     1       9.077  21.109  53.511  1.00  0.00    -0.356 OA
HETATM   22  C   UNL     1       8.286  20.244  52.704  1.00  0.00     0.210 C 
ENDBRANCH  18  21
ENDBRANCH  11  15
ENDBRANCH   7   8
ENDBRANCH   6   7
ENDBRANCH   5   6
ENDBRANCH   1   5
BRANCH   2  23
HETATM   23  C   UNL     1       7.485  32.720  61.110  1.00  0.00     0.105 C 
BRANCH  23  24
HETATM   24  C   UNL     1       6.512  32.426  62.258  1.00  0.00     0.046 C 
BRANCH  24  25
HETATM   25  C   UNL     1       5.389  33.445  62.466  1.00  0.00     0.203 A 
HETATM   26  N   UNL     1       5.803  34.791  62.016  1.00  0.00    -0.257 NA
HETATM   27  C   UNL     1       5.582  35.553  63.045  1.00  0.00     0.147 A 
HETATM   28  N   UNL     1       5.105  34.969  64.183  1.00  0.00    -0.239 N 
HETATM   29  C   UNL     1       5.826  36.999  63.048  1.00  0.00     0.037 A 
HETATM   30  C   UNL     1       4.879  35.652  65.383  1.00  0.00     0.187 A 
HETATM   31  C   UNL     1       4.966  33.623  63.913  1.00  0.00     0.257 A 
HETATM   32  S   UNL     1       4.386  34.999  66.847  1.00  0.00    -0.040 SA
HETATM   33  N   UNL     1       5.096  37.012  65.351  1.00  0.00    -0.332 N 
HETATM   34  C   UNL     1       5.560  37.697  64.223  1.00  0.00     0.048 A 
HETATM   35  H   UNL     1       4.915  37.527  66.206  1.00  0.00     0.168 HD
HETATM   36  C   UNL     1       5.763  39.075  64.276  1.00  0.00     0.030 A 
HETATM   37  C   UNL     1       6.232  39.746  63.145  1.00  0.00     0.002 A 
HETATM   38  C   UNL     1       6.500  39.043  61.968  1.00  0.00     0.001 A 
HETATM   39  C   UNL     1       6.297  37.664  61.915  1.00  0.00     0.017 A 
HETATM   40  O   UNL     1       4.616  32.703  64.638  1.00  0.00    -0.270 OA
ENDBRANCH  24  25
ENDBRANCH  23  24
ENDBRANCH   2  23
TORSDOF 9
ENDMDL
MODEL 7
REMARK VINA RESULT:      -9.7      3.176     13.385
REMARK  9 active torsions:
REMARK  status: ('A' for Active; 'I' for Inactive)
REMARK    1  A    between atoms: O_2  and  C_3 
REMARK    2  A    between atoms: C_6  and  N_7 
REMARK    3  A    between atoms: N_10  and  C_12 
REMARK    4  A    between atoms: C_12  and  C_13 
REMARK    5  A    between atoms: C_13  and  C_14 
REMARK    6  A    between atoms: C_14  and  N_15 
REMARK       I    between atoms: N_15  and  C_16 
REMARK    7  A    between atoms: C_16  and  C_17 
REMARK    8  A    between atoms: C_17  and  C_18 
REMARK    9  A    between atoms: C_18  and  C_19 
ROOT
HETATM    1  N   UNL     1       7.069  30.531  58.801  1.00  0.00    -0.361 N 
HETATM    2  C   UNL     1       7.682  29.392  58.320  1.00  0.00     0.217 C 
HETATM    3  O   UNL     1       8.890  29.191  58.418  1.00  0.00    -0.274 OA
HETATM    4  H   UNL     1       6.120  30.714  58.494  1.00  0.00     0.162 HD
ENDROOT
BRANCH   1   5
HETATM    5  C   UNL     1       7.865  31.675  59.195  1.00  0.00     0.124 C 
BRANCH   5   6
HETATM    6  C   UNL     1       7.362  32.316  60.487  1.00  0.00     0.047 C 
BRANCH   6   7
HETATM    7  C   UNL     1       5.856  32.140  60.616  1.00  0.00     0.236 C 
BRANCH   7   8
HETATM    8  N   UNL     1       5.231  33.377  61.226  1.00  0.00    -0.068 N 
HETATM    9  C   UNL     1       4.063  33.062  62.174  1.00  0.00     0.254 C 
HETATM   10  C   UNL     1       3.452  34.369  62.726  1.00  0.00     0.150 C 
HETATM   11  N   UNL     1       4.476  35.223  63.356  1.00  0.00    -0.378 N 
HETATM   12  C   UNL     1       5.626  35.535  62.481  1.00  0.00     0.150 C 
HETATM   13  C   UNL     1       6.275  34.237  61.952  1.00  0.00     0.254 C 
HETATM   14  H   UNL     1       4.854  33.955  60.464  1.00  0.00     0.280 HD
BRANCH  11  15
HETATM   15  C   UNL     1       4.728  35.141  64.727  1.00  0.00     0.030 A 
HETATM   16  C   UNL     1       5.659  34.257  65.290  1.00  0.00     0.032 A 
HETATM   17  C   UNL     1       5.884  34.211  66.673  1.00  0.00     0.039 A 
HETATM   18  C   UNL     1       5.176  35.036  67.542  1.00  0.00     0.068 A 
HETATM   19  C   UNL     1       4.220  35.894  67.015  1.00  0.00     0.039 A 
HETATM   20  C   UNL     1       4.002  35.937  65.630  1.00  0.00     0.032 A 
BRANCH  18  21
HETATM   21  O   UNL     1       5.498  34.895  68.861  1.00  0.00    -0.356 OA
HETATM   22  C   UNL     1       6.713  34.217  69.161  1.00  0.00     0.210 C 
ENDBRANCH  18  21
ENDBRANCH  11  15
ENDBRANCH   7   8
ENDBRANCH   6   7
ENDBRANCH   5   6
ENDBRANCH   1   5
BRANCH   2  23
HETATM   23  C   UNL     1       6.753  28.422  57.621  1.00  0.00     0.105 C 
BRANCH  23  24
HETATM   24  C   UNL     1       7.425  27.101  57.228  1.00  0.00     0.046 C 
BRANCH  24  25
HETATM   25  C   UNL     1       6.517  26.047  56.591  1.00  0.00     0.203 A 
HETATM   26  N   UNL     1       7.070  24.688  56.774  1.00  0.00    -0.257 NA
HETATM   27  C   UNL     1       7.117  24.199  55.571  1.00  0.00     0.147 A 
HETATM   28  N   UNL     1       6.717  25.000  54.539  1.00  0.00    -0.239 N 
HETATM   29  C   UNL     1       7.583  22.843  55.266  1.00  0.00     0.037 A 
HETATM   30  C   UNL     1       6.770  24.631  53.191  1.00  0.00     0.187 A 
HETATM   31  C   UNL     1       6.333  26.203  55.093  1.00  0.00     0.257 A 
HETATM   32  S   UNL     1       6.390  25.579  51.861  1.00  0.00    -0.040 SA
HETATM   33  N   UNL     1       7.192  23.344  52.935  1.00  0.00    -0.332 N 
HETATM   34  C   UNL     1       7.596  22.448  53.930  1.00  0.00     0.048 A 
HETATM   35  H   UNL     1       7.215  23.051  51.965  1.00  0.00     0.168 HD
HETATM   36  C   UNL     1       8.018  21.165  53.588  1.00  0.00     0.030 A 
HETATM   37  C   UNL     1       8.425  20.282  54.591  1.00  0.00     0.002 A 
HETATM   38  C   UNL     1       8.413  20.682  55.930  1.00  0.00     0.001 A 
HETATM   39  C   UNL     1       7.990  21.966  56.272  1.00  0.00     0.017 A 
HETATM   40  O   UNL     1       5.947  27.233  54.558  1.00  0.00    -0.270 OA
ENDBRANCH  24  25
ENDBRANCH  23  24
ENDBRANCH   2  23
TORSDOF 9
ENDMDL
MODEL 8
REMARK VINA RESULT:      -9.4      2.315      2.967
REMARK  9 active torsions:
REMARK  status: ('A' for Active; 'I' for Inactive)
REMARK    1  A    between atoms: O_2  and  C_3 
REMARK    2  A    between atoms: C_6  and  N_7 
REMARK    3  A    between atoms: N_10  and  C_12 
REMARK    4  A    between atoms: C_12  and  C_13 
REMARK    5  A    between atoms: C_13  and  C_14 
REMARK    6  A    between atoms: C_14  and  N_15 
REMARK       I    between atoms: N_15  and  C_16 
REMARK    7  A    between atoms: C_16  and  C_17 
REMARK    8  A    between atoms: C_17  and  C_18 
REMARK    9  A    between atoms: C_18  and  C_19 
ROOT
HETATM    1  N   UNL     1       8.290  30.605  58.741  1.00  0.00    -0.361 N 
HETATM    2  C   UNL     1       8.736  31.822  59.215  1.00  0.00     0.217 C 
HETATM    3  O   UNL     1       9.804  32.323  58.870  1.00  0.00    -0.274 OA
HETATM    4  H   UNL     1       7.516  30.170  59.231  1.00  0.00     0.162 HD
ENDROOT
BRANCH   1   5
HETATM    5  C   UNL     1       9.194  29.726  58.028  1.00  0.00     0.124 C 
BRANCH   5   6
HETATM    6  C   UNL     1       8.454  28.733  57.134  1.00  0.00     0.047 C 
BRANCH   6   7
HETATM    7  C   UNL     1       7.202  29.372  56.552  1.00  0.00     0.236 C 
BRANCH   7   8
HETATM    8  N   UNL     1       6.681  28.550  55.392  1.00  0.00    -0.068 N 
HETATM    9  C   UNL     1       7.790  28.078  54.438  1.00  0.00     0.254 C 
HETATM   10  C   UNL     1       7.182  27.282  53.262  1.00  0.00     0.150 C 
HETATM   11  N   UNL     1       6.335  26.172  53.737  1.00  0.00    -0.378 N 
HETATM   12  C   UNL     1       5.267  26.584  54.672  1.00  0.00     0.150 C 
HETATM   13  C   UNL     1       5.861  27.347  55.876  1.00  0.00     0.254 C 
HETATM   14  H   UNL     1       6.041  29.139  54.843  1.00  0.00     0.280 HD
BRANCH  11  15
HETATM   15  C   UNL     1       6.867  24.892  53.909  1.00  0.00     0.030 A 
HETATM   16  C   UNL     1       7.416  24.138  52.864  1.00  0.00     0.032 A 
HETATM   17  C   UNL     1       7.944  22.857  53.082  1.00  0.00     0.039 A 
HETATM   18  C   UNL     1       7.927  22.281  54.349  1.00  0.00     0.068 A 
HETATM   19  C   UNL     1       7.354  22.991  55.395  1.00  0.00     0.039 A 
HETATM   20  C   UNL     1       6.829  24.273  55.170  1.00  0.00     0.032 A 
BRANCH  18  21
HETATM   21  O   UNL     1       8.480  21.035  54.423  1.00  0.00    -0.356 OA
HETATM   22  C   UNL     1       8.464  20.396  55.694  1.00  0.00     0.210 C 
ENDBRANCH  18  21
ENDBRANCH  11  15
ENDBRANCH   7   8
ENDBRANCH   6   7
ENDBRANCH   5   6
ENDBRANCH   1   5
BRANCH   2  23
HETATM   23  C   UNL     1       7.823  32.477  60.230  1.00  0.00     0.105 C 
BRANCH  23  24
HETATM   24  C   UNL     1       6.346  32.103  60.060  1.00  0.00     0.046 C 
BRANCH  24  25
HETATM   25  C   UNL     1       5.376  32.713  61.075  1.00  0.00     0.203 A 
HETATM   26  N   UNL     1       5.124  34.139  60.780  1.00  0.00    -0.257 NA
HETATM   27  C   UNL     1       5.397  34.748  61.894  1.00  0.00     0.147 A 
HETATM   28  N   UNL     1       5.840  33.995  62.944  1.00  0.00    -0.239 N 
HETATM   29  C   UNL     1       5.262  36.196  62.078  1.00  0.00     0.037 A 
HETATM   30  C   UNL     1       6.228  34.520  64.181  1.00  0.00     0.187 A 
HETATM   31  C   UNL     1       5.874  32.686  62.509  1.00  0.00     0.257 A 
HETATM   32  S   UNL     1       6.869  33.683  65.484  1.00  0.00    -0.040 SA
HETATM   33  N   UNL     1       6.071  35.881  64.333  1.00  0.00    -0.332 N 
HETATM   34  C   UNL     1       5.602  36.725  63.321  1.00  0.00     0.048 A 
HETATM   35  H   UNL     1       6.326  36.276  65.231  1.00  0.00     0.168 HD
HETATM   36  C   UNL     1       5.480  38.094  63.553  1.00  0.00     0.030 A 
HETATM   37  C   UNL     1       5.016  38.927  62.532  1.00  0.00     0.002 A 
HETATM   38  C   UNL     1       4.678  38.395  61.286  1.00  0.00     0.001 A 
HETATM   39  C   UNL     1       4.799  37.025  61.054  1.00  0.00     0.017 A 
HETATM   40  O   UNL     1       6.244  31.672  63.083  1.00  0.00    -0.270 OA
ENDBRANCH  24  25
ENDBRANCH  23  24
ENDBRANCH   2  23
TORSDOF 9
ENDMDL
MODEL 9
REMARK VINA RESULT:      -9.4      3.430     12.237
REMARK  9 active torsions:
REMARK  status: ('A' for Active; 'I' for Inactive)
REMARK    1  A    between atoms: O_2  and  C_3 
REMARK    2  A    between atoms: C_6  and  N_7 
REMARK    3  A    between atoms: N_10  and  C_12 
REMARK    4  A    between atoms: C_12  and  C_13 
REMARK    5  A    between atoms: C_13  and  C_14 
REMARK    6  A    between atoms: C_14  and  N_15 
REMARK       I    between atoms: N_15  and  C_16 
REMARK    7  A    between atoms: C_16  and  C_17 
REMARK    8  A    between atoms: C_17  and  C_18 
REMARK    9  A    between atoms: C_18  and  C_19 
ROOT
HETATM    1  N   UNL     1       4.945  29.399  53.054  1.00  0.00    -0.361 N 
HETATM    2  C   UNL     1       4.487  28.666  51.977  1.00  0.00     0.217 C 
HETATM    3  O   UNL     1       3.441  28.927  51.388  1.00  0.00    -0.274 OA
HETATM    4  H   UNL     1       5.692  28.994  53.608  1.00  0.00     0.162 HD
ENDROOT
BRANCH   1   5
HETATM    5  C   UNL     1       4.069  30.342  53.718  1.00  0.00     0.124 C 
BRANCH   5   6
HETATM    6  C   UNL     1       3.596  29.837  55.079  1.00  0.00     0.047 C 
BRANCH   6   7
HETATM    7  C   UNL     1       4.774  29.313  55.890  1.00  0.00     0.236 C 
BRANCH   7   8
HETATM    8  N   UNL     1       5.524  30.460  56.532  1.00  0.00    -0.068 N 
HETATM    9  C   UNL     1       4.601  31.579  57.039  1.00  0.00     0.254 C 
HETATM   10  C   UNL     1       5.435  32.730  57.645  1.00  0.00     0.150 C 
HETATM   11  N   UNL     1       6.359  32.242  58.686  1.00  0.00    -0.378 N 
HETATM   12  C   UNL     1       7.252  31.152  58.241  1.00  0.00     0.150 C 
HETATM   13  C   UNL     1       6.432  29.975  57.670  1.00  0.00     0.254 C 
HETATM   14  H   UNL     1       6.141  30.877  55.823  1.00  0.00     0.280 HD
BRANCH  11  15
HETATM   15  C   UNL     1       5.980  32.241  60.031  1.00  0.00     0.030 A 
HETATM   16  C   UNL     1       4.695  32.584  60.471  1.00  0.00     0.032 A 
HETATM   17  C   UNL     1       4.356  32.563  61.832  1.00  0.00     0.039 A 
HETATM   18  C   UNL     1       5.294  32.214  62.799  1.00  0.00     0.068 A 
HETATM   19  C   UNL     1       6.586  31.906  62.393  1.00  0.00     0.039 A 
HETATM   20  C   UNL     1       6.917  31.926  61.030  1.00  0.00     0.032 A 
BRANCH  18  21
HETATM   21  O   UNL     1       4.830  32.227  64.083  1.00  0.00    -0.356 OA
HETATM   22  C   UNL     1       4.924  33.458  64.791  1.00  0.00     0.210 C 
ENDBRANCH  18  21
ENDBRANCH  11  15
ENDBRANCH   7   8
ENDBRANCH   6   7
ENDBRANCH   5   6
ENDBRANCH   1   5
BRANCH   2  23
HETATM   23  C   UNL     1       5.356  27.484  51.603  1.00  0.00     0.105 C 
BRANCH  23  24
HETATM   24  C   UNL     1       5.510  26.454  52.729  1.00  0.00     0.046 C 
BRANCH  24  25
HETATM   25  C   UNL     1       6.940  26.010  53.044  1.00  0.00     0.203 A 
HETATM   26  N   UNL     1       7.141  24.585  52.708  1.00  0.00    -0.257 NA
HETATM   27  C   UNL     1       7.604  24.061  53.804  1.00  0.00     0.147 A 
HETATM   28  N   UNL     1       7.738  24.873  54.894  1.00  0.00    -0.239 N 
HETATM   29  C   UNL     1       7.977  22.649  53.931  1.00  0.00     0.037 A 
HETATM   30  C   UNL     1       8.164  24.436  56.152  1.00  0.00     0.187 A 
HETATM   31  C   UNL     1       7.324  26.131  54.507  1.00  0.00     0.257 A 
HETATM   32  S   UNL     1       8.268  25.341  57.560  1.00  0.00    -0.040 SA
HETATM   33  N   UNL     1       8.529  23.110  56.238  1.00  0.00    -0.332 N 
HETATM   34  C   UNL     1       8.446  22.213  55.168  1.00  0.00     0.048 A 
HETATM   35  H   UNL     1       8.862  22.781  57.137  1.00  0.00     0.168 HD
HETATM   36  C   UNL     1       8.827  20.883  55.339  1.00  0.00     0.030 A 
HETATM   37  C   UNL     1       8.734  19.996  54.263  1.00  0.00     0.002 A 
HETATM   38  C   UNL     1       8.261  20.436  53.025  1.00  0.00     0.001 A 
HETATM   39  C   UNL     1       7.881  21.767  52.854  1.00  0.00     0.017 A 
HETATM   40  O   UNL     1       7.226  27.165  55.154  1.00  0.00    -0.270 OA
ENDBRANCH  24  25
ENDBRANCH  23  24
ENDBRANCH   2  23
TORSDOF 9
ENDMDL
MODEL 10
REMARK VINA RESULT:      -9.3      3.011      5.052
REMARK  9 active torsions:
REMARK  status: ('A' for Active; 'I' for Inactive)
REMARK    1  A    between atoms: O_2  and  C_3 
REMARK    2  A    between atoms: C_6  and  N_7 
REMARK    3  A    between atoms: N_10  and  C_12 
REMARK    4  A    between atoms: C_12  and  C_13 
REMARK    5  A    between atoms: C_13  and  C_14 
REMARK    6  A    between atoms: C_14  and  N_15 
REMARK       I    between atoms: N_15  and  C_16 
REMARK    7  A    between atoms: C_16  and  C_17 
REMARK    8  A    between atoms: C_17  and  C_18 
REMARK    9  A    between atoms: C_18  and  C_19 
ROOT
HETATM    1  N   UNL     1       3.880  31.368  53.509  1.00  0.00    -0.361 N 
HETATM    2  C   UNL     1       4.229  31.332  54.844  1.00  0.00     0.217 C 
HETATM    3  O   UNL     1       5.107  30.595  55.285  1.00  0.00    -0.274 OA
HETATM    4  H   UNL     1       3.014  31.837  53.267  1.00  0.00     0.162 HD
ENDROOT
BRANCH   1   5
HETATM    5  C   UNL     1       4.343  30.334  52.607  1.00  0.00     0.124 C 
BRANCH   5   6
HETATM    6  C   UNL     1       3.334  29.197  52.460  1.00  0.00     0.047 C 
BRANCH   6   7
HETATM    7  C   UNL     1       3.733  28.015  53.333  1.00  0.00     0.236 C 
BRANCH   7   8
HETATM    8  N   UNL     1       5.115  27.525  52.956  1.00  0.00    -0.068 N 
HETATM    9  C   UNL     1       6.054  27.372  54.164  1.00  0.00     0.254 C 
HETATM   10  C   UNL     1       7.452  26.907  53.700  1.00  0.00     0.150 C 
HETATM   11  N   UNL     1       7.375  25.680  52.886  1.00  0.00    -0.378 N 
HETATM   12  C   UNL     1       6.467  25.781  51.724  1.00  0.00     0.150 C 
HETATM   13  C   UNL     1       5.052  26.206  52.173  1.00  0.00     0.254 C 
HETATM   14  H   UNL     1       5.541  28.218  52.328  1.00  0.00     0.280 HD
BRANCH  11  15
HETATM   15  C   UNL     1       7.507  24.422  53.478  1.00  0.00     0.030 A 
HETATM   16  C   UNL     1       7.334  24.191  54.849  1.00  0.00     0.032 A 
HETATM   17  C   UNL     1       7.471  22.909  55.400  1.00  0.00     0.039 A 
HETATM   18  C   UNL     1       7.801  21.817  54.603  1.00  0.00     0.068 A 
HETATM   19  C   UNL     1       8.015  22.024  53.246  1.00  0.00     0.039 A 
HETATM   20  C   UNL     1       7.874  23.309  52.701  1.00  0.00     0.032 A 
BRANCH  18  21
HETATM   21  O   UNL     1       7.895  20.627  55.265  1.00  0.00    -0.356 OA
HETATM   22  C   UNL     1       8.854  20.545  56.313  1.00  0.00     0.210 C 
ENDBRANCH  18  21
ENDBRANCH  11  15
ENDBRANCH   7   8
ENDBRANCH   6   7
ENDBRANCH   5   6
ENDBRANCH   1   5
BRANCH   2  23
HETATM   23  C   UNL     1       3.411  32.242  55.735  1.00  0.00     0.105 C 
BRANCH  23  24
HETATM   24  C   UNL     1       3.596  31.967  57.232  1.00  0.00     0.046 C 
BRANCH  24  25
HETATM   25  C   UNL     1       4.388  33.015  58.016  1.00  0.00     0.203 A 
HETATM   26  N   UNL     1       5.775  32.563  58.257  1.00  0.00    -0.257 NA
HETATM   27  C   UNL     1       5.926  32.668  59.543  1.00  0.00     0.147 A 
HETATM   28  N   UNL     1       4.857  33.093  60.280  1.00  0.00    -0.239 N 
HETATM   29  C   UNL     1       7.175  32.348  60.240  1.00  0.00     0.037 A 
HETATM   30  C   UNL     1       4.854  33.195  61.675  1.00  0.00     0.187 A 
HETATM   31  C   UNL     1       3.827  33.322  59.392  1.00  0.00     0.257 A 
HETATM   32  S   UNL     1       3.564  33.615  62.661  1.00  0.00    -0.040 SA
HETATM   33  N   UNL     1       6.047  32.908  62.302  1.00  0.00    -0.332 N 
HETATM   34  C   UNL     1       7.198  32.491  61.626  1.00  0.00     0.048 A 
HETATM   35  H   UNL     1       6.070  32.999  63.312  1.00  0.00     0.168 HD
HETATM   36  C   UNL     1       8.365  32.211  62.336  1.00  0.00     0.030 A 
HETATM   37  C   UNL     1       9.505  31.789  61.648  1.00  0.00     0.002 A 
HETATM   38  C   UNL     1       9.479  31.645  60.259  1.00  0.00     0.001 A 
HETATM   39  C   UNL     1       8.311  31.925  59.549  1.00  0.00     0.017 A 
HETATM   40  O   UNL     1       2.671  33.668  59.595  1.00  0.00    -0.270 OA
ENDBRANCH  24  25
ENDBRANCH  23  24
ENDBRANCH   2  23
TORSDOF 9
ENDMDL
