MODEL 1
REMARK VINA RESULT:      -9.5      0.000      0.000
REMARK  4 active torsions:
REMARK  status: ('A' for Active; 'I' for Inactive)
REMARK    1  A    between atoms: C_2  and  C_3 
REMARK    2  A    between atoms: C_3  and  N_4 
REMARK    3  A    between atoms: N_8  and  C_9 
REMARK    4  A    between atoms: C_9  and  C_10 
ROOT
HETATM    1  N   UNL     1       7.270  25.852  54.487  1.00  0.00    -0.061 N 
HETATM    2  H   UNL     1       8.195  25.460  54.692  1.00  0.00     0.280 HD
HETATM    3  C   UNL     1       6.717  26.328  55.832  1.00  0.00     0.216 C 
HETATM    4  C   UNL     1       7.855  26.975  56.676  1.00  0.00     0.305 C 
HETATM    5  N   UNL     1       8.098  28.398  56.432  1.00  0.00     0.095 N 
HETATM    6  C   UNL     1       8.353  28.759  55.037  1.00  0.00     0.279 C 
HETATM    7  C   UNL     1       7.244  28.337  54.054  1.00  0.00     0.040 C 
HETATM    8  C   UNL     1       7.481  26.950  53.476  1.00  0.00     0.242 C 
HETATM    9  C   UNL     1       5.523  27.259  55.603  1.00  0.00     0.035 C 
HETATM   10  C   UNL     1       5.835  28.425  54.659  1.00  0.00     0.010 C 
ENDROOT
BRANCH   1  11
HETATM   11  C   UNL     1       6.500  24.691  53.878  1.00  0.00     0.274 C 
BRANCH  11  12
HETATM   12  C   UNL     1       7.158  23.352  54.074  1.00  0.00    -0.032 A 
HETATM   13  C   UNL     1       7.550  22.588  52.966  1.00  0.00     0.011 A 
HETATM   14  C   UNL     1       8.163  21.341  53.118  1.00  0.00     0.031 A 
HETATM   15  C   UNL     1       8.377  20.879  54.419  1.00  0.00     0.042 A 
HETATM   16  C   UNL     1       8.004  21.607  55.548  1.00  0.00    -0.008 A 
HETATM   17  N   UNL     1       8.963  19.713  54.863  1.00  0.00    -0.365 N 
HETATM   18  C   UNL     1       7.386  22.861  55.374  1.00  0.00     0.022 A 
HETATM   19  C   UNL     1       8.383  20.843  56.685  1.00  0.00     0.030 A 
HETATM   20  C   UNL     1       8.969  19.683  56.232  1.00  0.00     0.089 A 
HETATM   21  H   UNL     1       9.344  18.992  54.264  1.00  0.00     0.165 HD
ENDBRANCH  11  12
ENDBRANCH   1  11
BRANCH   5  22
HETATM   22  C   UNL     1       9.136  28.925  57.345  1.00  0.00     0.311 C 
BRANCH  22  23
HETATM   23  C   UNL     1       8.674  30.121  58.145  1.00  0.00    -0.027 A 
HETATM   24  C   UNL     1       7.319  30.467  58.200  1.00  0.00     0.028 A 
HETATM   25  C   UNL     1       6.944  31.576  58.940  1.00  0.00     0.116 A 
HETATM   26  N   UNL     1       7.813  32.350  59.622  1.00  0.00    -0.273 NA
HETATM   27  C   UNL     1       9.113  31.993  59.574  1.00  0.00     0.116 A 
HETATM   28  C   UNL     1       9.588  30.902  58.859  1.00  0.00     0.028 A 
ENDBRANCH  22  23
ENDBRANCH   5  22
TORSDOF 4
ENDMDL
MODEL 2
REMARK VINA RESULT:      -9.1      1.221      1.990
REMARK  4 active torsions:
REMARK  status: ('A' for Active; 'I' for Inactive)
REMARK    1  A    between atoms: C_2  and  C_3 
REMARK    2  A    between atoms: C_3  and  N_4 
REMARK    3  A    between atoms: N_8  and  C_9 
REMARK    4  A    between atoms: C_9  and  C_10 
ROOT
HETATM    1  N   UNL     1       7.049  26.436  55.638  1.00  0.00    -0.061 N 
HETATM    2  H   UNL     1       7.942  26.029  55.937  1.00  0.00     0.280 HD
HETATM    3  C   UNL     1       6.422  27.028  56.902  1.00  0.00     0.216 C 
HETATM    4  C   UNL     1       7.522  27.696  57.779  1.00  0.00     0.305 C 
HETATM    5  N   UNL     1       7.837  29.088  57.454  1.00  0.00     0.095 N 
HETATM    6  C   UNL     1       8.204  29.337  56.059  1.00  0.00     0.279 C 
HETATM    7  C   UNL     1       7.151  28.882  55.030  1.00  0.00     0.040 C 
HETATM    8  C   UNL     1       7.375  27.448  54.570  1.00  0.00     0.242 C 
HETATM    9  C   UNL     1       5.284  27.980  56.521  1.00  0.00     0.035 C 
HETATM   10  C   UNL     1       5.708  29.062  55.522  1.00  0.00     0.010 C 
ENDROOT
BRANCH   1  11
HETATM   11  C   UNL     1       6.279  25.260  55.058  1.00  0.00     0.274 C 
BRANCH  11  12
HETATM   12  C   UNL     1       7.028  23.956  55.105  1.00  0.00    -0.032 A 
HETATM   13  C   UNL     1       7.609  23.518  56.304  1.00  0.00     0.011 A 
HETATM   14  C   UNL     1       8.312  22.311  56.378  1.00  0.00     0.031 A 
HETATM   15  C   UNL     1       8.413  21.549  55.211  1.00  0.00     0.042 A 
HETATM   16  C   UNL     1       7.849  21.947  54.000  1.00  0.00    -0.008 A 
HETATM   17  N   UNL     1       9.022  20.332  54.995  1.00  0.00    -0.365 N 
HETATM   18  C   UNL     1       7.147  23.167  53.945  1.00  0.00     0.022 A 
HETATM   19  C   UNL     1       8.139  20.932  53.048  1.00  0.00     0.030 A 
HETATM   20  C   UNL     1       8.863  19.952  53.689  1.00  0.00     0.089 A 
HETATM   21  H   UNL     1       9.506  19.793  55.702  1.00  0.00     0.165 HD
ENDBRANCH  11  12
ENDBRANCH   1  11
BRANCH   5  22
HETATM   22  C   UNL     1       8.828  29.645  58.401  1.00  0.00     0.311 C 
BRANCH  22  23
HETATM   23  C   UNL     1       8.228  30.620  59.386  1.00  0.00    -0.027 A 
HETATM   24  C   UNL     1       8.793  30.797  60.655  1.00  0.00     0.028 A 
HETATM   25  C   UNL     1       8.203  31.696  61.528  1.00  0.00     0.116 A 
HETATM   26  N   UNL     1       7.108  32.423  61.226  1.00  0.00    -0.273 NA
HETATM   27  C   UNL     1       6.586  32.255  59.994  1.00  0.00     0.116 A 
HETATM   28  C   UNL     1       7.102  31.378  59.051  1.00  0.00     0.028 A 
ENDBRANCH  22  23
ENDBRANCH   5  22
TORSDOF 4
ENDMDL
MODEL 3
REMARK VINA RESULT:      -8.9      2.072      9.110
REMARK  4 active torsions:
REMARK  status: ('A' for Active; 'I' for Inactive)
REMARK    1  A    between atoms: C_2  and  C_3 
REMARK    2  A    between atoms: C_3  and  N_4 
REMARK    3  A    between atoms: N_8  and  C_9 
REMARK    4  A    between atoms: C_9  and  C_10 
ROOT
HETATM    1  N   UNL     1       7.196  29.224  57.800  1.00  0.00    -0.061 N 
HETATM    2  H   UNL     1       7.298  28.800  58.728  1.00  0.00     0.280 HD
HETATM    3  C   UNL     1       8.147  28.448  56.886  1.00  0.00     0.216 C 
HETATM    4  C   UNL     1       8.112  26.933  57.246  1.00  0.00     0.305 C 
HETATM    5  N   UNL     1       7.067  26.146  56.590  1.00  0.00     0.095 N 
HETATM    6  C   UNL     1       5.704  26.650  56.763  1.00  0.00     0.279 C 
HETATM    7  C   UNL     1       5.497  28.107  56.306  1.00  0.00     0.040 C 
HETATM    8  C   UNL     1       5.740  29.105  57.430  1.00  0.00     0.242 C 
HETATM    9  C   UNL     1       7.809  28.734  55.420  1.00  0.00     0.035 C 
HETATM   10  C   UNL     1       6.338  28.479  55.076  1.00  0.00     0.010 C 
ENDROOT
BRANCH   1  11
HETATM   11  C   UNL     1       7.589  30.678  58.008  1.00  0.00     0.274 C 
BRANCH  11  12
HETATM   12  C   UNL     1       7.782  31.057  59.451  1.00  0.00    -0.032 A 
HETATM   13  C   UNL     1       8.797  30.457  60.210  1.00  0.00     0.011 A 
HETATM   14  C   UNL     1       9.000  30.789  61.553  1.00  0.00     0.031 A 
HETATM   15  C   UNL     1       8.156  31.749  62.117  1.00  0.00     0.042 A 
HETATM   16  C   UNL     1       7.137  32.371  61.398  1.00  0.00    -0.008 A 
HETATM   17  N   UNL     1       8.134  32.274  63.390  1.00  0.00    -0.365 N 
HETATM   18  C   UNL     1       6.946  32.022  60.047  1.00  0.00     0.022 A 
HETATM   19  C   UNL     1       6.499  33.286  62.279  1.00  0.00     0.030 A 
HETATM   20  C   UNL     1       7.133  33.203  63.498  1.00  0.00     0.089 A 
HETATM   21  H   UNL     1       8.772  32.019  64.134  1.00  0.00     0.165 HD
ENDBRANCH  11  12
ENDBRANCH   1  11
BRANCH   5  22
HETATM   22  C   UNL     1       7.182  24.713  56.937  1.00  0.00     0.311 C 
BRANCH  22  23
HETATM   23  C   UNL     1       7.650  23.856  55.784  1.00  0.00    -0.027 A 
HETATM   24  C   UNL     1       7.019  23.927  54.536  1.00  0.00     0.028 A 
HETATM   25  C   UNL     1       7.478  23.116  53.511  1.00  0.00     0.116 A 
HETATM   26  N   UNL     1       8.510  22.257  53.640  1.00  0.00    -0.273 NA
HETATM   27  C   UNL     1       9.119  22.214  54.843  1.00  0.00     0.116 A 
HETATM   28  C   UNL     1       8.732  22.983  55.931  1.00  0.00     0.028 A 
ENDBRANCH  22  23
ENDBRANCH   5  22
TORSDOF 4
ENDMDL
MODEL 4
REMARK VINA RESULT:      -8.9      2.284      2.813
REMARK  4 active torsions:
REMARK  status: ('A' for Active; 'I' for Inactive)
REMARK    1  A    between atoms: C_2  and  C_3 
REMARK    2  A    between atoms: C_3  and  N_4 
REMARK    3  A    between atoms: N_8  and  C_9 
REMARK    4  A    between atoms: C_9  and  C_10 
ROOT
HETATM    1  N   UNL     1       6.657  25.556  53.966  1.00  0.00    -0.061 N 
HETATM    2  H   UNL     1       6.962  25.167  54.865  1.00  0.00     0.280 HD
HETATM    3  C   UNL     1       5.275  26.158  54.226  1.00  0.00     0.216 C 
HETATM    4  C   UNL     1       5.251  26.856  55.618  1.00  0.00     0.305 C 
HETATM    5  N   UNL     1       5.706  28.247  55.642  1.00  0.00     0.095 N 
HETATM    6  C   UNL     1       7.036  28.479  55.079  1.00  0.00     0.279 C 
HETATM    7  C   UNL     1       7.210  27.994  53.627  1.00  0.00     0.040 C 
HETATM    8  C   UNL     1       7.706  26.557  53.553  1.00  0.00     0.242 C 
HETATM    9  C   UNL     1       4.887  27.088  53.072  1.00  0.00     0.035 C 
HETATM   10  C   UNL     1       5.942  28.161  52.778  1.00  0.00     0.010 C 
ENDROOT
BRANCH   1  11
HETATM   11  C   UNL     1       6.644  24.361  53.027  1.00  0.00     0.274 C 
BRANCH  11  12
HETATM   12  C   UNL     1       7.312  23.135  53.589  1.00  0.00    -0.032 A 
HETATM   13  C   UNL     1       7.821  22.151  52.729  1.00  0.00     0.011 A 
HETATM   14  C   UNL     1       8.445  21.001  53.223  1.00  0.00     0.031 A 
HETATM   15  C   UNL     1       8.550  20.866  54.610  1.00  0.00     0.042 A 
HETATM   16  C   UNL     1       8.060  21.822  55.499  1.00  0.00    -0.008 A 
HETATM   17  N   UNL     1       9.120  19.864  55.364  1.00  0.00    -0.365 N 
HETATM   18  C   UNL     1       7.432  22.972  54.982  1.00  0.00     0.022 A 
HETATM   19  C   UNL     1       8.351  21.362  56.812  1.00  0.00     0.030 A 
HETATM   20  C   UNL     1       9.002  20.155  56.697  1.00  0.00     0.089 A 
HETATM   21  H   UNL     1       9.570  19.040  54.987  1.00  0.00     0.165 HD
ENDBRANCH  11  12
ENDBRANCH   1  11
BRANCH   5  22
HETATM   22  C   UNL     1       5.560  28.832  56.993  1.00  0.00     0.311 C 
BRANCH  22  23
HETATM   23  C   UNL     1       4.658  30.044  57.023  1.00  0.00    -0.027 A 
HETATM   24  C   UNL     1       4.630  30.889  58.138  1.00  0.00     0.028 A 
HETATM   25  C   UNL     1       3.782  31.984  58.123  1.00  0.00     0.116 A 
HETATM   26  N   UNL     1       2.975  32.292  57.087  1.00  0.00    -0.273 NA
HETATM   27  C   UNL     1       3.027  31.479  56.013  1.00  0.00     0.116 A 
HETATM   28  C   UNL     1       3.841  30.357  55.933  1.00  0.00     0.028 A 
ENDBRANCH  22  23
ENDBRANCH   5  22
TORSDOF 4
ENDMDL
MODEL 5
REMARK VINA RESULT:      -8.8      1.445      8.794
REMARK  4 active torsions:
REMARK  status: ('A' for Active; 'I' for Inactive)
REMARK    1  A    between atoms: C_2  and  C_3 
REMARK    2  A    between atoms: C_3  and  N_4 
REMARK    3  A    between atoms: N_8  and  C_9 
REMARK    4  A    between atoms: C_9  and  C_10 
ROOT
HETATM    1  N   UNL     1       6.879  28.173  57.013  1.00  0.00    -0.061 N 
HETATM    2  H   UNL     1       7.299  28.026  57.937  1.00  0.00     0.280 HD
HETATM    3  C   UNL     1       7.789  27.437  56.026  1.00  0.00     0.216 C 
HETATM    4  C   UNL     1       8.268  26.091  56.647  1.00  0.00     0.305 C 
HETATM    5  N   UNL     1       7.374  24.948  56.457  1.00  0.00     0.095 N 
HETATM    6  C   UNL     1       5.996  25.150  56.907  1.00  0.00     0.279 C 
HETATM    7  C   UNL     1       5.287  26.362  56.272  1.00  0.00     0.040 C 
HETATM    8  C   UNL     1       5.474  27.633  57.088  1.00  0.00     0.242 C 
HETATM    9  C   UNL     1       7.071  27.268  54.685  1.00  0.00     0.035 C 
HETATM   10  C   UNL     1       5.696  26.604  54.812  1.00  0.00     0.010 C 
ENDROOT
BRANCH   1  11
HETATM   11  C   UNL     1       6.875  29.683  56.841  1.00  0.00     0.274 C 
BRANCH  11  12
HETATM   12  C   UNL     1       7.102  30.444  58.120  1.00  0.00    -0.032 A 
HETATM   13  C   UNL     1       6.294  31.545  58.440  1.00  0.00     0.011 A 
HETATM   14  C   UNL     1       6.482  32.270  59.620  1.00  0.00     0.031 A 
HETATM   15  C   UNL     1       7.505  31.858  60.478  1.00  0.00     0.042 A 
HETATM   16  C   UNL     1       8.329  30.768  60.199  1.00  0.00    -0.008 A 
HETATM   17  N   UNL     1       7.903  32.366  61.696  1.00  0.00    -0.365 N 
HETATM   18  C   UNL     1       8.125  30.051  59.004  1.00  0.00     0.022 A 
HETATM   19  C   UNL     1       9.235  30.637  61.286  1.00  0.00     0.030 A 
HETATM   20  C   UNL     1       8.950  31.635  62.190  1.00  0.00     0.089 A 
HETATM   21  H   UNL     1       7.475  33.155  62.162  1.00  0.00     0.165 HD
ENDBRANCH  11  12
ENDBRANCH   1  11
BRANCH   5  22
HETATM   22  C   UNL     1       7.967  23.711  57.010  1.00  0.00     0.311 C 
BRANCH  22  23
HETATM   23  C   UNL     1       8.018  22.577  56.012  1.00  0.00    -0.027 A 
HETATM   24  C   UNL     1       7.976  22.831  54.636  1.00  0.00     0.028 A 
HETATM   25  C   UNL     1       8.016  21.759  53.759  1.00  0.00     0.116 A 
HETATM   26  N   UNL     1       8.099  20.472  54.153  1.00  0.00    -0.273 NA
HETATM   27  C   UNL     1       8.157  20.245  55.481  1.00  0.00     0.116 A 
HETATM   28  C   UNL     1       8.120  21.249  56.438  1.00  0.00     0.028 A 
ENDBRANCH  22  23
ENDBRANCH   5  22
TORSDOF 4
ENDMDL
MODEL 6
REMARK VINA RESULT:      -8.6      2.673      5.479
REMARK  4 active torsions:
REMARK  status: ('A' for Active; 'I' for Inactive)
REMARK    1  A    between atoms: C_2  and  C_3 
REMARK    2  A    between atoms: C_3  and  N_4 
REMARK    3  A    between atoms: N_8  and  C_9 
REMARK    4  A    between atoms: C_9  and  C_10 
ROOT
HETATM    1  N   UNL     1       6.682  26.027  55.830  1.00  0.00    -0.061 N 
HETATM    2  H   UNL     1       6.060  25.283  55.495  1.00  0.00     0.280 HD
HETATM    3  C   UNL     1       7.128  26.786  54.578  1.00  0.00     0.216 C 
HETATM    4  C   UNL     1       5.935  26.922  53.586  1.00  0.00     0.305 C 
HETATM    5  N   UNL     1       5.058  28.074  53.799  1.00  0.00     0.095 N 
HETATM    6  C   UNL     1       4.498  28.193  55.146  1.00  0.00     0.279 C 
HETATM    7  C   UNL     1       5.548  28.236  56.273  1.00  0.00     0.040 C 
HETATM    8  C   UNL     1       5.881  26.850  56.806  1.00  0.00     0.242 C 
HETATM    9  C   UNL     1       7.746  28.129  54.977  1.00  0.00     0.035 C 
HETATM   10  C   UNL     1       6.834  28.974  55.873  1.00  0.00     0.010 C 
ENDROOT
BRANCH   1  11
HETATM   11  C   UNL     1       7.805  25.284  56.535  1.00  0.00     0.274 C 
BRANCH  11  12
HETATM   12  C   UNL     1       8.019  23.882  56.034  1.00  0.00    -0.032 A 
HETATM   13  C   UNL     1       8.343  22.852  56.929  1.00  0.00     0.011 A 
HETATM   14  C   UNL     1       8.548  21.540  56.492  1.00  0.00     0.031 A 
HETATM   15  C   UNL     1       8.415  21.285  55.124  1.00  0.00     0.042 A 
HETATM   16  C   UNL     1       8.093  22.279  54.201  1.00  0.00    -0.008 A 
HETATM   17  N   UNL     1       8.543  20.106  54.425  1.00  0.00    -0.365 N 
HETATM   18  C   UNL     1       7.892  23.595  54.661  1.00  0.00     0.022 A 
HETATM   19  C   UNL     1       8.032  21.660  52.923  1.00  0.00     0.030 A 
HETATM   20  C   UNL     1       8.314  20.324  53.092  1.00  0.00     0.089 A 
HETATM   21  H   UNL     1       8.761  19.208  54.837  1.00  0.00     0.165 HD
ENDBRANCH  11  12
ENDBRANCH   1  11
BRANCH   5  22
HETATM   22  C   UNL     1       4.016  28.151  52.752  1.00  0.00     0.311 C 
BRANCH  22  23
HETATM   23  C   UNL     1       4.571  28.467  51.382  1.00  0.00    -0.027 A 
HETATM   24  C   UNL     1       4.409  27.570  50.319  1.00  0.00     0.028 A 
HETATM   25  C   UNL     1       4.942  27.899  49.083  1.00  0.00     0.116 A 
HETATM   26  N   UNL     1       5.610  29.044  48.837  1.00  0.00    -0.273 NA
HETATM   27  C   UNL     1       5.741  29.906  49.866  1.00  0.00     0.116 A 
HETATM   28  C   UNL     1       5.246  29.667  51.140  1.00  0.00     0.028 A 
ENDBRANCH  22  23
ENDBRANCH   5  22
TORSDOF 4
ENDMDL
MODEL 7
REMARK VINA RESULT:      -8.5      4.189      8.722
REMARK  4 active torsions:
REMARK  status: ('A' for Active; 'I' for Inactive)
REMARK    1  A    between atoms: C_2  and  C_3 
REMARK    2  A    between atoms: C_3  and  N_4 
REMARK    3  A    between atoms: N_8  and  C_9 
REMARK    4  A    between atoms: C_9  and  C_10 
ROOT
HETATM    1  N   UNL     1       5.930  27.546  52.900  1.00  0.00    -0.061 N 
HETATM    2  H   UNL     1       6.362  27.938  53.743  1.00  0.00     0.280 HD
HETATM    3  C   UNL     1       6.944  26.543  52.346  1.00  0.00     0.216 C 
HETATM    4  C   UNL     1       7.616  25.765  53.517  1.00  0.00     0.305 C 
HETATM    5  N   UNL     1       6.905  24.574  53.982  1.00  0.00     0.095 N 
HETATM    6  C   UNL     1       5.510  24.790  54.368  1.00  0.00     0.279 C 
HETATM    7  C   UNL     1       4.631  25.416  53.268  1.00  0.00     0.040 C 
HETATM    8  C   UNL     1       4.621  26.936  53.330  1.00  0.00     0.242 C 
HETATM    9  C   UNL     1       6.267  25.631  51.319  1.00  0.00     0.035 C 
HETATM   10  C   UNL     1       5.006  24.945  51.855  1.00  0.00     0.010 C 
ENDROOT
BRANCH   1  11
HETATM   11  C   UNL     1       5.701  28.752  52.003  1.00  0.00     0.274 C 
BRANCH  11  12
HETATM   12  C   UNL     1       4.501  28.626  51.104  1.00  0.00    -0.032 A 
HETATM   13  C   UNL     1       3.255  29.122  51.514  1.00  0.00     0.011 A 
HETATM   14  C   UNL     1       2.123  29.019  50.701  1.00  0.00     0.031 A 
HETATM   15  C   UNL     1       2.275  28.403  49.455  1.00  0.00     0.042 A 
HETATM   16  C   UNL     1       3.495  27.898  49.008  1.00  0.00    -0.008 A 
HETATM   17  N   UNL     1       1.352  28.179  48.457  1.00  0.00    -0.365 N 
HETATM   18  C   UNL     1       4.624  28.010  49.843  1.00  0.00     0.022 A 
HETATM   19  C   UNL     1       3.277  27.362  47.710  1.00  0.00     0.030 A 
HETATM   20  C   UNL     1       1.950  27.548  47.398  1.00  0.00     0.089 A 
HETATM   21  H   UNL     1       0.379  28.453  48.495  1.00  0.00     0.165 HD
ENDBRANCH  11  12
ENDBRANCH   1  11
BRANCH   5  22
HETATM   22  C   UNL     1       7.673  23.870  55.032  1.00  0.00     0.311 C 
BRANCH  22  23
HETATM   23  C   UNL     1       8.023  22.448  54.661  1.00  0.00    -0.027 A 
HETATM   24  C   UNL     1       8.414  21.527  55.641  1.00  0.00     0.028 A 
HETATM   25  C   UNL     1       8.733  20.236  55.252  1.00  0.00     0.116 A 
HETATM   26  N   UNL     1       8.686  19.806  53.975  1.00  0.00    -0.273 NA
HETATM   27  C   UNL     1       8.290  20.699  53.045  1.00  0.00     0.116 A 
HETATM   28  C   UNL     1       7.953  22.014  53.334  1.00  0.00     0.028 A 
ENDBRANCH  22  23
ENDBRANCH   5  22
TORSDOF 4
ENDMDL
MODEL 8
REMARK VINA RESULT:      -8.2      1.322      8.727
REMARK  4 active torsions:
REMARK  status: ('A' for Active; 'I' for Inactive)
REMARK    1  A    between atoms: C_2  and  C_3 
REMARK    2  A    between atoms: C_3  and  N_4 
REMARK    3  A    between atoms: N_8  and  C_9 
REMARK    4  A    between atoms: C_9  and  C_10 
ROOT
HETATM    1  N   UNL     1       7.175  27.667  56.101  1.00  0.00    -0.061 N 
HETATM    2  H   UNL     1       8.050  27.964  55.656  1.00  0.00     0.280 HD
HETATM    3  C   UNL     1       6.356  26.998  54.995  1.00  0.00     0.216 C 
HETATM    4  C   UNL     1       7.290  26.150  54.081  1.00  0.00     0.305 C 
HETATM    5  N   UNL     1       7.545  24.780  54.527  1.00  0.00     0.095 N 
HETATM    6  C   UNL     1       8.063  24.651  55.889  1.00  0.00     0.279 C 
HETATM    7  C   UNL     1       7.179  25.300  56.973  1.00  0.00     0.040 C 
HETATM    8  C   UNL     1       7.558  26.751  57.235  1.00  0.00     0.242 C 
HETATM    9  C   UNL     1       5.211  26.190  55.611  1.00  0.00     0.035 C 
HETATM   10  C   UNL     1       5.677  25.189  56.674  1.00  0.00     0.010 C 
ENDROOT
BRANCH   1  11
HETATM   11  C   UNL     1       6.566  28.958  56.625  1.00  0.00     0.274 C 
BRANCH  11  12
HETATM   12  C   UNL     1       7.488  29.752  57.510  1.00  0.00    -0.032 A 
HETATM   13  C   UNL     1       8.872  29.738  57.284  1.00  0.00     0.011 A 
HETATM   14  C   UNL     1       9.752  30.465  58.090  1.00  0.00     0.031 A 
HETATM   15  C   UNL     1       9.204  31.216  59.134  1.00  0.00     0.042 A 
HETATM   16  C   UNL     1       7.835  31.260  59.392  1.00  0.00    -0.008 A 
HETATM   17  N   UNL     1       9.819  32.027  60.062  1.00  0.00    -0.365 N 
HETATM   18  C   UNL     1       6.964  30.518  58.570  1.00  0.00     0.022 A 
HETATM   19  C   UNL     1       7.645  32.122  60.506  1.00  0.00     0.030 A 
HETATM   20  C   UNL     1       8.883  32.578  60.898  1.00  0.00     0.089 A 
HETATM   21  H   UNL     1      10.814  32.201  60.112  1.00  0.00     0.165 HD
ENDBRANCH  11  12
ENDBRANCH   1  11
BRANCH   5  22
HETATM   22  C   UNL     1       8.370  24.044  53.544  1.00  0.00     0.311 C 
BRANCH  22  23
HETATM   23  C   UNL     1       8.464  22.564  53.833  1.00  0.00    -0.027 A 
HETATM   24  C   UNL     1       7.865  21.628  52.981  1.00  0.00     0.028 A 
HETATM   25  C   UNL     1       7.970  20.282  53.291  1.00  0.00     0.116 A 
HETATM   26  N   UNL     1       8.625  19.812  54.373  1.00  0.00    -0.273 NA
HETATM   27  C   UNL     1       9.212  20.725  55.174  1.00  0.00     0.116 A 
HETATM   28  C   UNL     1       9.160  22.094  54.950  1.00  0.00     0.028 A 
ENDBRANCH  22  23
ENDBRANCH   5  22
TORSDOF 4
ENDMDL
MODEL 9
REMARK VINA RESULT:      -8.0      1.600      8.608
REMARK  4 active torsions:
REMARK  status: ('A' for Active; 'I' for Inactive)
REMARK    1  A    between atoms: C_2  and  C_3 
REMARK    2  A    between atoms: C_3  and  N_4 
REMARK    3  A    between atoms: N_8  and  C_9 
REMARK    4  A    between atoms: C_9  and  C_10 
ROOT
HETATM    1  N   UNL     1       5.477  27.560  54.843  1.00  0.00    -0.061 N 
HETATM    2  H   UNL     1       5.036  27.331  55.741  1.00  0.00     0.280 HD
HETATM    3  C   UNL     1       6.954  27.198  55.005  1.00  0.00     0.216 C 
HETATM    4  C   UNL     1       7.093  25.878  55.820  1.00  0.00     0.305 C 
HETATM    5  N   UNL     1       7.021  24.640  55.044  1.00  0.00     0.095 N 
HETATM    6  C   UNL     1       5.828  24.493  54.209  1.00  0.00     0.279 C 
HETATM    7  C   UNL     1       5.603  25.643  53.208  1.00  0.00     0.040 C 
HETATM    8  C   UNL     1       4.750  26.760  53.792  1.00  0.00     0.242 C 
HETATM    9  C   UNL     1       7.629  27.140  53.631  1.00  0.00     0.035 C 
HETATM   10  C   UNL     1       6.911  26.216  52.642  1.00  0.00     0.010 C 
ENDROOT
BRANCH   1  11
HETATM   11  C   UNL     1       5.220  29.048  54.670  1.00  0.00     0.274 C 
BRANCH  11  12
HETATM   12  C   UNL     1       5.178  29.815  55.963  1.00  0.00    -0.032 A 
HETATM   13  C   UNL     1       3.949  30.193  56.522  1.00  0.00     0.011 A 
HETATM   14  C   UNL     1       3.879  30.906  57.723  1.00  0.00     0.031 A 
HETATM   15  C   UNL     1       5.083  31.230  58.354  1.00  0.00     0.042 A 
HETATM   16  C   UNL     1       6.326  30.872  57.834  1.00  0.00    -0.008 A 
HETATM   17  N   UNL     1       5.315  31.901  59.534  1.00  0.00    -0.365 N 
HETATM   18  C   UNL     1       6.376  30.155  56.622  1.00  0.00     0.022 A 
HETATM   19  C   UNL     1       7.313  31.350  58.738  1.00  0.00     0.030 A 
HETATM   20  C   UNL     1       6.661  31.980  59.773  1.00  0.00     0.089 A 
HETATM   21  H   UNL     1       4.595  32.271  60.142  1.00  0.00     0.165 HD
ENDBRANCH  11  12
ENDBRANCH   1  11
BRANCH   5  22
HETATM   22  C   UNL     1       7.250  23.458  55.904  1.00  0.00     0.311 C 
BRANCH  22  23
HETATM   23  C   UNL     1       7.775  22.261  55.145  1.00  0.00    -0.027 A 
HETATM   24  C   UNL     1       7.933  21.023  55.778  1.00  0.00     0.028 A 
HETATM   25  C   UNL     1       8.425  19.957  55.044  1.00  0.00     0.116 A 
HETATM   26  N   UNL     1       8.762  20.038  53.740  1.00  0.00    -0.273 NA
HETATM   27  C   UNL     1       8.587  21.232  53.139  1.00  0.00     0.116 A 
HETATM   28  C   UNL     1       8.103  22.359  53.789  1.00  0.00     0.028 A 
ENDBRANCH  22  23
ENDBRANCH   5  22
TORSDOF 4
ENDMDL
MODEL 10
REMARK VINA RESULT:      -8.0      3.328      8.428
REMARK  4 active torsions:
REMARK  status: ('A' for Active; 'I' for Inactive)
REMARK    1  A    between atoms: C_2  and  C_3 
REMARK    2  A    between atoms: C_3  and  N_4 
REMARK    3  A    between atoms: N_8  and  C_9 
REMARK    4  A    between atoms: C_9  and  C_10 
ROOT
HETATM    1  N   UNL     1       7.013  27.016  54.614  1.00  0.00    -0.061 N 
HETATM    2  H   UNL     1       7.152  28.018  54.445  1.00  0.00     0.280 HD
HETATM    3  C   UNL     1       5.499  26.798  54.578  1.00  0.00     0.216 C 
HETATM    4  C   UNL     1       4.864  27.667  53.452  1.00  0.00     0.305 C 
HETATM    5  N   UNL     1       4.840  27.063  52.119  1.00  0.00     0.095 N 
HETATM    6  C   UNL     1       6.136  26.607  51.616  1.00  0.00     0.279 C 
HETATM    7  C   UNL     1       6.860  25.601  52.532  1.00  0.00     0.040 C 
HETATM    8  C   UNL     1       7.774  26.287  53.536  1.00  0.00     0.242 C 
HETATM    9  C   UNL     1       5.191  25.305  54.443  1.00  0.00     0.035 C 
HETATM   10  C   UNL     1       5.900  24.645  53.255  1.00  0.00     0.010 C 
ENDROOT
BRANCH   1  11
HETATM   11  C   UNL     1       7.639  26.778  55.979  1.00  0.00     0.274 C 
BRANCH  11  12
HETATM   12  C   UNL     1       7.913  28.039  56.754  1.00  0.00    -0.032 A 
HETATM   13  C   UNL     1       6.887  28.657  57.483  1.00  0.00     0.011 A 
HETATM   14  C   UNL     1       7.111  29.829  58.211  1.00  0.00     0.031 A 
HETATM   15  C   UNL     1       8.401  30.366  58.192  1.00  0.00     0.042 A 
HETATM   16  C   UNL     1       9.449  29.782  57.483  1.00  0.00    -0.008 A 
HETATM   17  N   UNL     1       8.907  31.484  58.819  1.00  0.00    -0.365 N 
HETATM   18  C   UNL     1       9.203  28.602  56.753  1.00  0.00     0.022 A 
HETATM   19  C   UNL     1      10.602  30.585  57.701  1.00  0.00     0.030 A 
HETATM   20  C   UNL     1      10.238  31.625  58.525  1.00  0.00     0.089 A 
HETATM   21  H   UNL     1       8.376  32.102  59.418  1.00  0.00     0.165 HD
ENDBRANCH  11  12
ENDBRANCH   1  11
BRANCH   5  22
HETATM   22  C   UNL     1       4.140  27.936  51.152  1.00  0.00     0.311 C 
BRANCH  22  23
HETATM   23  C   UNL     1       4.442  27.592  49.711  1.00  0.00    -0.027 A 
HETATM   24  C   UNL     1       3.974  26.400  49.146  1.00  0.00     0.028 A 
HETATM   25  C   UNL     1       4.284  26.123  47.824  1.00  0.00     0.116 A 
HETATM   26  N   UNL     1       5.012  26.943  47.038  1.00  0.00    -0.273 NA
HETATM   27  C   UNL     1       5.440  28.096  47.592  1.00  0.00     0.116 A 
HETATM   28  C   UNL     1       5.185  28.461  48.906  1.00  0.00     0.028 A 
ENDBRANCH  22  23
ENDBRANCH   5  22
TORSDOF 4
ENDMDL
