MODEL 1
REMARK VINA RESULT:     -10.4      0.000      0.000
REMARK  6 active torsions:
REMARK  status: ('A' for Active; 'I' for Inactive)
REMARK    1  A    between atoms: C_6  and  N_7 
REMARK    2  A    between atoms: N_7  and  C_8 
REMARK    3  A    between atoms: C_8  and  N_9 
REMARK    4  A    between atoms: C_12  and  C_13 
REMARK    5  A    between atoms: N_15  and  C_16 
REMARK    6  A    between atoms: C_22  and  O_23 
ROOT
HETATM    1  N   UNL     1       7.872  29.047  57.175  1.00  0.00    -0.358 N 
HETATM    2  C   UNL     1       8.026  27.631  57.521  1.00  0.00     0.126 C 
HETATM    3  C   UNL     1       6.703  26.886  57.387  1.00  0.00     0.031 C 
HETATM    4  C   UNL     1       6.103  27.024  55.981  1.00  0.00     0.043 C 
HETATM    5  C   UNL     1       6.040  28.502  55.569  1.00  0.00     0.031 C 
HETATM    6  C   UNL     1       7.339  29.266  55.823  1.00  0.00     0.126 C 
ENDROOT
BRANCH   4   7
HETATM    7  C   UNL     1       6.791  26.121  54.989  1.00  0.00     0.063 C 
HETATM    8  N   UNL     1       6.851  24.798  55.162  1.00  0.00    -0.169 NA
HETATM    9  N   UNL     1       7.566  24.328  54.102  1.00  0.00    -0.211 N 
HETATM   10  C   UNL     1       7.777  25.339  53.162  1.00  0.00     0.165 C 
HETATM   11  C   UNL     1       7.379  26.508  53.765  1.00  0.00     0.087 C 
BRANCH   9  12
HETATM   12  C   UNL     1       7.988  22.968  54.074  1.00  0.00     0.061 A 
HETATM   13  C   UNL     1       8.693  22.449  55.172  1.00  0.00     0.031 A 
HETATM   14  C   UNL     1       9.114  21.116  55.173  1.00  0.00     0.002 A 
HETATM   15  C   UNL     1       8.850  20.300  54.076  1.00  0.00     0.000 A 
HETATM   16  C   UNL     1       8.176  20.815  52.970  1.00  0.00     0.002 A 
HETATM   17  C   UNL     1       7.750  22.147  52.963  1.00  0.00     0.031 A 
ENDBRANCH   9  12
BRANCH  10  18
HETATM   18  O   UNL     1       8.234  25.168  51.921  1.00  0.00    -0.345 OA
HETATM   19  H   UNL     1       8.250  24.212  51.729  1.00  0.00     0.219 HD
ENDBRANCH  10  18
ENDBRANCH   4   7
BRANCH   1  20
HETATM   20  C   UNL     1       8.794  29.979  57.638  1.00  0.00     0.174 C 
HETATM   21  S   UNL     1      10.458  29.890  57.407  1.00  0.00    -0.041 SA
BRANCH  20  22
HETATM   22  N   UNL     1       8.335  31.097  58.277  1.00  0.00    -0.333 N 
HETATM   23  H   UNL     1       8.208  31.878  57.642  1.00  0.00     0.168 HD
BRANCH  22  24
HETATM   24  C   UNL     1       8.274  31.428  59.648  1.00  0.00     0.034 A 
HETATM   25  C   UNL     1       7.228  32.269  60.051  1.00  0.00     0.036 A 
HETATM   26  C   UNL     1       7.100  32.697  61.386  1.00  0.00    -0.054 A 
HETATM   27  C   UNL     1       8.059  32.292  62.331  1.00  0.00    -0.056 A 
HETATM   28  C   UNL     1       5.966  33.614  61.756  1.00  0.00     0.049 C 
HETATM   29  C   UNL     1       7.977  32.716  63.772  1.00  0.00     0.049 C 
HETATM   30  C   UNL     1       9.105  31.453  61.922  1.00  0.00     0.009 A 
HETATM   31  C   UNL     1       9.217  31.035  60.592  1.00  0.00     0.030 A 
ENDBRANCH  22  24
ENDBRANCH  20  22
ENDBRANCH   1  20
TORSDOF 6
ENDMDL
MODEL 2
REMARK VINA RESULT:     -10.4      2.767     10.394
REMARK  6 active torsions:
REMARK  status: ('A' for Active; 'I' for Inactive)
REMARK    1  A    between atoms: C_6  and  N_7 
REMARK    2  A    between atoms: N_7  and  C_8 
REMARK    3  A    between atoms: C_8  and  N_9 
REMARK    4  A    between atoms: C_12  and  C_13 
REMARK    5  A    between atoms: N_15  and  C_16 
REMARK    6  A    between atoms: C_22  and  O_23 
ROOT
HETATM    1  N   UNL     1       7.041  27.492  56.768  1.00  0.00    -0.358 N 
HETATM    2  C   UNL     1       8.407  27.953  57.034  1.00  0.00     0.126 C 
HETATM    3  C   UNL     1       8.582  29.413  56.632  1.00  0.00     0.031 C 
HETATM    4  C   UNL     1       7.570  30.329  57.333  1.00  0.00     0.043 C 
HETATM    5  C   UNL     1       6.143  29.790  57.150  1.00  0.00     0.031 C 
HETATM    6  C   UNL     1       6.010  28.295  57.440  1.00  0.00     0.126 C 
ENDROOT
BRANCH   4   7
HETATM    7  C   UNL     1       7.961  30.604  58.763  1.00  0.00     0.063 C 
HETATM    8  N   UNL     1       7.195  31.337  59.576  1.00  0.00    -0.169 NA
HETATM    9  N   UNL     1       7.875  31.398  60.754  1.00  0.00    -0.211 N 
HETATM   10  C   UNL     1       8.969  30.531  60.737  1.00  0.00     0.165 C 
HETATM   11  C   UNL     1       9.093  30.100  59.438  1.00  0.00     0.087 C 
BRANCH   9  12
HETATM   12  C   UNL     1       7.431  32.271  61.789  1.00  0.00     0.061 A 
HETATM   13  C   UNL     1       6.402  33.186  61.516  1.00  0.00     0.031 A 
HETATM   14  C   UNL     1       5.944  34.050  62.513  1.00  0.00     0.002 A 
HETATM   15  C   UNL     1       6.519  34.020  63.781  1.00  0.00     0.000 A 
HETATM   16  C   UNL     1       7.561  33.134  64.053  1.00  0.00     0.002 A 
HETATM   17  C   UNL     1       8.023  32.264  63.060  1.00  0.00     0.031 A 
ENDBRANCH   9  12
BRANCH  10  18
HETATM   18  O   UNL     1       9.701  30.178  61.794  1.00  0.00    -0.345 OA
HETATM   19  H   UNL     1      10.628  30.081  61.508  1.00  0.00     0.219 HD
ENDBRANCH  10  18
ENDBRANCH   4   7
BRANCH   1  20
HETATM   20  C   UNL     1       6.781  26.133  56.635  1.00  0.00     0.174 C 
HETATM   21  S   UNL     1       5.281  25.408  56.868  1.00  0.00    -0.041 SA
BRANCH  20  22
HETATM   22  N   UNL     1       7.790  25.308  56.221  1.00  0.00    -0.333 N 
HETATM   23  H   UNL     1       8.707  25.697  56.411  1.00  0.00     0.168 HD
BRANCH  22  24
HETATM   24  C   UNL     1       7.785  24.188  55.362  1.00  0.00     0.034 A 
HETATM   25  C   UNL     1       7.886  22.927  55.964  1.00  0.00     0.036 A 
HETATM   26  C   UNL     1       7.935  21.746  55.199  1.00  0.00    -0.054 A 
HETATM   27  C   UNL     1       7.909  21.838  53.795  1.00  0.00    -0.056 A 
HETATM   28  C   UNL     1       8.060  20.422  55.900  1.00  0.00     0.049 C 
HETATM   29  C   UNL     1       7.959  20.613  52.922  1.00  0.00     0.049 C 
HETATM   30  C   UNL     1       7.811  23.102  53.197  1.00  0.00     0.009 A 
HETATM   31  C   UNL     1       7.762  24.265  53.973  1.00  0.00     0.030 A 
ENDBRANCH  22  24
ENDBRANCH  20  22
ENDBRANCH   1  20
TORSDOF 6
ENDMDL
MODEL 3
REMARK VINA RESULT:     -10.2      2.716      9.871
REMARK  6 active torsions:
REMARK  status: ('A' for Active; 'I' for Inactive)
REMARK    1  A    between atoms: C_6  and  N_7 
REMARK    2  A    between atoms: N_7  and  C_8 
REMARK    3  A    between atoms: C_8  and  N_9 
REMARK    4  A    between atoms: C_12  and  C_13 
REMARK    5  A    between atoms: N_15  and  C_16 
REMARK    6  A    between atoms: C_22  and  O_23 
ROOT
HETATM    1  N   UNL     1       6.508  27.398  55.566  1.00  0.00    -0.358 N 
HETATM    2  C   UNL     1       6.281  27.298  57.011  1.00  0.00     0.126 C 
HETATM    3  C   UNL     1       7.587  27.442  57.784  1.00  0.00     0.031 C 
HETATM    4  C   UNL     1       8.311  28.753  57.453  1.00  0.00     0.043 C 
HETATM    5  C   UNL     1       8.457  28.915  55.932  1.00  0.00     0.031 C 
HETATM    6  C   UNL     1       7.165  28.648  55.161  1.00  0.00     0.126 C 
ENDROOT
BRANCH   4   7
HETATM    7  C   UNL     1       7.686  29.931  58.155  1.00  0.00     0.063 C 
HETATM    8  N   UNL     1       8.041  30.284  59.394  1.00  0.00    -0.169 NA
HETATM    9  N   UNL     1       7.253  31.351  59.704  1.00  0.00    -0.211 N 
HETATM   10  C   UNL     1       6.550  31.788  58.580  1.00  0.00     0.165 C 
HETATM   11  C   UNL     1       6.739  30.827  57.616  1.00  0.00     0.087 C 
BRANCH   9  12
HETATM   12  C   UNL     1       7.233  31.859  61.035  1.00  0.00     0.061 A 
HETATM   13  C   UNL     1       8.425  31.877  61.777  1.00  0.00     0.031 A 
HETATM   14  C   UNL     1       8.436  32.375  63.082  1.00  0.00     0.002 A 
HETATM   15  C   UNL     1       7.258  32.841  63.661  1.00  0.00     0.000 A 
HETATM   16  C   UNL     1       6.064  32.800  62.942  1.00  0.00     0.002 A 
HETATM   17  C   UNL     1       6.047  32.305  61.634  1.00  0.00     0.031 A 
ENDBRANCH   9  12
BRANCH  10  18
HETATM   18  O   UNL     1       5.875  32.934  58.479  1.00  0.00    -0.345 OA
HETATM   19  H   UNL     1       5.092  32.882  59.058  1.00  0.00     0.219 HD
ENDBRANCH  10  18
ENDBRANCH   4   7
BRANCH   1  20
HETATM   20  C   UNL     1       5.579  26.868  54.679  1.00  0.00     0.174 C 
HETATM   21  S   UNL     1       4.717  27.754  53.537  1.00  0.00    -0.041 SA
BRANCH  20  22
HETATM   22  N   UNL     1       5.376  25.515  54.669  1.00  0.00    -0.333 N 
HETATM   23  H   UNL     1       4.538  25.248  55.173  1.00  0.00     0.168 HD
BRANCH  22  24
HETATM   24  C   UNL     1       6.237  24.446  54.335  1.00  0.00     0.034 A 
HETATM   25  C   UNL     1       6.801  23.731  55.400  1.00  0.00     0.036 A 
HETATM   26  C   UNL     1       7.707  22.677  55.181  1.00  0.00    -0.054 A 
HETATM   27  C   UNL     1       8.074  22.351  53.863  1.00  0.00    -0.056 A 
HETATM   28  C   UNL     1       8.293  21.956  56.364  1.00  0.00     0.049 C 
HETATM   29  C   UNL     1       9.038  21.235  53.564  1.00  0.00     0.049 C 
HETATM   30  C   UNL     1       7.510  23.071  52.802  1.00  0.00     0.009 A 
HETATM   31  C   UNL     1       6.609  24.116  53.037  1.00  0.00     0.030 A 
ENDBRANCH  22  24
ENDBRANCH  20  22
ENDBRANCH   1  20
TORSDOF 6
ENDMDL
MODEL 4
REMARK VINA RESULT:     -10.2      3.011     10.345
REMARK  6 active torsions:
REMARK  status: ('A' for Active; 'I' for Inactive)
REMARK    1  A    between atoms: C_6  and  N_7 
REMARK    2  A    between atoms: N_7  and  C_8 
REMARK    3  A    between atoms: C_8  and  N_9 
REMARK    4  A    between atoms: C_12  and  C_13 
REMARK    5  A    between atoms: N_15  and  C_16 
REMARK    6  A    between atoms: C_22  and  O_23 
ROOT
HETATM    1  N   UNL     1       6.946  28.673  57.094  1.00  0.00    -0.358 N 
HETATM    2  C   UNL     1       8.270  28.676  57.724  1.00  0.00     0.126 C 
HETATM    3  C   UNL     1       8.901  30.062  57.671  1.00  0.00     0.031 C 
HETATM    4  C   UNL     1       8.007  31.128  58.319  1.00  0.00     0.043 C 
HETATM    5  C   UNL     1       6.586  31.059  57.739  1.00  0.00     0.031 C 
HETATM    6  C   UNL     1       6.013  29.642  57.686  1.00  0.00     0.126 C 
ENDROOT
BRANCH   4   7
HETATM    7  C   UNL     1       8.077  31.078  59.823  1.00  0.00     0.063 C 
HETATM    8  N   UNL     1       7.226  31.762  60.593  1.00  0.00    -0.169 NA
HETATM    9  N   UNL     1       7.611  31.505  61.874  1.00  0.00    -0.211 N 
HETATM   10  C   UNL     1       8.576  30.496  61.905  1.00  0.00     0.165 C 
HETATM   11  C   UNL     1       8.955  30.292  60.600  1.00  0.00     0.087 C 
BRANCH   9  12
HETATM   12  C   UNL     1       7.033  32.236  62.952  1.00  0.00     0.061 A 
HETATM   13  C   UNL     1       7.877  32.911  63.848  1.00  0.00     0.031 A 
HETATM   14  C   UNL     1       7.337  33.640  64.911  1.00  0.00     0.002 A 
HETATM   15  C   UNL     1       5.958  33.687  65.096  1.00  0.00     0.000 A 
HETATM   16  C   UNL     1       5.114  32.995  64.228  1.00  0.00     0.002 A 
HETATM   17  C   UNL     1       5.648  32.265  63.161  1.00  0.00     0.031 A 
ENDBRANCH   9  12
BRANCH  10  18
HETATM   18  O   UNL     1       8.994  29.851  62.994  1.00  0.00    -0.345 OA
HETATM   19  H   UNL     1       9.421  29.020  62.715  1.00  0.00     0.219 HD
ENDBRANCH  10  18
ENDBRANCH   4   7
BRANCH   1  20
HETATM   20  C   UNL     1       6.396  27.481  56.638  1.00  0.00     0.174 C 
HETATM   21  S   UNL     1       4.924  27.339  55.836  1.00  0.00    -0.041 SA
BRANCH  20  22
HETATM   22  N   UNL     1       7.117  26.328  56.781  1.00  0.00    -0.333 N 
HETATM   23  H   UNL     1       7.751  26.366  57.571  1.00  0.00     0.168 HD
BRANCH  22  24
HETATM   24  C   UNL     1       7.330  25.246  55.898  1.00  0.00     0.034 A 
HETATM   25  C   UNL     1       7.549  25.561  54.551  1.00  0.00     0.036 A 
HETATM   26  C   UNL     1       7.727  24.558  53.579  1.00  0.00    -0.054 A 
HETATM   27  C   UNL     1       7.657  23.208  53.967  1.00  0.00    -0.056 A 
HETATM   28  C   UNL     1       7.943  24.957  52.145  1.00  0.00     0.049 C 
HETATM   29  C   UNL     1       7.839  22.091  52.976  1.00  0.00     0.049 C 
HETATM   30  C   UNL     1       7.434  22.898  55.315  1.00  0.00     0.009 A 
HETATM   31  C   UNL     1       7.261  23.907  56.269  1.00  0.00     0.030 A 
ENDBRANCH  22  24
ENDBRANCH  20  22
ENDBRANCH   1  20
TORSDOF 6
ENDMDL
MODEL 5
REMARK VINA RESULT:     -10.1      1.753      2.507
REMARK  6 active torsions:
REMARK  status: ('A' for Active; 'I' for Inactive)
REMARK    1  A    between atoms: C_6  and  N_7 
REMARK    2  A    between atoms: N_7  and  C_8 
REMARK    3  A    between atoms: C_8  and  N_9 
REMARK    4  A    between atoms: C_12  and  C_13 
REMARK    5  A    between atoms: N_15  and  C_16 
REMARK    6  A    between atoms: C_22  and  O_23 
ROOT
HETATM    1  N   UNL     1       8.154  30.245  57.814  1.00  0.00    -0.358 N 
HETATM    2  C   UNL     1       6.722  29.954  57.695  1.00  0.00     0.126 C 
HETATM    3  C   UNL     1       6.280  29.958  56.236  1.00  0.00     0.031 C 
HETATM    4  C   UNL     1       7.092  28.972  55.385  1.00  0.00     0.043 C 
HETATM    5  C   UNL     1       8.598  29.201  55.590  1.00  0.00     0.031 C 
HETATM    6  C   UNL     1       9.006  29.317  57.059  1.00  0.00     0.126 C 
ENDROOT
BRANCH   4   7
HETATM    7  C   UNL     1       6.637  27.550  55.591  1.00  0.00     0.063 C 
HETATM    8  N   UNL     1       7.399  26.508  55.247  1.00  0.00    -0.169 NA
HETATM    9  N   UNL     1       6.657  25.405  55.543  1.00  0.00    -0.211 N 
HETATM   10  C   UNL     1       5.514  25.758  56.263  1.00  0.00     0.165 C 
HETATM   11  C   UNL     1       5.439  27.129  56.207  1.00  0.00     0.087 C 
BRANCH   9  12
HETATM   12  C   UNL     1       7.094  24.117  55.119  1.00  0.00     0.061 A 
HETATM   13  C   UNL     1       7.068  23.804  53.750  1.00  0.00     0.031 A 
HETATM   14  C   UNL     1       7.496  22.550  53.306  1.00  0.00     0.002 A 
HETATM   15  C   UNL     1       7.935  21.597  54.222  1.00  0.00     0.000 A 
HETATM   16  C   UNL     1       7.937  21.890  55.585  1.00  0.00     0.002 A 
HETATM   17  C   UNL     1       7.512  23.143  56.037  1.00  0.00     0.031 A 
ENDBRANCH   9  12
BRANCH  10  18
HETATM   18  O   UNL     1       4.702  24.915  56.900  1.00  0.00    -0.345 OA
HETATM   19  H   UNL     1       5.246  24.319  57.448  1.00  0.00     0.219 HD
ENDBRANCH  10  18
ENDBRANCH   4   7
BRANCH   1  20
HETATM   20  C   UNL     1       8.667  30.723  59.014  1.00  0.00     0.174 C 
HETATM   21  S   UNL     1      10.085  31.615  59.173  1.00  0.00    -0.041 SA
BRANCH  20  22
HETATM   22  N   UNL     1       7.952  30.522  60.162  1.00  0.00    -0.333 N 
HETATM   23  H   UNL     1       7.378  29.687  60.116  1.00  0.00     0.168 HD
BRANCH  22  24
HETATM   24  C   UNL     1       7.667  31.381  61.246  1.00  0.00     0.034 A 
HETATM   25  C   UNL     1       6.725  32.393  61.023  1.00  0.00     0.036 A 
HETATM   26  C   UNL     1       6.400  33.331  62.020  1.00  0.00    -0.054 A 
HETATM   27  C   UNL     1       7.058  33.266  63.262  1.00  0.00    -0.056 A 
HETATM   28  C   UNL     1       5.393  34.406  61.717  1.00  0.00     0.049 C 
HETATM   29  C   UNL     1       6.755  34.241  64.368  1.00  0.00     0.049 C 
HETATM   30  C   UNL     1       8.002  32.254  63.480  1.00  0.00     0.009 A 
HETATM   31  C   UNL     1       8.312  31.328  62.478  1.00  0.00     0.030 A 
ENDBRANCH  22  24
ENDBRANCH  20  22
ENDBRANCH   1  20
TORSDOF 6
ENDMDL
MODEL 6
REMARK VINA RESULT:      -9.8      2.099      2.859
REMARK  6 active torsions:
REMARK  status: ('A' for Active; 'I' for Inactive)
REMARK    1  A    between atoms: C_6  and  N_7 
REMARK    2  A    between atoms: N_7  and  C_8 
REMARK    3  A    between atoms: C_8  and  N_9 
REMARK    4  A    between atoms: C_12  and  C_13 
REMARK    5  A    between atoms: N_15  and  C_16 
REMARK    6  A    between atoms: C_22  and  O_23 
ROOT
HETATM    1  N   UNL     1       6.061  29.584  56.532  1.00  0.00    -0.358 N 
HETATM    2  C   UNL     1       5.280  28.355  56.363  1.00  0.00     0.126 C 
HETATM    3  C   UNL     1       5.546  27.717  55.004  1.00  0.00     0.031 C 
HETATM    4  C   UNL     1       7.038  27.430  54.785  1.00  0.00     0.043 C 
HETATM    5  C   UNL     1       7.873  28.688  55.067  1.00  0.00     0.031 C 
HETATM    6  C   UNL     1       7.508  29.385  56.377  1.00  0.00     0.126 C 
ENDROOT
BRANCH   4   7
HETATM    7  C   UNL     1       7.486  26.197  55.528  1.00  0.00     0.063 C 
HETATM    8  N   UNL     1       7.712  25.039  54.902  1.00  0.00    -0.169 NA
HETATM    9  N   UNL     1       8.060  24.161  55.884  1.00  0.00    -0.211 N 
HETATM   10  C   UNL     1       8.248  24.826  57.097  1.00  0.00     0.165 C 
HETATM   11  C   UNL     1       7.783  26.105  56.905  1.00  0.00     0.087 C 
BRANCH   9  12
HETATM   12  C   UNL     1       8.182  22.773  55.587  1.00  0.00     0.061 A 
HETATM   13  C   UNL     1       8.073  22.347  54.254  1.00  0.00     0.031 A 
HETATM   14  C   UNL     1       8.194  20.992  53.935  1.00  0.00     0.002 A 
HETATM   15  C   UNL     1       8.407  20.054  54.942  1.00  0.00     0.000 A 
HETATM   16  C   UNL     1       8.487  20.465  56.272  1.00  0.00     0.002 A 
HETATM   17  C   UNL     1       8.369  21.819  56.598  1.00  0.00     0.031 A 
ENDBRANCH   9  12
BRANCH  10  18
HETATM   18  O   UNL     1       8.807  24.310  58.191  1.00  0.00    -0.345 OA
HETATM   19  H   UNL     1       8.589  23.360  58.229  1.00  0.00     0.219 HD
ENDBRANCH  10  18
ENDBRANCH   4   7
BRANCH   1  20
HETATM   20  C   UNL     1       5.660  30.538  57.460  1.00  0.00     0.174 C 
HETATM   21  S   UNL     1       4.103  30.692  58.078  1.00  0.00    -0.041 SA
BRANCH  20  22
HETATM   22  N   UNL     1       6.599  31.389  57.975  1.00  0.00    -0.333 N 
HETATM   23  H   UNL     1       7.294  31.656  57.287  1.00  0.00     0.168 HD
BRANCH  22  24
HETATM   24  C   UNL     1       6.920  31.727  59.308  1.00  0.00     0.034 A 
HETATM   25  C   UNL     1       7.938  30.985  59.922  1.00  0.00     0.036 A 
HETATM   26  C   UNL     1       8.306  31.208  61.262  1.00  0.00    -0.054 A 
HETATM   27  C   UNL     1       7.618  32.181  62.009  1.00  0.00    -0.056 A 
HETATM   28  C   UNL     1       9.395  30.370  61.873  1.00  0.00     0.049 C 
HETATM   29  C   UNL     1       7.965  32.466  63.445  1.00  0.00     0.049 C 
HETATM   30  C   UNL     1       6.598  32.918  61.392  1.00  0.00     0.009 A 
HETATM   31  C   UNL     1       6.245  32.684  60.058  1.00  0.00     0.030 A 
ENDBRANCH  22  24
ENDBRANCH  20  22
ENDBRANCH   1  20
TORSDOF 6
ENDMDL
MODEL 7
REMARK VINA RESULT:      -9.3      3.130     10.228
REMARK  6 active torsions:
REMARK  status: ('A' for Active; 'I' for Inactive)
REMARK    1  A    between atoms: C_6  and  N_7 
REMARK    2  A    between atoms: N_7  and  C_8 
REMARK    3  A    between atoms: C_8  and  N_9 
REMARK    4  A    between atoms: C_12  and  C_13 
REMARK    5  A    between atoms: N_15  and  C_16 
REMARK    6  A    between atoms: C_22  and  O_23 
ROOT
HETATM    1  N   UNL     1       6.447  28.056  56.975  1.00  0.00    -0.358 N 
HETATM    2  C   UNL     1       7.367  28.742  57.887  1.00  0.00     0.126 C 
HETATM    3  C   UNL     1       7.712  30.136  57.374  1.00  0.00     0.031 C 
HETATM    4  C   UNL     1       6.459  30.991  57.145  1.00  0.00     0.043 C 
HETATM    5  C   UNL     1       5.443  30.232  56.278  1.00  0.00     0.031 C 
HETATM    6  C   UNL     1       5.200  28.794  56.735  1.00  0.00     0.126 C 
ENDROOT
BRANCH   4   7
HETATM    7  C   UNL     1       5.905  31.530  58.440  1.00  0.00     0.063 C 
HETATM    8  N   UNL     1       6.698  32.008  59.402  1.00  0.00    -0.169 NA
HETATM    9  N   UNL     1       5.860  32.364  60.416  1.00  0.00    -0.211 N 
HETATM   10  C   UNL     1       4.528  32.296  60.002  1.00  0.00     0.165 C 
HETATM   11  C   UNL     1       4.542  31.666  58.781  1.00  0.00     0.087 C 
BRANCH   9  12
HETATM   12  C   UNL     1       6.393  32.735  61.684  1.00  0.00     0.061 A 
HETATM   13  C   UNL     1       7.376  31.925  62.275  1.00  0.00     0.031 A 
HETATM   14  C   UNL     1       7.920  32.268  63.515  1.00  0.00     0.002 A 
HETATM   15  C   UNL     1       7.477  33.408  64.181  1.00  0.00     0.000 A 
HETATM   16  C   UNL     1       6.482  34.203  63.614  1.00  0.00     0.002 A 
HETATM   17  C   UNL     1       5.934  33.867  62.372  1.00  0.00     0.031 A 
ENDBRANCH   9  12
BRANCH  10  18
HETATM   18  O   UNL     1       3.481  32.790  60.662  1.00  0.00    -0.345 OA
HETATM   19  H   UNL     1       3.318  32.231  61.443  1.00  0.00     0.219 HD
ENDBRANCH  10  18
ENDBRANCH   4   7
BRANCH   1  20
HETATM   20  C   UNL     1       6.354  26.669  56.997  1.00  0.00     0.174 C 
HETATM   21  S   UNL     1       4.937  25.799  57.256  1.00  0.00    -0.041 SA
BRANCH  20  22
HETATM   22  N   UNL     1       7.472  25.930  56.727  1.00  0.00    -0.333 N 
HETATM   23  H   UNL     1       8.319  26.379  57.059  1.00  0.00     0.168 HD
BRANCH  22  24
HETATM   24  C   UNL     1       7.680  24.836  55.858  1.00  0.00     0.034 A 
HETATM   25  C   UNL     1       7.656  25.105  54.484  1.00  0.00     0.036 A 
HETATM   26  C   UNL     1       7.807  24.081  53.530  1.00  0.00    -0.054 A 
HETATM   27  C   UNL     1       7.958  22.753  53.968  1.00  0.00    -0.056 A 
HETATM   28  C   UNL     1       7.756  24.427  52.067  1.00  0.00     0.049 C 
HETATM   29  C   UNL     1       8.123  21.614  52.999  1.00  0.00     0.049 C 
HETATM   30  C   UNL     1       7.978  22.489  55.345  1.00  0.00     0.009 A 
HETATM   31  C   UNL     1       7.828  23.519  56.279  1.00  0.00     0.030 A 
ENDBRANCH  22  24
ENDBRANCH  20  22
ENDBRANCH   1  20
TORSDOF 6
ENDMDL
MODEL 8
REMARK VINA RESULT:      -9.3      4.553      8.388
REMARK  6 active torsions:
REMARK  status: ('A' for Active; 'I' for Inactive)
REMARK    1  A    between atoms: C_6  and  N_7 
REMARK    2  A    between atoms: N_7  and  C_8 
REMARK    3  A    between atoms: C_8  and  N_9 
REMARK    4  A    between atoms: C_12  and  C_13 
REMARK    5  A    between atoms: N_15  and  C_16 
REMARK    6  A    between atoms: C_22  and  O_23 
ROOT
HETATM    1  N   UNL     1       5.696  28.400  53.674  1.00  0.00    -0.358 N 
HETATM    2  C   UNL     1       7.034  27.841  53.456  1.00  0.00     0.126 C 
HETATM    3  C   UNL     1       7.978  28.215  54.593  1.00  0.00     0.031 C 
HETATM    4  C   UNL     1       7.437  27.773  55.959  1.00  0.00     0.043 C 
HETATM    5  C   UNL     1       5.994  28.264  56.149  1.00  0.00     0.031 C 
HETATM    6  C   UNL     1       5.090  27.990  54.948  1.00  0.00     0.126 C 
ENDROOT
BRANCH   4   7
HETATM    7  C   UNL     1       7.636  26.296  56.188  1.00  0.00     0.063 C 
HETATM    8  N   UNL     1       7.789  25.439  55.175  1.00  0.00    -0.169 NA
HETATM    9  N   UNL     1       7.905  24.212  55.754  1.00  0.00    -0.211 N 
HETATM   10  C   UNL     1       8.028  24.331  57.140  1.00  0.00     0.165 C 
HETATM   11  C   UNL     1       7.753  25.645  57.434  1.00  0.00     0.087 C 
BRANCH   9  12
HETATM   12  C   UNL     1       7.887  23.038  54.947  1.00  0.00     0.061 A 
HETATM   13  C   UNL     1       7.868  21.781  55.571  1.00  0.00     0.031 A 
HETATM   14  C   UNL     1       7.845  20.613  54.804  1.00  0.00     0.002 A 
HETATM   15  C   UNL     1       7.856  20.691  53.414  1.00  0.00     0.000 A 
HETATM   16  C   UNL     1       7.904  21.935  52.786  1.00  0.00     0.002 A 
HETATM   17  C   UNL     1       7.925  23.108  53.548  1.00  0.00     0.031 A 
ENDBRANCH   9  12
BRANCH  10  18
HETATM   18  O   UNL     1       8.385  23.357  57.978  1.00  0.00    -0.345 OA
HETATM   19  H   UNL     1       9.071  23.703  58.578  1.00  0.00     0.219 HD
ENDBRANCH  10  18
ENDBRANCH   4   7
BRANCH   1  20
HETATM   20  C   UNL     1       4.830  28.569  52.599  1.00  0.00     0.174 C 
HETATM   21  S   UNL     1       3.244  29.117  52.713  1.00  0.00    -0.041 SA
BRANCH  20  22
HETATM   22  N   UNL     1       5.299  28.339  51.335  1.00  0.00    -0.333 N 
HETATM   23  H   UNL     1       6.077  28.945  51.098  1.00  0.00     0.168 HD
BRANCH  22  24
HETATM   24  C   UNL     1       4.739  27.634  50.247  1.00  0.00     0.034 A 
HETATM   25  C   UNL     1       4.110  28.397  49.254  1.00  0.00     0.036 A 
HETATM   26  C   UNL     1       3.481  27.794  48.150  1.00  0.00    -0.054 A 
HETATM   27  C   UNL     1       3.460  26.390  48.055  1.00  0.00    -0.056 A 
HETATM   28  C   UNL     1       2.807  28.663  47.124  1.00  0.00     0.049 C 
HETATM   29  C   UNL     1       2.803  25.686  46.899  1.00  0.00     0.049 C 
HETATM   30  C   UNL     1       4.087  25.632  49.052  1.00  0.00     0.009 A 
HETATM   31  C   UNL     1       4.710  26.248  50.143  1.00  0.00     0.030 A 
ENDBRANCH  22  24
ENDBRANCH  20  22
ENDBRANCH   1  20
TORSDOF 6
ENDMDL
MODEL 9
REMARK VINA RESULT:      -9.2      3.128      9.815
REMARK  6 active torsions:
REMARK  status: ('A' for Active; 'I' for Inactive)
REMARK    1  A    between atoms: C_6  and  N_7 
REMARK    2  A    between atoms: N_7  and  C_8 
REMARK    3  A    between atoms: C_8  and  N_9 
REMARK    4  A    between atoms: C_12  and  C_13 
REMARK    5  A    between atoms: N_15  and  C_16 
REMARK    6  A    between atoms: C_22  and  O_23 
ROOT
HETATM    1  N   UNL     1       6.853  27.239  55.408  1.00  0.00    -0.358 N 
HETATM    2  C   UNL     1       6.916  26.993  56.852  1.00  0.00     0.126 C 
HETATM    3  C   UNL     1       8.297  27.323  57.406  1.00  0.00     0.031 C 
HETATM    4  C   UNL     1       8.712  28.768  57.098  1.00  0.00     0.043 C 
HETATM    5  C   UNL     1       8.545  29.066  55.600  1.00  0.00     0.031 C 
HETATM    6  C   UNL     1       7.198  28.617  55.032  1.00  0.00     0.126 C 
ENDROOT
BRANCH   4   7
HETATM    7  C   UNL     1       8.033  29.752  58.016  1.00  0.00     0.063 C 
HETATM    8  N   UNL     1       6.866  30.322  57.701  1.00  0.00    -0.169 NA
HETATM    9  N   UNL     1       6.586  31.164  58.735  1.00  0.00    -0.211 N 
HETATM   10  C   UNL     1       7.479  30.965  59.789  1.00  0.00     0.165 C 
HETATM   11  C   UNL     1       8.467  30.144  59.301  1.00  0.00     0.087 C 
BRANCH   9  12
HETATM   12  C   UNL     1       5.501  32.081  58.632  1.00  0.00     0.061 A 
HETATM   13  C   UNL     1       5.303  32.773  57.426  1.00  0.00     0.031 A 
HETATM   14  C   UNL     1       4.243  33.674  57.297  1.00  0.00     0.002 A 
HETATM   15  C   UNL     1       3.386  33.904  58.370  1.00  0.00     0.000 A 
HETATM   16  C   UNL     1       3.593  33.243  59.580  1.00  0.00     0.002 A 
HETATM   17  C   UNL     1       4.650  32.338  59.716  1.00  0.00     0.031 A 
ENDBRANCH   9  12
BRANCH  10  18
HETATM   18  O   UNL     1       7.350  31.453  61.023  1.00  0.00    -0.345 OA
HETATM   19  H   UNL     1       8.117  32.025  61.210  1.00  0.00     0.219 HD
ENDBRANCH  10  18
ENDBRANCH   4   7
BRANCH   1  20
HETATM   20  C   UNL     1       5.881  26.610  54.638  1.00  0.00     0.174 C 
HETATM   21  S   UNL     1       4.964  27.356  53.441  1.00  0.00    -0.041 SA
BRANCH  20  22
HETATM   22  N   UNL     1       5.681  25.267  54.802  1.00  0.00    -0.333 N 
HETATM   23  H   UNL     1       4.964  25.067  55.491  1.00  0.00     0.168 HD
BRANCH  22  24
HETATM   24  C   UNL     1       6.453  24.154  54.404  1.00  0.00     0.034 A 
HETATM   25  C   UNL     1       6.939  23.324  55.423  1.00  0.00     0.036 A 
HETATM   26  C   UNL     1       7.756  22.214  55.141  1.00  0.00    -0.054 A 
HETATM   27  C   UNL     1       8.114  21.946  53.807  1.00  0.00    -0.056 A 
HETATM   28  C   UNL     1       8.263  21.368  56.278  1.00  0.00     0.049 C 
HETATM   29  C   UNL     1       8.985  20.775  53.442  1.00  0.00     0.049 C 
HETATM   30  C   UNL     1       7.628  22.781  52.792  1.00  0.00     0.009 A 
HETATM   31  C   UNL     1       6.815  23.881  53.090  1.00  0.00     0.030 A 
ENDBRANCH  22  24
ENDBRANCH  20  22
ENDBRANCH   1  20
TORSDOF 6
ENDMDL
MODEL 10
REMARK VINA RESULT:      -9.1      4.643      8.650
REMARK  6 active torsions:
REMARK  status: ('A' for Active; 'I' for Inactive)
REMARK    1  A    between atoms: C_6  and  N_7 
REMARK    2  A    between atoms: N_7  and  C_8 
REMARK    3  A    between atoms: C_8  and  N_9 
REMARK    4  A    between atoms: C_12  and  C_13 
REMARK    5  A    between atoms: N_15  and  C_16 
REMARK    6  A    between atoms: C_22  and  O_23 
ROOT
HETATM    1  N   UNL     1       6.092  27.126  55.398  1.00  0.00    -0.358 N 
HETATM    2  C   UNL     1       4.905  26.714  54.643  1.00  0.00     0.126 C 
HETATM    3  C   UNL     1       3.918  27.866  54.497  1.00  0.00     0.031 C 
HETATM    4  C   UNL     1       4.560  29.095  53.840  1.00  0.00     0.043 C 
HETATM    5  C   UNL     1       5.864  29.468  54.562  1.00  0.00     0.031 C 
HETATM    6  C   UNL     1       6.790  28.278  54.810  1.00  0.00     0.126 C 
ENDROOT
BRANCH   4   7
HETATM    7  C   UNL     1       4.691  28.928  52.348  1.00  0.00     0.063 C 
HETATM    8  N   UNL     1       3.748  28.325  51.620  1.00  0.00    -0.169 NA
HETATM    9  N   UNL     1       4.221  28.329  50.343  1.00  0.00    -0.211 N 
HETATM   10  C   UNL     1       5.369  29.117  50.244  1.00  0.00     0.165 C 
HETATM   11  C   UNL     1       5.735  29.417  51.534  1.00  0.00     0.087 C 
BRANCH   9  12
HETATM   12  C   UNL     1       3.547  27.586  49.331  1.00  0.00     0.061 A 
HETATM   13  C   UNL     1       4.114  26.386  48.872  1.00  0.00     0.031 A 
HETATM   14  C   UNL     1       3.472  25.635  47.884  1.00  0.00     0.002 A 
HETATM   15  C   UNL     1       2.271  26.082  47.338  1.00  0.00     0.000 A 
HETATM   16  C   UNL     1       1.715  27.286  47.768  1.00  0.00     0.002 A 
HETATM   17  C   UNL     1       2.352  28.041  48.758  1.00  0.00     0.031 A 
ENDBRANCH   9  12
BRANCH  10  18
HETATM   18  O   UNL     1       5.946  29.516  49.111  1.00  0.00    -0.345 OA
HETATM   19  H   UNL     1       5.247  29.797  48.492  1.00  0.00     0.219 HD
ENDBRANCH  10  18
ENDBRANCH   4   7
BRANCH   1  20
HETATM   20  C   UNL     1       6.886  26.171  56.021  1.00  0.00     0.174 C 
HETATM   21  S   UNL     1       8.246  26.502  56.954  1.00  0.00    -0.041 SA
BRANCH  20  22
HETATM   22  N   UNL     1       6.518  24.856  55.939  1.00  0.00    -0.333 N 
HETATM   23  H   UNL     1       5.964  24.562  56.736  1.00  0.00     0.168 HD
BRANCH  22  24
HETATM   24  C   UNL     1       6.987  23.806  55.119  1.00  0.00     0.034 A 
HETATM   25  C   UNL     1       7.353  22.616  55.760  1.00  0.00     0.036 A 
HETATM   26  C   UNL     1       7.875  21.523  55.044  1.00  0.00    -0.054 A 
HETATM   27  C   UNL     1       8.056  21.639  53.653  1.00  0.00    -0.056 A 
HETATM   28  C   UNL     1       8.268  20.277  55.789  1.00  0.00     0.049 C 
HETATM   29  C   UNL     1       8.610  20.507  52.832  1.00  0.00     0.049 C 
HETATM   30  C   UNL     1       7.690  22.833  53.017  1.00  0.00     0.009 A 
HETATM   31  C   UNL     1       7.172  23.909  53.744  1.00  0.00     0.030 A 
ENDBRANCH  22  24
ENDBRANCH  20  22
ENDBRANCH   1  20
TORSDOF 6
ENDMDL
