MODEL 1
REMARK VINA RESULT:      -8.4      0.000      0.000
REMARK  12 active torsions:
REMARK  status: ('A' for Active; 'I' for Inactive)
REMARK    1  A    between atoms: C_2  and  N_3 
REMARK    2  A    between atoms: N_3  and  C_5 
REMARK    3  A    between atoms: N_3  and  C_33 
REMARK    4  A    between atoms: C_5  and  C_6 
REMARK    5  A    between atoms: N_7  and  C_8 
REMARK    6  A    between atoms: C_12  and  N_13 
REMARK    7  A    between atoms: C_16  and  C_17 
REMARK       I    between atoms: C_17  and  N_18 
REMARK    8  A    between atoms: N_18  and  N_19 
REMARK    9  A    between atoms: C_20  and  C_21 
REMARK   10  A    between atoms: C_25  and  O_26 
REMARK   11  A    between atoms: C_27  and  O_28 
REMARK   12  A    between atoms: O_28  and  C_29 
ROOT
HETATM    1  C   UNL     1       5.324  31.759  59.322  1.00  0.00     0.096 A 
HETATM    2  N   UNL     1       4.425  32.349  60.207  1.00  0.00    -0.215 N 
HETATM    3  N   UNL     1       3.162  32.138  59.749  1.00  0.00     0.012 NA
HETATM    4  N   UNL     1       3.208  31.364  58.678  1.00  0.00    -0.152 NA
HETATM    5  C   UNL     1       4.518  31.108  58.397  1.00  0.00     0.170 A 
ENDROOT
BRANCH   5   6
HETATM    6  C   UNL     1       4.965  30.271  57.291  1.00  0.00     0.293 C 
HETATM    7  N   UNL     1       4.872  28.913  57.532  1.00  0.00    -0.242 N 
HETATM    8  H   UNL     1       4.513  28.570  58.419  1.00  0.00     0.192 HD
HETATM    9  O   UNL     1       5.401  30.791  56.266  1.00  0.00    -0.264 OA
BRANCH   7  10
HETATM   10  N   UNL     1       5.229  28.043  56.550  1.00  0.00    -0.184 NA
HETATM   11  C   UNL     1       5.768  26.929  56.930  1.00  0.00     0.150 C 
BRANCH  11  12
HETATM   12  C   UNL     1       6.171  25.906  55.942  1.00  0.00    -0.013 A 
HETATM   13  C   UNL     1       5.541  25.848  54.695  1.00  0.00     0.035 A 
HETATM   14  C   UNL     1       5.922  24.870  53.782  1.00  0.00     0.047 A 
HETATM   15 BR   UNL     1       5.051  24.801  52.099  1.00  0.00    -0.048 Br
HETATM   16  C   UNL     1       6.930  23.959  54.109  1.00  0.00     0.116 A 
HETATM   17  C   UNL     1       7.569  24.017  55.357  1.00  0.00     0.104 A 
HETATM   18  C   UNL     1       7.181  24.996  56.278  1.00  0.00     0.052 A 
BRANCH  16  19
HETATM   19  O   UNL     1       7.316  22.989  53.219  1.00  0.00    -0.357 OA
HETATM   20  H   UNL     1       7.028  22.125  53.564  1.00  0.00     0.218 HD
ENDBRANCH  16  19
BRANCH  17  21
HETATM   21  O   UNL     1       8.543  23.078  55.574  1.00  0.00    -0.349 OA
BRANCH  21  22
HETATM   22  C   UNL     1       8.347  22.129  56.616  1.00  0.00     0.171 C 
HETATM   23  C   UNL     1       7.803  20.856  55.991  1.00  0.00     0.034 C 
ENDBRANCH  21  22
ENDBRANCH  17  21
ENDBRANCH  11  12
ENDBRANCH   7  10
ENDBRANCH   5   6
BRANCH   1  24
HETATM   24  C   UNL     1       6.799  31.918  59.351  1.00  0.00     0.296 C 
BRANCH  24  25
HETATM   25  N   UNL     1       7.581  30.804  60.028  1.00  0.00    -0.066 N 
HETATM   26  H   UNL     1       6.932  30.009  60.121  1.00  0.00     0.280 HD
BRANCH  25  27
HETATM   27  C   UNL     1       8.002  31.213  61.435  1.00  0.00     0.231 C 
HETATM   28  C   UNL     1       9.475  31.577  61.488  1.00  0.00     0.034 C 
ENDBRANCH  25  27
BRANCH  25  29
HETATM   29  C   UNL     1       8.780  30.353  59.207  1.00  0.00     0.231 C 
HETATM   30  C   UNL     1       8.373  29.313  58.175  1.00  0.00     0.034 C 
ENDBRANCH  25  29
ENDBRANCH  24  25
ENDBRANCH   1  24
BRANCH   2  31
HETATM   31  C   UNL     1       4.695  33.016  61.424  1.00  0.00     0.225 A 
HETATM   32  N   UNL     1       4.886  34.339  61.429  1.00  0.00    -0.081 NA
HETATM   33  O   UNL     1       5.142  34.628  62.775  1.00  0.00    -0.103 OA
HETATM   34  N   UNL     1       5.129  33.476  63.546  1.00  0.00    -0.083 NA
HETATM   35  C   UNL     1       4.855  32.476  62.711  1.00  0.00     0.201 A 
BRANCH  35  36
HETATM   36  N   UNL     1       4.749  31.188  63.072  1.00  0.00    -0.379 N 
HETATM   37  H   UNL     1       4.132  30.561  62.562  1.00  0.00     0.158 HD
HETATM   38  H   UNL     1       5.121  30.807  63.939  1.00  0.00     0.158 HD
ENDBRANCH  35  36
ENDBRANCH   2  31
TORSDOF 12
ENDMDL
MODEL 2
REMARK VINA RESULT:      -8.2      1.851      2.312
REMARK  12 active torsions:
REMARK  status: ('A' for Active; 'I' for Inactive)
REMARK    1  A    between atoms: C_2  and  N_3 
REMARK    2  A    between atoms: N_3  and  C_5 
REMARK    3  A    between atoms: N_3  and  C_33 
REMARK    4  A    between atoms: C_5  and  C_6 
REMARK    5  A    between atoms: N_7  and  C_8 
REMARK    6  A    between atoms: C_12  and  N_13 
REMARK    7  A    between atoms: C_16  and  C_17 
REMARK       I    between atoms: C_17  and  N_18 
REMARK    8  A    between atoms: N_18  and  N_19 
REMARK    9  A    between atoms: C_20  and  C_21 
REMARK   10  A    between atoms: C_25  and  O_26 
REMARK   11  A    between atoms: C_27  and  O_28 
REMARK   12  A    between atoms: O_28  and  C_29 
ROOT
HETATM    1  C   UNL     1       5.127  32.566  60.804  1.00  0.00     0.096 A 
HETATM    2  N   UNL     1       4.097  32.961  61.653  1.00  0.00    -0.215 N 
HETATM    3  N   UNL     1       2.940  33.012  60.941  1.00  0.00     0.012 NA
HETATM    4  N   UNL     1       3.163  32.576  59.712  1.00  0.00    -0.152 NA
HETATM    5  C   UNL     1       4.491  32.287  59.601  1.00  0.00     0.170 A 
ENDROOT
BRANCH   5   6
HETATM    6  C   UNL     1       5.112  31.761  58.392  1.00  0.00     0.293 C 
HETATM    7  N   UNL     1       4.768  30.455  58.098  1.00  0.00    -0.242 N 
HETATM    8  H   UNL     1       4.131  29.941  58.701  1.00  0.00     0.192 HD
HETATM    9  O   UNL     1       5.886  32.464  57.745  1.00  0.00    -0.264 OA
BRANCH   7  10
HETATM   10  N   UNL     1       5.264  29.881  56.970  1.00  0.00    -0.184 NA
HETATM   11  C   UNL     1       5.322  28.587  56.954  1.00  0.00     0.150 C 
BRANCH  11  12
HETATM   12  C   UNL     1       5.824  27.865  55.766  1.00  0.00    -0.013 A 
HETATM   13  C   UNL     1       5.502  28.317  54.482  1.00  0.00     0.035 A 
HETATM   14  C   UNL     1       5.970  27.618  53.374  1.00  0.00     0.047 A 
HETATM   15 BR   UNL     1       5.515  28.239  51.642  1.00  0.00    -0.048 Br
HETATM   16  C   UNL     1       6.760  26.478  53.547  1.00  0.00     0.116 A 
HETATM   17  C   UNL     1       7.092  26.025  54.833  1.00  0.00     0.104 A 
HETATM   18  C   UNL     1       6.615  26.724  55.947  1.00  0.00     0.052 A 
BRANCH  16  19
HETATM   19  O   UNL     1       7.229  25.778  52.464  1.00  0.00    -0.357 OA
HETATM   20  H   UNL     1       7.694  24.987  52.789  1.00  0.00     0.218 HD
ENDBRANCH  16  19
BRANCH  17  21
HETATM   21  O   UNL     1       7.871  24.900  54.888  1.00  0.00    -0.349 OA
BRANCH  21  22
HETATM   22  C   UNL     1       7.257  23.668  55.251  1.00  0.00     0.171 C 
HETATM   23  C   UNL     1       7.570  22.654  54.166  1.00  0.00     0.034 C 
ENDBRANCH  21  22
ENDBRANCH  17  21
ENDBRANCH  11  12
ENDBRANCH   7  10
ENDBRANCH   5   6
BRANCH   1  24
HETATM   24  C   UNL     1       6.573  32.567  61.136  1.00  0.00     0.296 C 
BRANCH  24  25
HETATM   25  N   UNL     1       7.224  31.204  61.306  1.00  0.00    -0.066 N 
HETATM   26  H   UNL     1       6.455  30.524  61.388  1.00  0.00     0.280 HD
BRANCH  25  27
HETATM   27  C   UNL     1       8.027  31.142  62.599  1.00  0.00     0.231 C 
HETATM   28  C   UNL     1       8.131  32.507  63.255  1.00  0.00     0.034 C 
ENDBRANCH  25  27
BRANCH  25  29
HETATM   29  C   UNL     1       8.082  30.817  60.109  1.00  0.00     0.231 C 
HETATM   30  C   UNL     1       8.929  31.990  59.643  1.00  0.00     0.034 C 
ENDBRANCH  25  29
ENDBRANCH  24  25
ENDBRANCH   1  24
BRANCH   2  31
HETATM   31  C   UNL     1       4.151  33.224  63.043  1.00  0.00     0.225 A 
HETATM   32  N   UNL     1       4.790  32.377  63.855  1.00  0.00    -0.081 NA
HETATM   33  O   UNL     1       4.615  32.944  65.123  1.00  0.00    -0.103 OA
HETATM   34  N   UNL     1       3.855  34.102  65.054  1.00  0.00    -0.083 NA
HETATM   35  C   UNL     1       3.564  34.276  63.766  1.00  0.00     0.201 A 
BRANCH  35  36
HETATM   36  N   UNL     1       2.840  35.295  63.279  1.00  0.00    -0.379 N 
HETATM   37  H   UNL     1       3.122  35.759  62.419  1.00  0.00     0.158 HD
HETATM   38  H   UNL     1       2.099  35.765  63.793  1.00  0.00     0.158 HD
ENDBRANCH  35  36
ENDBRANCH   2  31
TORSDOF 12
ENDMDL
MODEL 3
REMARK VINA RESULT:      -8.2      1.358      2.386
REMARK  12 active torsions:
REMARK  status: ('A' for Active; 'I' for Inactive)
REMARK    1  A    between atoms: C_2  and  N_3 
REMARK    2  A    between atoms: N_3  and  C_5 
REMARK    3  A    between atoms: N_3  and  C_33 
REMARK    4  A    between atoms: C_5  and  C_6 
REMARK    5  A    between atoms: N_7  and  C_8 
REMARK    6  A    between atoms: C_12  and  N_13 
REMARK    7  A    between atoms: C_16  and  C_17 
REMARK       I    between atoms: C_17  and  N_18 
REMARK    8  A    between atoms: N_18  and  N_19 
REMARK    9  A    between atoms: C_20  and  C_21 
REMARK   10  A    between atoms: C_25  and  O_26 
REMARK   11  A    between atoms: C_27  and  O_28 
REMARK   12  A    between atoms: O_28  and  C_29 
ROOT
HETATM    1  C   UNL     1       5.293  31.735  59.261  1.00  0.00     0.096 A 
HETATM    2  N   UNL     1       4.329  32.331  60.070  1.00  0.00    -0.215 N 
HETATM    3  N   UNL     1       3.101  32.080  59.541  1.00  0.00     0.012 NA
HETATM    4  N   UNL     1       3.230  31.276  58.499  1.00  0.00    -0.152 NA
HETATM    5  C   UNL     1       4.560  31.040  58.308  1.00  0.00     0.170 A 
ENDROOT
BRANCH   5   6
HETATM    6  C   UNL     1       5.092  30.180  57.259  1.00  0.00     0.293 C 
HETATM    7  N   UNL     1       4.912  28.828  57.486  1.00  0.00    -0.242 N 
HETATM    8  H   UNL     1       4.439  28.504  58.326  1.00  0.00     0.192 HD
HETATM    9  O   UNL     1       5.665  30.676  56.291  1.00  0.00    -0.264 OA
BRANCH   7  10
HETATM   10  N   UNL     1       5.339  27.940  56.549  1.00  0.00    -0.184 NA
HETATM   11  C   UNL     1       5.561  26.730  56.955  1.00  0.00     0.150 C 
BRANCH  11  12
HETATM   12  C   UNL     1       6.006  25.684  56.011  1.00  0.00    -0.013 A 
HETATM   13  C   UNL     1       6.838  24.650  56.450  1.00  0.00     0.035 A 
HETATM   14  C   UNL     1       7.260  23.680  55.546  1.00  0.00     0.047 A 
HETATM   15 BR   UNL     1       8.395  22.291  56.157  1.00  0.00    -0.048 Br
HETATM   16  C   UNL     1       6.848  23.740  54.212  1.00  0.00     0.116 A 
HETATM   17  C   UNL     1       6.007  24.772  53.767  1.00  0.00     0.104 A 
HETATM   18  C   UNL     1       5.590  25.751  54.676  1.00  0.00     0.052 A 
BRANCH  16  19
HETATM   19  O   UNL     1       7.256  22.791  53.308  1.00  0.00    -0.357 OA
HETATM   20  H   UNL     1       7.069  21.912  53.682  1.00  0.00     0.218 HD
ENDBRANCH  16  19
BRANCH  17  21
HETATM   21  O   UNL     1       5.665  24.735  52.442  1.00  0.00    -0.349 OA
BRANCH  21  22
HETATM   22  C   UNL     1       6.149  25.765  51.588  1.00  0.00     0.171 C 
HETATM   23  C   UNL     1       5.065  26.076  50.571  1.00  0.00     0.034 C 
ENDBRANCH  21  22
ENDBRANCH  17  21
ENDBRANCH  11  12
ENDBRANCH   7  10
ENDBRANCH   5   6
BRANCH   1  24
HETATM   24  C   UNL     1       6.760  31.925  59.378  1.00  0.00     0.296 C 
BRANCH  24  25
HETATM   25  N   UNL     1       7.538  30.781  60.006  1.00  0.00    -0.066 N 
HETATM   26  H   UNL     1       6.890  29.981  60.052  1.00  0.00     0.280 HD
BRANCH  25  27
HETATM   27  C   UNL     1       7.945  31.119  61.435  1.00  0.00     0.231 C 
HETATM   28  C   UNL     1       9.396  30.757  61.699  1.00  0.00     0.034 C 
ENDBRANCH  25  27
BRANCH  25  29
HETATM   29  C   UNL     1       8.746  30.373  59.175  1.00  0.00     0.231 C 
HETATM   30  C   UNL     1       8.383  29.274  58.189  1.00  0.00     0.034 C 
ENDBRANCH  25  29
ENDBRANCH  24  25
ENDBRANCH   1  24
BRANCH   2  31
HETATM   31  C   UNL     1       4.509  33.040  61.281  1.00  0.00     0.225 A 
HETATM   32  N   UNL     1       4.591  34.374  61.265  1.00  0.00    -0.081 NA
HETATM   33  O   UNL     1       4.784  34.707  62.610  1.00  0.00    -0.103 OA
HETATM   34  N   UNL     1       4.842  33.571  63.404  1.00  0.00    -0.083 NA
HETATM   35  C   UNL     1       4.674  32.537  62.582  1.00  0.00     0.201 A 
BRANCH  35  36
HETATM   36  N   UNL     1       4.663  31.252  62.966  1.00  0.00    -0.379 N 
HETATM   37  H   UNL     1       5.521  30.706  62.956  1.00  0.00     0.158 HD
HETATM   38  H   UNL     1       3.816  30.709  63.119  1.00  0.00     0.158 HD
ENDBRANCH  35  36
ENDBRANCH   2  31
TORSDOF 12
ENDMDL
MODEL 4
REMARK VINA RESULT:      -7.9      2.375      3.606
REMARK  12 active torsions:
REMARK  status: ('A' for Active; 'I' for Inactive)
REMARK    1  A    between atoms: C_2  and  N_3 
REMARK    2  A    between atoms: N_3  and  C_5 
REMARK    3  A    between atoms: N_3  and  C_33 
REMARK    4  A    between atoms: C_5  and  C_6 
REMARK    5  A    between atoms: N_7  and  C_8 
REMARK    6  A    between atoms: C_12  and  N_13 
REMARK    7  A    between atoms: C_16  and  C_17 
REMARK       I    between atoms: C_17  and  N_18 
REMARK    8  A    between atoms: N_18  and  N_19 
REMARK    9  A    between atoms: C_20  and  C_21 
REMARK   10  A    between atoms: C_25  and  O_26 
REMARK   11  A    between atoms: C_27  and  O_28 
REMARK   12  A    between atoms: O_28  and  C_29 
ROOT
HETATM    1  C   UNL     1       5.172  32.484  60.733  1.00  0.00     0.096 A 
HETATM    2  N   UNL     1       4.121  32.890  61.551  1.00  0.00    -0.215 N 
HETATM    3  N   UNL     1       2.977  32.905  60.815  1.00  0.00     0.012 NA
HETATM    4  N   UNL     1       3.230  32.437  59.605  1.00  0.00    -0.152 NA
HETATM    5  C   UNL     1       4.563  32.162  59.527  1.00  0.00     0.170 A 
ENDROOT
BRANCH   5   6
HETATM    6  C   UNL     1       5.213  31.610  58.345  1.00  0.00     0.293 C 
HETATM    7  N   UNL     1       5.040  30.248  58.185  1.00  0.00    -0.242 N 
HETATM    8  H   UNL     1       4.494  29.714  58.857  1.00  0.00     0.192 HD
HETATM    9  O   UNL     1       5.867  32.343  57.607  1.00  0.00    -0.264 OA
BRANCH   7  10
HETATM   10  N   UNL     1       5.575  29.640  57.093  1.00  0.00    -0.184 NA
HETATM   11  C   UNL     1       4.897  28.662  56.583  1.00  0.00     0.150 C 
BRANCH  11  12
HETATM   12  C   UNL     1       5.381  27.950  55.381  1.00  0.00    -0.013 A 
HETATM   13  C   UNL     1       5.804  26.620  55.475  1.00  0.00     0.035 A 
HETATM   14  C   UNL     1       6.270  25.969  54.338  1.00  0.00     0.047 A 
HETATM   15 BR   UNL     1       6.848  24.169  54.486  1.00  0.00    -0.048 Br
HETATM   16  C   UNL     1       6.308  26.639  53.112  1.00  0.00     0.116 A 
HETATM   17  C   UNL     1       5.878  27.971  53.011  1.00  0.00     0.104 A 
HETATM   18  C   UNL     1       5.416  28.628  54.157  1.00  0.00     0.052 A 
BRANCH  16  19
HETATM   19  O   UNL     1       6.765  26.010  51.981  1.00  0.00    -0.357 OA
HETATM   20  H   UNL     1       7.737  25.965  52.028  1.00  0.00     0.218 HD
ENDBRANCH  16  19
BRANCH  17  21
HETATM   21  O   UNL     1       5.957  28.532  51.764  1.00  0.00    -0.349 OA
BRANCH  21  22
HETATM   22  C   UNL     1       4.776  28.591  50.971  1.00  0.00     0.171 C 
HETATM   23  C   UNL     1       5.194  28.610  49.512  1.00  0.00     0.034 C 
ENDBRANCH  21  22
ENDBRANCH  17  21
ENDBRANCH  11  12
ENDBRANCH   7  10
ENDBRANCH   5   6
BRANCH   1  24
HETATM   24  C   UNL     1       6.612  32.513  61.093  1.00  0.00     0.296 C 
BRANCH  24  25
HETATM   25  N   UNL     1       7.286  31.163  61.272  1.00  0.00    -0.066 N 
HETATM   26  H   UNL     1       6.529  30.466  61.331  1.00  0.00     0.280 HD
BRANCH  25  27
HETATM   27  C   UNL     1       8.057  31.110  62.586  1.00  0.00     0.231 C 
HETATM   28  C   UNL     1       8.135  32.478  63.239  1.00  0.00     0.034 C 
ENDBRANCH  25  27
BRANCH  25  29
HETATM   29  C   UNL     1       8.183  30.800  60.097  1.00  0.00     0.231 C 
HETATM   30  C   UNL     1       9.277  31.838  59.905  1.00  0.00     0.034 C 
ENDBRANCH  25  29
ENDBRANCH  24  25
ENDBRANCH   1  24
BRANCH   2  31
HETATM   31  C   UNL     1       4.145  33.193  62.933  1.00  0.00     0.225 A 
HETATM   32  N   UNL     1       4.778  32.377  63.782  1.00  0.00    -0.081 NA
HETATM   33  O   UNL     1       4.572  32.978  65.029  1.00  0.00    -0.103 OA
HETATM   34  N   UNL     1       3.800  34.124  64.912  1.00  0.00    -0.083 NA
HETATM   35  C   UNL     1       3.532  34.257  63.614  1.00  0.00     0.201 A 
BRANCH  35  36
HETATM   36  N   UNL     1       2.806  35.253  63.084  1.00  0.00    -0.379 N 
HETATM   37  H   UNL     1       1.827  35.106  62.850  1.00  0.00     0.158 HD
HETATM   38  H   UNL     1       3.200  36.123  62.735  1.00  0.00     0.158 HD
ENDBRANCH  35  36
ENDBRANCH   2  31
TORSDOF 12
ENDMDL
MODEL 5
REMARK VINA RESULT:      -7.9      4.116     10.427
REMARK  12 active torsions:
REMARK  status: ('A' for Active; 'I' for Inactive)
REMARK    1  A    between atoms: C_2  and  N_3 
REMARK    2  A    between atoms: N_3  and  C_5 
REMARK    3  A    between atoms: N_3  and  C_33 
REMARK    4  A    between atoms: C_5  and  C_6 
REMARK    5  A    between atoms: N_7  and  C_8 
REMARK    6  A    between atoms: C_12  and  N_13 
REMARK    7  A    between atoms: C_16  and  C_17 
REMARK       I    between atoms: C_17  and  N_18 
REMARK    8  A    between atoms: N_18  and  N_19 
REMARK    9  A    between atoms: C_20  and  C_21 
REMARK   10  A    between atoms: C_25  and  O_26 
REMARK   11  A    between atoms: C_27  and  O_28 
REMARK   12  A    between atoms: O_28  and  C_29 
ROOT
HETATM    1  C   UNL     1       7.503  23.892  55.317  1.00  0.00     0.096 A 
HETATM    2  N   UNL     1       8.445  22.894  55.086  1.00  0.00    -0.215 N 
HETATM    3  N   UNL     1       9.441  23.014  56.004  1.00  0.00     0.012 NA
HETATM    4  N   UNL     1       9.131  23.971  56.863  1.00  0.00    -0.152 NA
HETATM    5  C   UNL     1       7.945  24.521  56.474  1.00  0.00     0.170 A 
ENDROOT
BRANCH   5   6
HETATM    6  C   UNL     1       7.273  25.598  57.189  1.00  0.00     0.293 C 
HETATM    7  N   UNL     1       8.105  26.634  57.569  1.00  0.00    -0.242 N 
HETATM    8  H   UNL     1       9.097  26.609  57.345  1.00  0.00     0.192 HD
HETATM    9  O   UNL     1       6.070  25.519  57.426  1.00  0.00    -0.264 OA
BRANCH   7  10
HETATM   10  N   UNL     1       7.571  27.707  58.210  1.00  0.00    -0.184 NA
HETATM   11  C   UNL     1       7.815  28.871  57.697  1.00  0.00     0.150 C 
BRANCH  11  12
HETATM   12  C   UNL     1       7.261  30.099  58.305  1.00  0.00    -0.013 A 
HETATM   13  C   UNL     1       6.149  30.725  57.734  1.00  0.00     0.035 A 
HETATM   14  C   UNL     1       5.648  31.888  58.311  1.00  0.00     0.047 A 
HETATM   15 BR   UNL     1       4.146  32.729  57.518  1.00  0.00    -0.048 Br
HETATM   16  C   UNL     1       6.251  32.419  59.455  1.00  0.00     0.116 A 
HETATM   17  C   UNL     1       7.363  31.790  60.035  1.00  0.00     0.104 A 
HETATM   18  C   UNL     1       7.871  30.625  59.451  1.00  0.00     0.052 A 
BRANCH  16  19
HETATM   19  O   UNL     1       5.769  33.566  60.035  1.00  0.00    -0.357 OA
HETATM   20  H   UNL     1       5.164  33.313  60.755  1.00  0.00     0.218 HD
ENDBRANCH  16  19
BRANCH  17  21
HETATM   21  O   UNL     1       7.875  32.394  61.153  1.00  0.00    -0.349 OA
BRANCH  21  22
HETATM   22  C   UNL     1       7.891  31.660  62.373  1.00  0.00     0.171 C 
HETATM   23  C   UNL     1       7.959  32.657  63.516  1.00  0.00     0.034 C 
ENDBRANCH  21  22
ENDBRANCH  17  21
ENDBRANCH  11  12
ENDBRANCH   7  10
ENDBRANCH   5   6
BRANCH   1  24
HETATM   24  C   UNL     1       6.361  24.229  54.430  1.00  0.00     0.296 C 
BRANCH  24  25
HETATM   25  N   UNL     1       6.181  25.701  54.098  1.00  0.00    -0.066 N 
HETATM   26  H   UNL     1       5.977  26.177  54.990  1.00  0.00     0.280 HD
BRANCH  25  27
HETATM   27  C   UNL     1       4.978  25.910  53.186  1.00  0.00     0.231 C 
HETATM   28  C   UNL     1       4.821  24.763  52.204  1.00  0.00     0.034 C 
ENDBRANCH  25  27
BRANCH  25  29
HETATM   29  C   UNL     1       7.436  26.320  53.500  1.00  0.00     0.231 C 
HETATM   30  C   UNL     1       7.643  27.737  54.011  1.00  0.00     0.034 C 
ENDBRANCH  25  29
ENDBRANCH  24  25
ENDBRANCH   1  24
BRANCH   2  31
HETATM   31  C   UNL     1       8.415  21.858  54.122  1.00  0.00     0.225 A 
HETATM   32  N   UNL     1       8.027  22.125  52.872  1.00  0.00    -0.081 NA
HETATM   33  O   UNL     1       8.104  20.882  52.232  1.00  0.00    -0.103 OA
HETATM   34  N   UNL     1       8.509  19.890  53.113  1.00  0.00    -0.083 NA
HETATM   35  C   UNL     1       8.700  20.492  54.285  1.00  0.00     0.201 A 
BRANCH  35  36
HETATM   36  N   UNL     1       9.102  19.872  55.404  1.00  0.00    -0.379 N 
HETATM   37  H   UNL     1       9.551  18.960  55.353  1.00  0.00     0.158 HD
HETATM   38  H   UNL     1       8.847  20.167  56.344  1.00  0.00     0.158 HD
ENDBRANCH  35  36
ENDBRANCH   2  31
TORSDOF 12
ENDMDL
MODEL 6
REMARK VINA RESULT:      -7.8      7.492     10.581
REMARK  12 active torsions:
REMARK  status: ('A' for Active; 'I' for Inactive)
REMARK    1  A    between atoms: C_2  and  N_3 
REMARK    2  A    between atoms: N_3  and  C_5 
REMARK    3  A    between atoms: N_3  and  C_33 
REMARK    4  A    between atoms: C_5  and  C_6 
REMARK    5  A    between atoms: N_7  and  C_8 
REMARK    6  A    between atoms: C_12  and  N_13 
REMARK    7  A    between atoms: C_16  and  C_17 
REMARK       I    between atoms: C_17  and  N_18 
REMARK    8  A    between atoms: N_18  and  N_19 
REMARK    9  A    between atoms: C_20  and  C_21 
REMARK   10  A    between atoms: C_25  and  O_26 
REMARK   11  A    between atoms: C_27  and  O_28 
REMARK   12  A    between atoms: O_28  and  C_29 
ROOT
HETATM    1  C   UNL     1       2.785  27.952  48.619  1.00  0.00     0.096 A 
HETATM    2  N   UNL     1       2.222  27.563  47.406  1.00  0.00    -0.215 N 
HETATM    3  N   UNL     1       3.045  26.656  46.816  1.00  0.00     0.012 NA
HETATM    4  N   UNL     1       4.047  26.376  47.633  1.00  0.00    -0.152 NA
HETATM    5  C   UNL     1       3.910  27.148  48.749  1.00  0.00     0.170 A 
ENDROOT
BRANCH   5   6
HETATM    6  C   UNL     1       4.820  27.105  49.886  1.00  0.00     0.293 C 
HETATM    7  N   UNL     1       4.663  25.997  50.698  1.00  0.00    -0.242 N 
HETATM    8  H   UNL     1       3.961  25.294  50.482  1.00  0.00     0.192 HD
HETATM    9  O   UNL     1       5.620  28.020  50.067  1.00  0.00    -0.264 OA
BRANCH   7  10
HETATM   10  N   UNL     1       5.489  25.841  51.767  1.00  0.00    -0.184 NA
HETATM   11  C   UNL     1       5.480  24.680  52.342  1.00  0.00     0.150 C 
BRANCH  11  12
HETATM   12  C   UNL     1       6.358  24.401  53.498  1.00  0.00    -0.013 A 
HETATM   13  C   UNL     1       6.287  25.200  54.643  1.00  0.00     0.035 A 
HETATM   14  C   UNL     1       7.130  24.933  55.717  1.00  0.00     0.047 A 
HETATM   15 BR   UNL     1       7.027  26.033  57.257  1.00  0.00    -0.048 Br
HETATM   16  C   UNL     1       8.035  23.869  55.650  1.00  0.00     0.116 A 
HETATM   17  C   UNL     1       8.105  23.060  54.506  1.00  0.00     0.104 A 
HETATM   18  C   UNL     1       7.261  23.334  53.423  1.00  0.00     0.052 A 
BRANCH  16  19
HETATM   19  O   UNL     1       8.873  23.593  56.701  1.00  0.00    -0.357 OA
HETATM   20  H   UNL     1       8.657  24.199  57.432  1.00  0.00     0.218 HD
ENDBRANCH  16  19
BRANCH  17  21
HETATM   21  O   UNL     1       9.024  22.046  54.546  1.00  0.00    -0.349 OA
BRANCH  21  22
HETATM   22  C   UNL     1       8.561  20.705  54.432  1.00  0.00     0.171 C 
HETATM   23  C   UNL     1       8.113  20.247  55.808  1.00  0.00     0.034 C 
ENDBRANCH  21  22
ENDBRANCH  17  21
ENDBRANCH  11  12
ENDBRANCH   7  10
ENDBRANCH   5   6
BRANCH   1  24
HETATM   24  C   UNL     1       2.304  29.060  49.482  1.00  0.00     0.296 C 
BRANCH  24  25
HETATM   25  N   UNL     1       3.363  30.027  49.985  1.00  0.00    -0.066 N 
HETATM   26  H   UNL     1       4.233  29.483  50.076  1.00  0.00     0.280 HD
BRANCH  25  27
HETATM   27  C   UNL     1       3.007  30.552  51.371  1.00  0.00     0.231 C 
HETATM   28  C   UNL     1       3.402  29.565  52.455  1.00  0.00     0.034 C 
ENDBRANCH  25  27
BRANCH  25  29
HETATM   29  C   UNL     1       3.612  31.172  49.014  1.00  0.00     0.231 C 
HETATM   30  C   UNL     1       5.096  31.324  48.719  1.00  0.00     0.034 C 
ENDBRANCH  25  29
ENDBRANCH  24  25
ENDBRANCH   1  24
BRANCH   2  31
HETATM   31  C   UNL     1       0.984  27.952  46.843  1.00  0.00     0.225 A 
HETATM   32  N   UNL     1      -0.056  27.113  46.883  1.00  0.00    -0.081 NA
HETATM   33  O   UNL     1      -1.071  27.820  46.226  1.00  0.00    -0.103 OA
HETATM   34  N   UNL     1      -0.617  29.052  45.782  1.00  0.00    -0.083 NA
HETATM   35  C   UNL     1       0.656  29.135  46.161  1.00  0.00     0.201 A 
BRANCH  35  36
HETATM   36  N   UNL     1       1.456  30.185  45.922  1.00  0.00    -0.379 N 
HETATM   37  H   UNL     1       1.128  31.131  46.100  1.00  0.00     0.158 HD
HETATM   38  H   UNL     1       2.334  30.129  45.411  1.00  0.00     0.158 HD
ENDBRANCH  35  36
ENDBRANCH   2  31
TORSDOF 12
ENDMDL
MODEL 7
REMARK VINA RESULT:      -7.6      4.368     10.550
REMARK  12 active torsions:
REMARK  status: ('A' for Active; 'I' for Inactive)
REMARK    1  A    between atoms: C_2  and  N_3 
REMARK    2  A    between atoms: N_3  and  C_5 
REMARK    3  A    between atoms: N_3  and  C_33 
REMARK    4  A    between atoms: C_5  and  C_6 
REMARK    5  A    between atoms: N_7  and  C_8 
REMARK    6  A    between atoms: C_12  and  N_13 
REMARK    7  A    between atoms: C_16  and  C_17 
REMARK       I    between atoms: C_17  and  N_18 
REMARK    8  A    between atoms: N_18  and  N_19 
REMARK    9  A    between atoms: C_20  and  C_21 
REMARK   10  A    between atoms: C_25  and  O_26 
REMARK   11  A    between atoms: C_27  and  O_28 
REMARK   12  A    between atoms: O_28  and  C_29 
ROOT
HETATM    1  C   UNL     1       7.511  23.907  55.291  1.00  0.00     0.096 A 
HETATM    2  N   UNL     1       8.449  22.902  55.072  1.00  0.00    -0.215 N 
HETATM    3  N   UNL     1       9.447  23.031  55.987  1.00  0.00     0.012 NA
HETATM    4  N   UNL     1       9.142  24.001  56.833  1.00  0.00    -0.152 NA
HETATM    5  C   UNL     1       7.958  24.550  56.438  1.00  0.00     0.170 A 
ENDROOT
BRANCH   5   6
HETATM    6  C   UNL     1       7.291  25.640  57.140  1.00  0.00     0.293 C 
HETATM    7  N   UNL     1       8.105  26.724  57.410  1.00  0.00    -0.242 N 
HETATM    8  H   UNL     1       9.081  26.721  57.124  1.00  0.00     0.192 HD
HETATM    9  O   UNL     1       6.109  25.531  57.458  1.00  0.00    -0.264 OA
BRANCH   7  10
HETATM   10  N   UNL     1       7.571  27.810  58.030  1.00  0.00    -0.184 NA
HETATM   11  C   UNL     1       8.351  28.833  58.180  1.00  0.00     0.150 C 
BRANCH  11  12
HETATM   12  C   UNL     1       7.860  30.072  58.820  1.00  0.00    -0.013 A 
HETATM   13  C   UNL     1       8.272  30.405  60.114  1.00  0.00     0.035 A 
HETATM   14  C   UNL     1       7.790  31.567  60.707  1.00  0.00     0.047 A 
HETATM   15 BR   UNL     1       8.352  31.997  62.466  1.00  0.00    -0.048 Br
HETATM   16  C   UNL     1       6.906  32.396  60.011  1.00  0.00     0.116 A 
HETATM   17  C   UNL     1       6.495  32.069  58.709  1.00  0.00     0.104 A 
HETATM   18  C   UNL     1       6.974  30.897  58.115  1.00  0.00     0.052 A 
BRANCH  16  19
HETATM   19  O   UNL     1       6.422  33.545  60.583  1.00  0.00    -0.357 OA
HETATM   20  H   UNL     1       5.543  33.353  60.957  1.00  0.00     0.218 HD
ENDBRANCH  16  19
BRANCH  17  21
HETATM   21  O   UNL     1       5.628  32.950  58.117  1.00  0.00    -0.349 OA
BRANCH  21  22
HETATM   22  C   UNL     1       4.541  32.427  57.362  1.00  0.00     0.171 C 
HETATM   23  C   UNL     1       4.745  32.828  55.912  1.00  0.00     0.034 C 
ENDBRANCH  21  22
ENDBRANCH  17  21
ENDBRANCH  11  12
ENDBRANCH   7  10
ENDBRANCH   5   6
BRANCH   1  24
HETATM   24  C   UNL     1       6.369  24.236  54.402  1.00  0.00     0.296 C 
BRANCH  24  25
HETATM   25  N   UNL     1       6.180  25.707  54.069  1.00  0.00    -0.066 N 
HETATM   26  H   UNL     1       5.996  26.185  54.963  1.00  0.00     0.280 HD
BRANCH  25  27
HETATM   27  C   UNL     1       4.956  25.912  53.183  1.00  0.00     0.231 C 
HETATM   28  C   UNL     1       4.779  24.762  52.208  1.00  0.00     0.034 C 
ENDBRANCH  25  27
BRANCH  25  29
HETATM   29  C   UNL     1       7.420  26.325  53.440  1.00  0.00     0.231 C 
HETATM   30  C   UNL     1       7.623  27.752  53.922  1.00  0.00     0.034 C 
ENDBRANCH  25  29
ENDBRANCH  24  25
ENDBRANCH   1  24
BRANCH   2  31
HETATM   31  C   UNL     1       8.413  21.853  54.123  1.00  0.00     0.225 A 
HETATM   32  N   UNL     1       8.012  22.101  52.873  1.00  0.00    -0.081 NA
HETATM   33  O   UNL     1       8.087  20.850  52.250  1.00  0.00    -0.103 OA
HETATM   34  N   UNL     1       8.504  19.872  53.140  1.00  0.00    -0.083 NA
HETATM   35  C   UNL     1       8.704  20.491  54.302  1.00  0.00     0.201 A 
BRANCH  35  36
HETATM   36  N   UNL     1       9.119  19.887  55.426  1.00  0.00    -0.379 N 
HETATM   37  H   UNL     1       9.659  19.027  55.376  1.00  0.00     0.158 HD
HETATM   38  H   UNL     1       8.796  20.133  56.358  1.00  0.00     0.158 HD
ENDBRANCH  35  36
ENDBRANCH   2  31
TORSDOF 12
ENDMDL
MODEL 8
REMARK VINA RESULT:      -7.5      4.030     10.440
REMARK  12 active torsions:
REMARK  status: ('A' for Active; 'I' for Inactive)
REMARK    1  A    between atoms: C_2  and  N_3 
REMARK    2  A    between atoms: N_3  and  C_5 
REMARK    3  A    between atoms: N_3  and  C_33 
REMARK    4  A    between atoms: C_5  and  C_6 
REMARK    5  A    between atoms: N_7  and  C_8 
REMARK    6  A    between atoms: C_12  and  N_13 
REMARK    7  A    between atoms: C_16  and  C_17 
REMARK       I    between atoms: C_17  and  N_18 
REMARK    8  A    between atoms: N_18  and  N_19 
REMARK    9  A    between atoms: C_20  and  C_21 
REMARK   10  A    between atoms: C_25  and  O_26 
REMARK   11  A    between atoms: C_27  and  O_28 
REMARK   12  A    between atoms: O_28  and  C_29 
ROOT
HETATM    1  C   UNL     1       6.754  29.769  57.182  1.00  0.00     0.096 A 
HETATM    2  N   UNL     1       7.158  28.457  56.948  1.00  0.00    -0.215 N 
HETATM    3  N   UNL     1       8.089  28.117  57.878  1.00  0.00     0.012 NA
HETATM    4  N   UNL     1       8.224  29.106  58.745  1.00  0.00    -0.152 NA
HETATM    5  C   UNL     1       7.412  30.128  58.350  1.00  0.00     0.170 A 
ENDROOT
BRANCH   5   6
HETATM    6  C   UNL     1       7.278  31.387  59.072  1.00  0.00     0.293 C 
HETATM    7  N   UNL     1       6.149  31.470  59.865  1.00  0.00    -0.242 N 
HETATM    8  H   UNL     1       5.494  30.693  59.913  1.00  0.00     0.192 HD
HETATM    9  O   UNL     1       8.120  32.270  58.926  1.00  0.00    -0.264 OA
BRANCH   7  10
HETATM   10  N   UNL     1       5.947  32.589  60.610  1.00  0.00    -0.184 NA
HETATM   11  C   UNL     1       5.949  32.438  61.896  1.00  0.00     0.150 C 
BRANCH  11  12
HETATM   12  C   UNL     1       5.762  33.596  62.795  1.00  0.00    -0.013 A 
HETATM   13  C   UNL     1       5.798  34.896  62.283  1.00  0.00     0.035 A 
HETATM   14  C   UNL     1       5.635  35.976  63.145  1.00  0.00     0.047 A 
HETATM   15 BR   UNL     1       5.697  37.732  62.434  1.00  0.00    -0.048 Br
HETATM   16  C   UNL     1       5.430  35.758  64.510  1.00  0.00     0.116 A 
HETATM   17  C   UNL     1       5.385  34.454  65.029  1.00  0.00     0.104 A 
HETATM   18  C   UNL     1       5.557  33.369  64.162  1.00  0.00     0.052 A 
BRANCH  16  19
HETATM   19  O   UNL     1       5.267  36.813  65.373  1.00  0.00    -0.357 OA
HETATM   20  H   UNL     1       4.886  36.473  66.203  1.00  0.00     0.218 HD
ENDBRANCH  16  19
BRANCH  17  21
HETATM   21  O   UNL     1       5.179  34.355  66.379  1.00  0.00    -0.349 OA
BRANCH  21  22
HETATM   22  C   UNL     1       6.313  34.241  67.231  1.00  0.00     0.171 C 
HETATM   23  C   UNL     1       5.845  34.454  68.660  1.00  0.00     0.034 C 
ENDBRANCH  21  22
ENDBRANCH  17  21
ENDBRANCH  11  12
ENDBRANCH   7  10
ENDBRANCH   5   6
BRANCH   1  24
HETATM   24  C   UNL     1       5.894  30.584  56.287  1.00  0.00     0.296 C 
BRANCH  24  25
HETATM   25  N   UNL     1       4.409  30.597  56.611  1.00  0.00    -0.066 N 
HETATM   26  H   UNL     1       4.276  29.933  57.388  1.00  0.00     0.280 HD
BRANCH  25  27
HETATM   27  C   UNL     1       3.591  30.086  55.431  1.00  0.00     0.231 C 
HETATM   28  C   UNL     1       4.448  29.927  54.188  1.00  0.00     0.034 C 
ENDBRANCH  25  27
BRANCH  25  29
HETATM   29  C   UNL     1       3.924  31.967  57.062  1.00  0.00     0.231 C 
HETATM   30  C   UNL     1       4.956  33.040  56.751  1.00  0.00     0.034 C 
ENDBRANCH  25  29
ENDBRANCH  24  25
ENDBRANCH   1  24
BRANCH   2  31
HETATM   31  C   UNL     1       6.685  27.549  55.971  1.00  0.00     0.225 A 
HETATM   32  N   UNL     1       7.413  27.312  54.876  1.00  0.00    -0.081 NA
HETATM   33  O   UNL     1       6.632  26.402  54.154  1.00  0.00    -0.103 OA
HETATM   34  N   UNL     1       5.441  26.132  54.811  1.00  0.00    -0.083 NA
HETATM   35  C   UNL     1       5.471  26.843  55.936  1.00  0.00     0.201 A 
BRANCH  35  36
HETATM   36  N   UNL     1       4.495  26.854  56.857  1.00  0.00    -0.379 N 
HETATM   37  H   UNL     1       3.550  27.127  56.600  1.00  0.00     0.158 HD
HETATM   38  H   UNL     1       4.655  26.765  57.858  1.00  0.00     0.158 HD
ENDBRANCH  35  36
ENDBRANCH   2  31
TORSDOF 12
ENDMDL
MODEL 9
REMARK VINA RESULT:      -7.5      3.695     10.071
REMARK  12 active torsions:
REMARK  status: ('A' for Active; 'I' for Inactive)
REMARK    1  A    between atoms: C_2  and  N_3 
REMARK    2  A    between atoms: N_3  and  C_5 
REMARK    3  A    between atoms: N_3  and  C_33 
REMARK    4  A    between atoms: C_5  and  C_6 
REMARK    5  A    between atoms: N_7  and  C_8 
REMARK    6  A    between atoms: C_12  and  N_13 
REMARK    7  A    between atoms: C_16  and  C_17 
REMARK       I    between atoms: C_17  and  N_18 
REMARK    8  A    between atoms: N_18  and  N_19 
REMARK    9  A    between atoms: C_20  and  C_21 
REMARK   10  A    between atoms: C_25  and  O_26 
REMARK   11  A    between atoms: C_27  and  O_28 
REMARK   12  A    between atoms: O_28  and  C_29 
ROOT
HETATM    1  C   UNL     1       6.076  29.231  57.397  1.00  0.00     0.096 A 
HETATM    2  N   UNL     1       5.435  28.289  56.598  1.00  0.00    -0.215 N 
HETATM    3  N   UNL     1       4.188  28.744  56.304  1.00  0.00     0.012 NA
HETATM    4  N   UNL     1       4.041  29.965  56.791  1.00  0.00    -0.152 NA
HETATM    5  C   UNL     1       5.184  30.294  57.457  1.00  0.00     0.170 A 
ENDROOT
BRANCH   5   6
HETATM    6  C   UNL     1       5.402  31.576  58.115  1.00  0.00     0.293 C 
HETATM    7  N   UNL     1       5.254  31.542  59.489  1.00  0.00    -0.242 N 
HETATM    8  H   UNL     1       5.014  30.674  59.962  1.00  0.00     0.192 HD
HETATM    9  O   UNL     1       5.669  32.571  57.446  1.00  0.00    -0.264 OA
BRANCH   7  10
HETATM   10  N   UNL     1       5.472  32.679  60.204  1.00  0.00    -0.184 NA
HETATM   11  C   UNL     1       4.921  32.743  61.374  1.00  0.00     0.150 C 
BRANCH  11  12
HETATM   12  C   UNL     1       5.116  33.925  62.239  1.00  0.00    -0.013 A 
HETATM   13  C   UNL     1       5.236  35.198  61.673  1.00  0.00     0.035 A 
HETATM   14  C   UNL     1       5.434  36.298  62.501  1.00  0.00     0.047 A 
HETATM   15 BR   UNL     1       5.604  38.015  61.715  1.00  0.00    -0.048 Br
HETATM   16  C   UNL     1       5.505  36.130  63.886  1.00  0.00     0.116 A 
HETATM   17  C   UNL     1       5.378  34.855  64.460  1.00  0.00     0.104 A 
HETATM   18  C   UNL     1       5.186  33.748  63.627  1.00  0.00     0.052 A 
BRANCH  16  19
HETATM   19  O   UNL     1       5.699  37.206  64.716  1.00  0.00    -0.357 OA
HETATM   20  H   UNL     1       5.594  36.906  65.636  1.00  0.00     0.218 HD
ENDBRANCH  16  19
BRANCH  17  21
HETATM   21  O   UNL     1       5.462  34.804  65.826  1.00  0.00    -0.349 OA
BRANCH  21  22
HETATM   22  C   UNL     1       4.387  34.213  66.549  1.00  0.00     0.171 C 
HETATM   23  C   UNL     1       3.261  35.228  66.622  1.00  0.00     0.034 C 
ENDBRANCH  21  22
ENDBRANCH  17  21
ENDBRANCH  11  12
ENDBRANCH   7  10
ENDBRANCH   5   6
BRANCH   1  24
HETATM   24  C   UNL     1       7.375  29.041  58.089  1.00  0.00     0.296 C 
BRANCH  24  25
HETATM   25  N   UNL     1       8.546  29.850  57.554  1.00  0.00    -0.066 N 
HETATM   26  H   UNL     1       8.194  30.360  56.731  1.00  0.00     0.280 HD
BRANCH  25  27
HETATM   27  C   UNL     1       9.667  28.935  57.078  1.00  0.00     0.231 C 
HETATM   28  C   UNL     1      10.953  29.708  56.845  1.00  0.00     0.034 C 
ENDBRANCH  25  27
BRANCH  25  29
HETATM   29  C   UNL     1       9.060  30.866  58.564  1.00  0.00     0.231 C 
HETATM   30  C   UNL     1       8.705  30.452  59.983  1.00  0.00     0.034 C 
ENDBRANCH  25  29
ENDBRANCH  24  25
ENDBRANCH   1  24
BRANCH   2  31
HETATM   31  C   UNL     1       5.945  27.072  56.087  1.00  0.00     0.225 A 
HETATM   32  N   UNL     1       6.927  27.092  55.180  1.00  0.00    -0.081 NA
HETATM   33  O   UNL     1       7.146  25.737  54.905  1.00  0.00    -0.103 OA
HETATM   34  N   UNL     1       6.277  24.932  55.626  1.00  0.00    -0.083 NA
HETATM   35  C   UNL     1       5.530  25.758  56.357  1.00  0.00     0.201 A 
BRANCH  35  36
HETATM   36  N   UNL     1       4.564  25.366  57.201  1.00  0.00    -0.379 N 
HETATM   37  H   UNL     1       4.377  24.376  57.344  1.00  0.00     0.158 HD
HETATM   38  H   UNL     1       3.870  25.991  57.604  1.00  0.00     0.158 HD
ENDBRANCH  35  36
ENDBRANCH   2  31
TORSDOF 12
ENDMDL
MODEL 10
REMARK VINA RESULT:      -7.4      1.785      3.323
REMARK  12 active torsions:
REMARK  status: ('A' for Active; 'I' for Inactive)
REMARK    1  A    between atoms: C_2  and  N_3 
REMARK    2  A    between atoms: N_3  and  C_5 
REMARK    3  A    between atoms: N_3  and  C_33 
REMARK    4  A    between atoms: C_5  and  C_6 
REMARK    5  A    between atoms: N_7  and  C_8 
REMARK    6  A    between atoms: C_12  and  N_13 
REMARK    7  A    between atoms: C_16  and  C_17 
REMARK       I    between atoms: C_17  and  N_18 
REMARK    8  A    between atoms: N_18  and  N_19 
REMARK    9  A    between atoms: C_20  and  C_21 
REMARK   10  A    between atoms: C_25  and  O_26 
REMARK   11  A    between atoms: C_27  and  O_28 
REMARK   12  A    between atoms: O_28  and  C_29 
ROOT
HETATM    1  C   UNL     1       7.125  31.933  60.378  1.00  0.00     0.096 A 
HETATM    2  N   UNL     1       7.325  32.367  61.686  1.00  0.00    -0.215 N 
HETATM    3  N   UNL     1       8.284  31.593  62.260  1.00  0.00     0.012 NA
HETATM    4  N   UNL     1       8.771  30.758  61.357  1.00  0.00    -0.152 NA
HETATM    5  C   UNL     1       8.087  30.949  60.193  1.00  0.00     0.170 A 
ENDROOT
BRANCH   5   6
HETATM    6  C   UNL     1       8.356  30.218  58.961  1.00  0.00     0.293 C 
HETATM    7  N   UNL     1       7.678  29.018  58.853  1.00  0.00    -0.242 N 
HETATM    8  H   UNL     1       7.051  28.711  59.592  1.00  0.00     0.192 HD
HETATM    9  O   UNL     1       9.149  30.672  58.140  1.00  0.00    -0.264 OA
BRANCH   7  10
HETATM   10  N   UNL     1       7.830  28.275  57.724  1.00  0.00    -0.184 NA
HETATM   11  C   UNL     1       7.608  27.004  57.833  1.00  0.00     0.150 C 
BRANCH  11  12
HETATM   12  C   UNL     1       7.723  26.112  56.660  1.00  0.00    -0.013 A 
HETATM   13  C   UNL     1       7.250  26.528  55.412  1.00  0.00     0.035 A 
HETATM   14  C   UNL     1       7.353  25.670  54.321  1.00  0.00     0.047 A 
HETATM   15 BR   UNL     1       6.696  26.248  52.639  1.00  0.00    -0.048 Br
HETATM   16  C   UNL     1       7.932  24.408  54.473  1.00  0.00     0.116 A 
HETATM   17  C   UNL     1       8.415  23.988  55.723  1.00  0.00     0.104 A 
HETATM   18  C   UNL     1       8.304  24.847  56.821  1.00  0.00     0.052 A 
BRANCH  16  19
HETATM   19  O   UNL     1       8.040  23.551  53.407  1.00  0.00    -0.357 OA
HETATM   20  H   UNL     1       7.634  22.701  53.655  1.00  0.00     0.218 HD
ENDBRANCH  16  19
BRANCH  17  21
HETATM   21  O   UNL     1       8.963  22.733  55.761  1.00  0.00    -0.349 OA
BRANCH  21  22
HETATM   22  C   UNL     1       8.416  21.782  56.668  1.00  0.00     0.171 C 
HETATM   23  C   UNL     1       7.751  20.689  55.851  1.00  0.00     0.034 C 
ENDBRANCH  21  22
ENDBRANCH  17  21
ENDBRANCH  11  12
ENDBRANCH   7  10
ENDBRANCH   5   6
BRANCH   1  24
HETATM   24  C   UNL     1       6.040  32.384  59.471  1.00  0.00     0.296 C 
BRANCH  24  25
HETATM   25  N   UNL     1       4.915  31.393  59.227  1.00  0.00    -0.066 N 
HETATM   26  H   UNL     1       5.136  30.558  59.788  1.00  0.00     0.280 HD
BRANCH  25  27
HETATM   27  C   UNL     1       4.877  30.961  57.766  1.00  0.00     0.231 C 
HETATM   28  C   UNL     1       3.504  30.444  57.375  1.00  0.00     0.034 C 
ENDBRANCH  25  27
BRANCH  25  29
HETATM   29  C   UNL     1       3.562  31.927  59.674  1.00  0.00     0.231 C 
HETATM   30  C   UNL     1       3.491  33.437  59.513  1.00  0.00     0.034 C 
ENDBRANCH  25  29
ENDBRANCH  24  25
ENDBRANCH   1  24
BRANCH   2  31
HETATM   31  C   UNL     1       6.720  33.457  62.356  1.00  0.00     0.225 A 
HETATM   32  N   UNL     1       6.055  34.381  61.657  1.00  0.00    -0.081 NA
HETATM   33  O   UNL     1       5.627  35.287  62.634  1.00  0.00    -0.103 OA
HETATM   34  N   UNL     1       6.064  34.908  63.894  1.00  0.00    -0.083 NA
HETATM   35  C   UNL     1       6.743  33.775  63.724  1.00  0.00     0.201 A 
BRANCH  35  36
HETATM   36  N   UNL     1       7.329  33.082  64.712  1.00  0.00    -0.379 N 
HETATM   37  H   UNL     1       7.651  32.131  64.550  1.00  0.00     0.158 HD
HETATM   38  H   UNL     1       7.337  33.373  65.686  1.00  0.00     0.158 HD
ENDBRANCH  35  36
ENDBRANCH   2  31
TORSDOF 12
ENDMDL
