MODEL 1
REMARK VINA RESULT:      -9.1      0.000      0.000
REMARK  6 active torsions:
REMARK  status: ('A' for Active; 'I' for Inactive)
REMARK    1  A    between atoms: C_4  and  C_5 
REMARK    2  A    between atoms: C_5  and  N_6 
REMARK    3  A    between atoms: N_6  and  N_7 
REMARK    4  A    between atoms: N_6  and  C_21 
REMARK       I    between atoms: N_7  and  C_8 
REMARK    5  A    between atoms: C_8  and  C_9 
REMARK    6  A    between atoms: C_9  and  C_10 
ROOT
HETATM    1  N   UNL     1       8.274  26.330  56.377  1.00  0.00    -0.267 N 
HETATM    2  C   UNL     1       7.695  25.259  57.053  1.00  0.00     0.240 C 
HETATM    3  O   UNL     1       6.494  25.174  57.302  1.00  0.00    -0.272 OA
HETATM    4  H   UNL     1       9.266  26.409  56.190  1.00  0.00     0.190 HD
ENDROOT
BRANCH   1   5
HETATM    5  N   UNL     1       7.470  27.375  55.866  1.00  0.00    -0.286 N 
BRANCH   5   6
HETATM    6  C   UNL     1       7.564  27.575  54.405  1.00  0.00     0.187 C 
BRANCH   6   7
HETATM    7  C   UNL     1       6.648  26.640  53.638  1.00  0.00    -0.038 A 
HETATM    8  C   UNL     1       6.948  26.292  52.312  1.00  0.00     0.009 A 
HETATM    9  C   UNL     1       6.139  25.393  51.612  1.00  0.00     0.001 A 
HETATM   10  C   UNL     1       5.029  24.824  52.233  1.00  0.00     0.000 A 
HETATM   11  C   UNL     1       4.727  25.149  53.553  1.00  0.00     0.001 A 
HETATM   12  C   UNL     1       5.534  26.047  54.253  1.00  0.00     0.009 A 
ENDBRANCH   6   7
ENDBRANCH   5   6
BRANCH   5  13
HETATM   13  C   UNL     1       7.292  28.455  56.757  1.00  0.00     0.051 A 
HETATM   14  C   UNL     1       8.282  28.774  57.708  1.00  0.00     0.031 A 
HETATM   15  C   UNL     1       8.134  29.836  58.609  1.00  0.00     0.002 A 
HETATM   16  C   UNL     1       6.981  30.610  58.587  1.00  0.00     0.000 A 
HETATM   17  C   UNL     1       5.978  30.313  57.673  1.00  0.00     0.002 A 
HETATM   18  C   UNL     1       6.130  29.244  56.778  1.00  0.00     0.031 A 
ENDBRANCH   5  13
ENDBRANCH   1   5
BRANCH   2  19
HETATM   19  C   UNL     1       8.721  24.195  57.416  1.00  0.00     0.145 C 
BRANCH  19  20
HETATM   20  C   UNL     1       8.435  22.860  56.808  1.00  0.00    -0.021 A 
HETATM   21  C   UNL     1       8.271  22.575  55.413  1.00  0.00    -0.001 A 
HETATM   22  C   UNL     1       8.045  21.205  55.287  1.00  0.00     0.042 A 
HETATM   23  C   UNL     1       8.288  23.363  54.243  1.00  0.00     0.014 A 
HETATM   24  C   UNL     1       7.845  20.580  54.050  1.00  0.00     0.030 A 
HETATM   25  N   UNL     1       8.058  20.676  56.556  1.00  0.00    -0.365 N 
HETATM   26  C   UNL     1       7.874  21.383  52.907  1.00  0.00     0.002 A 
HETATM   27  C   UNL     1       8.090  22.755  52.999  1.00  0.00     0.001 A 
HETATM   28  H   UNL     1       7.908  19.700  56.769  1.00  0.00     0.165 HD
HETATM   29  C   UNL     1       8.301  21.659  57.478  1.00  0.00     0.097 A 
ENDBRANCH  19  20
ENDBRANCH   2  19
TORSDOF 6
ENDMDL
MODEL 2
REMARK VINA RESULT:      -8.8      0.854      4.470
REMARK  6 active torsions:
REMARK  status: ('A' for Active; 'I' for Inactive)
REMARK    1  A    between atoms: C_4  and  C_5 
REMARK    2  A    between atoms: C_5  and  N_6 
REMARK    3  A    between atoms: N_6  and  N_7 
REMARK    4  A    between atoms: N_6  and  C_21 
REMARK       I    between atoms: N_7  and  C_8 
REMARK    5  A    between atoms: C_8  and  C_9 
REMARK    6  A    between atoms: C_9  and  C_10 
ROOT
HETATM    1  N   UNL     1       8.086  25.745  55.873  1.00  0.00    -0.267 N 
HETATM    2  C   UNL     1       7.556  24.913  56.855  1.00  0.00     0.240 C 
HETATM    3  O   UNL     1       6.398  24.985  57.263  1.00  0.00    -0.272 OA
HETATM    4  H   UNL     1       9.046  25.698  55.553  1.00  0.00     0.190 HD
ENDROOT
BRANCH   1   5
HETATM    5  N   UNL     1       7.270  26.701  55.226  1.00  0.00    -0.286 N 
BRANCH   5   6
HETATM    6  C   UNL     1       6.699  27.734  56.114  1.00  0.00     0.187 C 
BRANCH   6   7
HETATM    7  C   UNL     1       7.770  28.593  56.759  1.00  0.00    -0.038 A 
HETATM    8  C   UNL     1       8.873  29.025  56.008  1.00  0.00     0.009 A 
HETATM    9  C   UNL     1       9.840  29.857  56.578  1.00  0.00     0.001 A 
HETATM   10  C   UNL     1       9.709  30.276  57.900  1.00  0.00     0.000 A 
HETATM   11  C   UNL     1       8.612  29.867  58.654  1.00  0.00     0.001 A 
HETATM   12  C   UNL     1       7.646  29.035  58.086  1.00  0.00     0.009 A 
ENDBRANCH   6   7
ENDBRANCH   5   6
BRANCH   5  13
HETATM   13  C   UNL     1       6.561  26.197  54.114  1.00  0.00     0.051 A 
HETATM   14  C   UNL     1       7.071  26.344  52.809  1.00  0.00     0.031 A 
HETATM   15  C   UNL     1       6.391  25.861  51.685  1.00  0.00     0.002 A 
HETATM   16  C   UNL     1       5.170  25.217  51.836  1.00  0.00     0.000 A 
HETATM   17  C   UNL     1       4.629  25.070  53.108  1.00  0.00     0.002 A 
HETATM   18  C   UNL     1       5.314  25.562  54.228  1.00  0.00     0.031 A 
ENDBRANCH   5  13
ENDBRANCH   1   5
BRANCH   2  19
HETATM   19  C   UNL     1       8.570  23.886  57.338  1.00  0.00     0.145 C 
BRANCH  19  20
HETATM   20  C   UNL     1       8.401  22.540  56.708  1.00  0.00    -0.021 A 
HETATM   21  C   UNL     1       8.256  22.265  55.309  1.00  0.00    -0.001 A 
HETATM   22  C   UNL     1       8.152  20.882  55.162  1.00  0.00     0.042 A 
HETATM   23  C   UNL     1       8.199  23.070  54.153  1.00  0.00     0.014 A 
HETATM   24  C   UNL     1       8.003  20.262  53.915  1.00  0.00     0.030 A 
HETATM   25  N   UNL     1       8.218  20.336  56.422  1.00  0.00    -0.365 N 
HETATM   26  C   UNL     1       7.956  21.083  52.785  1.00  0.00     0.002 A 
HETATM   27  C   UNL     1       8.050  22.468  52.899  1.00  0.00     0.001 A 
HETATM   28  H   UNL     1       8.156  19.347  56.618  1.00  0.00     0.165 HD
HETATM   29  C   UNL     1       8.376  21.321  57.359  1.00  0.00     0.097 A 
ENDBRANCH  19  20
ENDBRANCH   2  19
TORSDOF 6
ENDMDL
MODEL 3
REMARK VINA RESULT:      -8.7      3.468      4.737
REMARK  6 active torsions:
REMARK  status: ('A' for Active; 'I' for Inactive)
REMARK    1  A    between atoms: C_4  and  C_5 
REMARK    2  A    between atoms: C_5  and  N_6 
REMARK    3  A    between atoms: N_6  and  N_7 
REMARK    4  A    between atoms: N_6  and  C_21 
REMARK       I    between atoms: N_7  and  C_8 
REMARK    5  A    between atoms: C_8  and  C_9 
REMARK    6  A    between atoms: C_9  and  C_10 
ROOT
HETATM    1  N   UNL     1       6.141  26.897  51.854  1.00  0.00    -0.267 N 
HETATM    2  C   UNL     1       5.967  25.518  51.940  1.00  0.00     0.240 C 
HETATM    3  O   UNL     1       4.889  24.952  51.770  1.00  0.00    -0.272 OA
HETATM    4  H   UNL     1       7.025  27.364  52.014  1.00  0.00     0.190 HD
ENDROOT
BRANCH   1   5
HETATM    5  N   UNL     1       5.063  27.735  51.486  1.00  0.00    -0.286 N 
BRANCH   5   6
HETATM    6  C   UNL     1       5.082  28.191  50.081  1.00  0.00     0.187 C 
BRANCH   6   7
HETATM    7  C   UNL     1       4.007  27.521  49.246  1.00  0.00    -0.038 A 
HETATM    8  C   UNL     1       2.748  28.124  49.105  1.00  0.00     0.009 A 
HETATM    9  C   UNL     1       1.767  27.542  48.298  1.00  0.00     0.001 A 
HETATM   10  C   UNL     1       2.037  26.358  47.616  1.00  0.00     0.000 A 
HETATM   11  C   UNL     1       3.286  25.756  47.734  1.00  0.00     0.001 A 
HETATM   12  C   UNL     1       4.267  26.336  48.540  1.00  0.00     0.009 A 
ENDBRANCH   6   7
ENDBRANCH   5   6
BRANCH   5  13
HETATM   13  C   UNL     1       4.587  28.556  52.530  1.00  0.00     0.051 A 
HETATM   14  C   UNL     1       4.036  29.823  52.254  1.00  0.00     0.031 A 
HETATM   15  C   UNL     1       3.559  30.664  53.267  1.00  0.00     0.002 A 
HETATM   16  C   UNL     1       3.626  30.260  54.594  1.00  0.00     0.000 A 
HETATM   17  C   UNL     1       4.179  29.023  54.903  1.00  0.00     0.002 A 
HETATM   18  C   UNL     1       4.660  28.189  53.884  1.00  0.00     0.031 A 
ENDBRANCH   5  13
ENDBRANCH   1   5
BRANCH   2  19
HETATM   19  C   UNL     1       7.274  24.798  52.237  1.00  0.00     0.145 C 
BRANCH  19  20
HETATM   20  C   UNL     1       7.284  24.104  53.562  1.00  0.00    -0.021 A 
HETATM   21  C   UNL     1       7.637  22.736  53.806  1.00  0.00    -0.001 A 
HETATM   22  C   UNL     1       7.533  22.515  55.179  1.00  0.00     0.042 A 
HETATM   23  C   UNL     1       8.031  21.663  52.980  1.00  0.00     0.014 A 
HETATM   24  C   UNL     1       7.813  21.277  55.770  1.00  0.00     0.030 A 
HETATM   25  N   UNL     1       7.120  23.696  55.749  1.00  0.00    -0.365 N 
HETATM   26  C   UNL     1       8.208  20.232  54.930  1.00  0.00     0.002 A 
HETATM   27  C   UNL     1       8.315  20.419  53.554  1.00  0.00     0.001 A 
HETATM   28  H   UNL     1       6.950  23.824  56.736  1.00  0.00     0.165 HD
HETATM   29  C   UNL     1       6.976  24.661  54.788  1.00  0.00     0.097 A 
ENDBRANCH  19  20
ENDBRANCH   2  19
TORSDOF 6
ENDMDL
MODEL 4
REMARK VINA RESULT:      -8.7      1.792      4.346
REMARK  6 active torsions:
REMARK  status: ('A' for Active; 'I' for Inactive)
REMARK    1  A    between atoms: C_4  and  C_5 
REMARK    2  A    between atoms: C_5  and  N_6 
REMARK    3  A    between atoms: N_6  and  N_7 
REMARK    4  A    between atoms: N_6  and  C_21 
REMARK       I    between atoms: N_7  and  C_8 
REMARK    5  A    between atoms: C_8  and  C_9 
REMARK    6  A    between atoms: C_9  and  C_10 
ROOT
HETATM    1  N   UNL     1       6.187  26.831  55.860  1.00  0.00    -0.267 N 
HETATM    2  C   UNL     1       6.969  26.401  54.792  1.00  0.00     0.240 C 
HETATM    3  O   UNL     1       7.882  27.062  54.301  1.00  0.00    -0.272 OA
HETATM    4  H   UNL     1       5.422  26.294  56.251  1.00  0.00     0.190 HD
ENDROOT
BRANCH   1   5
HETATM    5  N   UNL     1       6.459  28.063  56.499  1.00  0.00    -0.286 N 
BRANCH   5   6
HETATM    6  C   UNL     1       7.275  27.960  57.725  1.00  0.00     0.187 C 
BRANCH   6   7
HETATM    7  C   UNL     1       8.428  28.946  57.732  1.00  0.00    -0.038 A 
HETATM    8  C   UNL     1       9.478  28.809  56.811  1.00  0.00     0.009 A 
HETATM    9  C   UNL     1      10.519  29.739  56.774  1.00  0.00     0.001 A 
HETATM   10  C   UNL     1      10.517  30.823  57.650  1.00  0.00     0.000 A 
HETATM   11  C   UNL     1       9.476  30.981  58.560  1.00  0.00     0.001 A 
HETATM   12  C   UNL     1       8.435  30.051  58.598  1.00  0.00     0.009 A 
ENDBRANCH   6   7
ENDBRANCH   5   6
BRANCH   5  13
HETATM   13  C   UNL     1       5.433  29.022  56.363  1.00  0.00     0.051 A 
HETATM   14  C   UNL     1       4.971  29.407  55.088  1.00  0.00     0.031 A 
HETATM   15  C   UNL     1       3.959  30.360  54.919  1.00  0.00     0.002 A 
HETATM   16  C   UNL     1       3.380  30.962  56.029  1.00  0.00     0.000 A 
HETATM   17  C   UNL     1       3.823  30.618  57.300  1.00  0.00     0.002 A 
HETATM   18  C   UNL     1       4.841  29.668  57.461  1.00  0.00     0.031 A 
ENDBRANCH   5  13
ENDBRANCH   1   5
BRANCH   2  19
HETATM   19  C   UNL     1       6.580  25.004  54.329  1.00  0.00     0.145 C 
BRANCH  19  20
HETATM   20  C   UNL     1       7.295  23.913  55.059  1.00  0.00    -0.021 A 
HETATM   21  C   UNL     1       7.715  22.655  54.514  1.00  0.00    -0.001 A 
HETATM   22  C   UNL     1       8.364  21.954  55.530  1.00  0.00     0.042 A 
HETATM   23  C   UNL     1       7.597  22.047  53.247  1.00  0.00     0.014 A 
HETATM   24  C   UNL     1       8.909  20.678  55.341  1.00  0.00     0.030 A 
HETATM   25  N   UNL     1       8.330  22.746  56.653  1.00  0.00    -0.365 N 
HETATM   26  C   UNL     1       8.784  20.101  54.074  1.00  0.00     0.002 A 
HETATM   27  C   UNL     1       8.135  20.773  53.041  1.00  0.00     0.001 A 
HETATM   28  H   UNL     1       8.717  22.484  57.548  1.00  0.00     0.165 HD
HETATM   29  C   UNL     1       7.698  23.930  56.380  1.00  0.00     0.097 A 
ENDBRANCH  19  20
ENDBRANCH   2  19
TORSDOF 6
ENDMDL
MODEL 5
REMARK VINA RESULT:      -8.5      2.644      7.233
REMARK  6 active torsions:
REMARK  status: ('A' for Active; 'I' for Inactive)
REMARK    1  A    between atoms: C_4  and  C_5 
REMARK    2  A    between atoms: C_5  and  N_6 
REMARK    3  A    between atoms: N_6  and  N_7 
REMARK    4  A    between atoms: N_6  and  C_21 
REMARK       I    between atoms: N_7  and  C_8 
REMARK    5  A    between atoms: C_8  and  C_9 
REMARK    6  A    between atoms: C_9  and  C_10 
ROOT
HETATM    1  N   UNL     1       7.796  24.640  53.670  1.00  0.00    -0.267 N 
HETATM    2  C   UNL     1       6.620  24.907  52.973  1.00  0.00     0.240 C 
HETATM    3  O   UNL     1       5.520  24.456  53.287  1.00  0.00    -0.272 OA
HETATM    4  H   UNL     1       8.705  24.996  53.399  1.00  0.00     0.190 HD
ENDROOT
BRANCH   1   5
HETATM    5  N   UNL     1       7.768  23.868  54.854  1.00  0.00    -0.286 N 
BRANCH   5   6
HETATM    6  C   UNL     1       8.152  24.596  56.080  1.00  0.00     0.187 C 
BRANCH   6   7
HETATM    7  C   UNL     1       7.205  25.740  56.389  1.00  0.00    -0.038 A 
HETATM    8  C   UNL     1       5.839  25.490  56.587  1.00  0.00     0.009 A 
HETATM    9  C   UNL     1       4.966  26.529  56.920  1.00  0.00     0.001 A 
HETATM   10  C   UNL     1       5.452  27.826  57.070  1.00  0.00     0.000 A 
HETATM   11  C   UNL     1       6.807  28.088  56.891  1.00  0.00     0.001 A 
HETATM   12  C   UNL     1       7.680  27.051  56.558  1.00  0.00     0.009 A 
ENDBRANCH   6   7
ENDBRANCH   5   6
BRANCH   5  13
HETATM   13  C   UNL     1       8.090  22.507  54.662  1.00  0.00     0.051 A 
HETATM   14  C   UNL     1       8.195  21.631  55.762  1.00  0.00     0.031 A 
HETATM   15  C   UNL     1       8.517  20.277  55.607  1.00  0.00     0.002 A 
HETATM   16  C   UNL     1       8.749  19.759  54.339  1.00  0.00     0.000 A 
HETATM   17  C   UNL     1       8.670  20.598  53.235  1.00  0.00     0.002 A 
HETATM   18  C   UNL     1       8.353  21.954  53.398  1.00  0.00     0.031 A 
ENDBRANCH   5  13
ENDBRANCH   1   5
BRANCH   2  19
HETATM   19  C   UNL     1       6.856  25.846  51.799  1.00  0.00     0.145 C 
BRANCH  19  20
HETATM   20  C   UNL     1       5.653  26.654  51.431  1.00  0.00    -0.021 A 
HETATM   21  C   UNL     1       5.084  27.731  52.187  1.00  0.00    -0.001 A 
HETATM   22  C   UNL     1       3.992  28.217  51.469  1.00  0.00     0.042 A 
HETATM   23  C   UNL     1       5.399  28.334  53.423  1.00  0.00     0.014 A 
HETATM   24  C   UNL     1       3.202  29.282  51.919  1.00  0.00     0.030 A 
HETATM   25  N   UNL     1       3.889  27.458  50.327  1.00  0.00    -0.365 N 
HETATM   26  C   UNL     1       3.540  29.866  53.144  1.00  0.00     0.002 A 
HETATM   27  C   UNL     1       4.621  29.400  53.888  1.00  0.00     0.001 A 
HETATM   28  H   UNL     1       3.176  27.581  49.623  1.00  0.00     0.165 HD
HETATM   29  C   UNL     1       4.887  26.521  50.288  1.00  0.00     0.097 A 
ENDBRANCH  19  20
ENDBRANCH   2  19
TORSDOF 6
ENDMDL
MODEL 6
REMARK VINA RESULT:      -8.4      2.674      5.589
REMARK  6 active torsions:
REMARK  status: ('A' for Active; 'I' for Inactive)
REMARK    1  A    between atoms: C_4  and  C_5 
REMARK    2  A    between atoms: C_5  and  N_6 
REMARK    3  A    between atoms: N_6  and  N_7 
REMARK    4  A    between atoms: N_6  and  C_21 
REMARK       I    between atoms: N_7  and  C_8 
REMARK    5  A    between atoms: C_8  and  C_9 
REMARK    6  A    between atoms: C_9  and  C_10 
ROOT
HETATM    1  N   UNL     1       5.723  25.567  52.098  1.00  0.00    -0.267 N 
HETATM    2  C   UNL     1       7.029  25.096  52.199  1.00  0.00     0.240 C 
HETATM    3  O   UNL     1       8.026  25.796  52.030  1.00  0.00    -0.272 OA
HETATM    4  H   UNL     1       4.903  24.985  52.218  1.00  0.00     0.190 HD
ENDROOT
BRANCH   1   5
HETATM    5  N   UNL     1       5.472  26.937  51.856  1.00  0.00    -0.286 N 
BRANCH   5   6
HETATM    6  C   UNL     1       4.774  27.644  52.950  1.00  0.00     0.187 C 
BRANCH   6   7
HETATM    7  C   UNL     1       5.631  27.760  54.197  1.00  0.00    -0.038 A 
HETATM    8  C   UNL     1       5.120  27.364  55.442  1.00  0.00     0.009 A 
HETATM    9  C   UNL     1       5.916  27.420  56.588  1.00  0.00     0.001 A 
HETATM   10  C   UNL     1       7.235  27.862  56.501  1.00  0.00     0.000 A 
HETATM   11  C   UNL     1       7.761  28.244  55.270  1.00  0.00     0.001 A 
HETATM   12  C   UNL     1       6.966  28.190  54.124  1.00  0.00     0.009 A 
ENDBRANCH   6   7
ENDBRANCH   5   6
BRANCH   5  13
HETATM   13  C   UNL     1       5.243  27.252  50.499  1.00  0.00     0.051 A 
HETATM   14  C   UNL     1       4.688  26.297  49.624  1.00  0.00     0.031 A 
HETATM   15  C   UNL     1       4.453  26.575  48.271  1.00  0.00     0.002 A 
HETATM   16  C   UNL     1       4.773  27.823  47.753  1.00  0.00     0.000 A 
HETATM   17  C   UNL     1       5.338  28.782  48.586  1.00  0.00     0.002 A 
HETATM   18  C   UNL     1       5.575  28.494  49.937  1.00  0.00     0.031 A 
ENDBRANCH   5  13
ENDBRANCH   1   5
BRANCH   2  19
HETATM   19  C   UNL     1       7.074  23.621  52.574  1.00  0.00     0.145 C 
BRANCH  19  20
HETATM   20  C   UNL     1       7.337  23.384  54.027  1.00  0.00    -0.021 A 
HETATM   21  C   UNL     1       7.854  22.183  54.615  1.00  0.00    -0.001 A 
HETATM   22  C   UNL     1       7.966  22.402  55.987  1.00  0.00     0.042 A 
HETATM   23  C   UNL     1       8.232  20.924  54.102  1.00  0.00     0.014 A 
HETATM   24  C   UNL     1       8.446  21.430  56.874  1.00  0.00     0.030 A 
HETATM   25  N   UNL     1       7.523  23.681  56.230  1.00  0.00    -0.365 N 
HETATM   26  C   UNL     1       8.820  20.194  56.339  1.00  0.00     0.002 A 
HETATM   27  C   UNL     1       8.713  19.941  54.973  1.00  0.00     0.001 A 
HETATM   28  H   UNL     1       7.481  24.106  57.145  1.00  0.00     0.165 HD
HETATM   29  C   UNL     1       7.151  24.284  55.058  1.00  0.00     0.097 A 
ENDBRANCH  19  20
ENDBRANCH   2  19
TORSDOF 6
ENDMDL
MODEL 7
REMARK VINA RESULT:      -8.3      3.005      7.481
REMARK  6 active torsions:
REMARK  status: ('A' for Active; 'I' for Inactive)
REMARK    1  A    between atoms: C_4  and  C_5 
REMARK    2  A    between atoms: C_5  and  N_6 
REMARK    3  A    between atoms: N_6  and  N_7 
REMARK    4  A    between atoms: N_6  and  C_21 
REMARK       I    between atoms: N_7  and  C_8 
REMARK    5  A    between atoms: C_8  and  C_9 
REMARK    6  A    between atoms: C_9  and  C_10 
ROOT
HETATM    1  N   UNL     1       6.796  24.844  52.777  1.00  0.00    -0.267 N 
HETATM    2  C   UNL     1       5.460  25.106  52.489  1.00  0.00     0.240 C 
HETATM    3  O   UNL     1       4.537  24.904  53.276  1.00  0.00    -0.272 OA
HETATM    4  H   UNL     1       7.554  24.991  52.120  1.00  0.00     0.190 HD
ENDROOT
BRANCH   1   5
HETATM    5  N   UNL     1       7.177  24.383  54.058  1.00  0.00    -0.286 N 
BRANCH   5   6
HETATM    6  C   UNL     1       7.880  25.378  54.893  1.00  0.00     0.187 C 
BRANCH   6   7
HETATM    7  C   UNL     1       6.926  26.375  55.523  1.00  0.00    -0.038 A 
HETATM    8  C   UNL     1       5.803  25.924  56.234  1.00  0.00     0.009 A 
HETATM    9  C   UNL     1       4.945  26.832  56.860  1.00  0.00     0.001 A 
HETATM   10  C   UNL     1       5.206  28.199  56.791  1.00  0.00     0.000 A 
HETATM   11  C   UNL     1       6.323  28.661  56.102  1.00  0.00     0.001 A 
HETATM   12  C   UNL     1       7.181  27.755  55.476  1.00  0.00     0.009 A 
ENDBRANCH   6   7
ENDBRANCH   5   6
BRANCH   5  13
HETATM   13  C   UNL     1       7.498  23.009  54.105  1.00  0.00     0.051 A 
HETATM   14  C   UNL     1       7.523  22.319  55.334  1.00  0.00     0.031 A 
HETATM   15  C   UNL     1       7.841  20.957  55.416  1.00  0.00     0.002 A 
HETATM   16  C   UNL     1       8.152  20.246  54.265  1.00  0.00     0.000 A 
HETATM   17  C   UNL     1       8.153  20.900  53.039  1.00  0.00     0.002 A 
HETATM   18  C   UNL     1       7.839  22.264  52.965  1.00  0.00     0.031 A 
ENDBRANCH   5  13
ENDBRANCH   1   5
BRANCH   2  19
HETATM   19  C   UNL     1       5.283  25.699  51.099  1.00  0.00     0.145 C 
BRANCH  19  20
HETATM   20  C   UNL     1       5.393  27.190  51.069  1.00  0.00    -0.021 A 
HETATM   21  C   UNL     1       5.199  28.037  49.929  1.00  0.00    -0.001 A 
HETATM   22  C   UNL     1       5.372  29.354  50.350  1.00  0.00     0.042 A 
HETATM   23  C   UNL     1       4.895  27.800  48.572  1.00  0.00     0.014 A 
HETATM   24  C   UNL     1       5.248  30.450  49.486  1.00  0.00     0.030 A 
HETATM   25  N   UNL     1       5.674  29.313  51.691  1.00  0.00    -0.365 N 
HETATM   26  C   UNL     1       4.940  30.187  48.148  1.00  0.00     0.002 A 
HETATM   27  C   UNL     1       4.767  28.882  47.695  1.00  0.00     0.001 A 
HETATM   28  H   UNL     1       5.863  30.127  52.258  1.00  0.00     0.165 HD
HETATM   29  C   UNL     1       5.681  28.018  52.136  1.00  0.00     0.097 A 
ENDBRANCH  19  20
ENDBRANCH   2  19
TORSDOF 6
ENDMDL
MODEL 8
REMARK VINA RESULT:      -8.3      2.190      5.176
REMARK  6 active torsions:
REMARK  status: ('A' for Active; 'I' for Inactive)
REMARK    1  A    between atoms: C_4  and  C_5 
REMARK    2  A    between atoms: C_5  and  N_6 
REMARK    3  A    between atoms: N_6  and  N_7 
REMARK    4  A    between atoms: N_6  and  C_21 
REMARK       I    between atoms: N_7  and  C_8 
REMARK    5  A    between atoms: C_8  and  C_9 
REMARK    6  A    between atoms: C_9  and  C_10 
ROOT
HETATM    1  N   UNL     1       7.095  26.057  52.690  1.00  0.00    -0.267 N 
HETATM    2  C   UNL     1       6.801  24.715  52.912  1.00  0.00     0.240 C 
HETATM    3  O   UNL     1       5.720  24.311  53.338  1.00  0.00    -0.272 OA
HETATM    4  H   UNL     1       7.993  26.389  52.358  1.00  0.00     0.190 HD
ENDROOT
BRANCH   1   5
HETATM    5  N   UNL     1       6.108  27.050  52.884  1.00  0.00    -0.286 N 
BRANCH   5   6
HETATM    6  C   UNL     1       5.560  27.122  54.254  1.00  0.00     0.187 C 
BRANCH   6   7
HETATM    7  C   UNL     1       6.625  27.456  55.282  1.00  0.00    -0.038 A 
HETATM    8  C   UNL     1       6.896  26.563  56.330  1.00  0.00     0.009 A 
HETATM    9  C   UNL     1       7.909  26.837  57.252  1.00  0.00     0.001 A 
HETATM   10  C   UNL     1       8.668  27.999  57.132  1.00  0.00     0.000 A 
HETATM   11  C   UNL     1       8.419  28.887  56.089  1.00  0.00     0.001 A 
HETATM   12  C   UNL     1       7.408  28.615  55.167  1.00  0.00     0.009 A 
ENDBRANCH   6   7
ENDBRANCH   5   6
BRANCH   5  13
HETATM   13  C   UNL     1       5.310  27.301  51.747  1.00  0.00     0.051 A 
HETATM   14  C   UNL     1       4.411  28.386  51.726  1.00  0.00     0.031 A 
HETATM   15  C   UNL     1       3.602  28.660  50.616  1.00  0.00     0.002 A 
HETATM   16  C   UNL     1       3.667  27.847  49.492  1.00  0.00     0.000 A 
HETATM   17  C   UNL     1       4.530  26.759  49.486  1.00  0.00     0.002 A 
HETATM   18  C   UNL     1       5.333  26.488  50.603  1.00  0.00     0.031 A 
ENDBRANCH   5  13
ENDBRANCH   1   5
BRANCH   2  19
HETATM   19  C   UNL     1       7.963  23.807  52.535  1.00  0.00     0.145 C 
BRANCH  19  20
HETATM   20  C   UNL     1       7.980  22.516  53.289  1.00  0.00    -0.021 A 
HETATM   21  C   UNL     1       8.119  22.357  54.707  1.00  0.00    -0.001 A 
HETATM   22  C   UNL     1       8.057  20.993  54.984  1.00  0.00     0.042 A 
HETATM   23  C   UNL     1       8.298  23.254  55.781  1.00  0.00     0.014 A 
HETATM   24  C   UNL     1       8.156  20.478  56.283  1.00  0.00     0.030 A 
HETATM   25  N   UNL     1       7.900  20.342  53.783  1.00  0.00    -0.365 N 
HETATM   26  C   UNL     1       8.326  21.389  57.330  1.00  0.00     0.002 A 
HETATM   27  C   UNL     1       8.398  22.758  57.084  1.00  0.00     0.001 A 
HETATM   28  H   UNL     1       7.838  19.340  53.681  1.00  0.00     0.165 HD
HETATM   29  C   UNL     1       7.843  21.248  52.757  1.00  0.00     0.097 A 
ENDBRANCH  19  20
ENDBRANCH   2  19
TORSDOF 6
ENDMDL
MODEL 9
REMARK VINA RESULT:      -8.2      1.640      7.036
REMARK  6 active torsions:
REMARK  status: ('A' for Active; 'I' for Inactive)
REMARK    1  A    between atoms: C_4  and  C_5 
REMARK    2  A    between atoms: C_5  and  N_6 
REMARK    3  A    between atoms: N_6  and  N_7 
REMARK    4  A    between atoms: N_6  and  C_21 
REMARK       I    between atoms: N_7  and  C_8 
REMARK    5  A    between atoms: C_8  and  C_9 
REMARK    6  A    between atoms: C_9  and  C_10 
ROOT
HETATM    1  N   UNL     1       6.594  26.828  55.491  1.00  0.00    -0.267 N 
HETATM    2  C   UNL     1       6.700  26.803  56.879  1.00  0.00     0.240 C 
HETATM    3  O   UNL     1       6.898  25.781  57.533  1.00  0.00    -0.272 OA
HETATM    4  H   UNL     1       6.411  27.668  54.955  1.00  0.00     0.190 HD
ENDROOT
BRANCH   1   5
HETATM    5  N   UNL     1       6.786  25.649  54.736  1.00  0.00    -0.286 N 
BRANCH   5   6
HETATM    6  C   UNL     1       8.080  24.972  54.957  1.00  0.00     0.187 C 
BRANCH   6   7
HETATM    7  C   UNL     1       7.992  23.475  54.725  1.00  0.00    -0.038 A 
HETATM    8  C   UNL     1       8.317  22.937  53.471  1.00  0.00     0.009 A 
HETATM    9  C   UNL     1       8.288  21.556  53.260  1.00  0.00     0.001 A 
HETATM   10  C   UNL     1       7.945  20.698  54.303  1.00  0.00     0.000 A 
HETATM   11  C   UNL     1       7.634  21.217  55.557  1.00  0.00     0.001 A 
HETATM   12  C   UNL     1       7.662  22.596  55.769  1.00  0.00     0.009 A 
ENDBRANCH   6   7
ENDBRANCH   5   6
BRANCH   5  13
HETATM   13  C   UNL     1       6.159  25.665  53.471  1.00  0.00     0.051 A 
HETATM   14  C   UNL     1       6.450  26.680  52.537  1.00  0.00     0.031 A 
HETATM   15  C   UNL     1       5.842  26.727  51.276  1.00  0.00     0.002 A 
HETATM   16  C   UNL     1       4.917  25.756  50.914  1.00  0.00     0.000 A 
HETATM   17  C   UNL     1       4.595  24.751  51.818  1.00  0.00     0.002 A 
HETATM   18  C   UNL     1       5.203  24.713  53.081  1.00  0.00     0.031 A 
ENDBRANCH   5  13
ENDBRANCH   1   5
BRANCH   2  19
HETATM   19  C   UNL     1       6.572  28.194  57.484  1.00  0.00     0.145 C 
BRANCH  19  20
HETATM   20  C   UNL     1       7.880  28.906  57.623  1.00  0.00    -0.021 A 
HETATM   21  C   UNL     1       8.136  30.073  58.414  1.00  0.00    -0.001 A 
HETATM   22  C   UNL     1       9.487  30.386  58.277  1.00  0.00     0.042 A 
HETATM   23  C   UNL     1       7.335  30.898  59.232  1.00  0.00     0.014 A 
HETATM   24  C   UNL     1      10.083  31.476  58.923  1.00  0.00     0.030 A 
HETATM   25  N   UNL     1      10.033  29.454  57.426  1.00  0.00    -0.365 N 
HETATM   26  C   UNL     1       9.269  32.273  59.733  1.00  0.00     0.002 A 
HETATM   27  C   UNL     1       7.914  31.991  59.885  1.00  0.00     0.001 A 
HETATM   28  H   UNL     1      11.000  29.443  57.136  1.00  0.00     0.165 HD
HETATM   29  C   UNL     1       9.079  28.554  57.033  1.00  0.00     0.097 A 
ENDBRANCH  19  20
ENDBRANCH   2  19
TORSDOF 6
ENDMDL
MODEL 10
REMARK VINA RESULT:      -8.1      2.462      4.773
REMARK  6 active torsions:
REMARK  status: ('A' for Active; 'I' for Inactive)
REMARK    1  A    between atoms: C_4  and  C_5 
REMARK    2  A    between atoms: C_5  and  N_6 
REMARK    3  A    between atoms: N_6  and  N_7 
REMARK    4  A    between atoms: N_6  and  C_21 
REMARK       I    between atoms: N_7  and  C_8 
REMARK    5  A    between atoms: C_8  and  C_9 
REMARK    6  A    between atoms: C_9  and  C_10 
ROOT
HETATM    1  N   UNL     1       5.701  26.651  53.973  1.00  0.00    -0.267 N 
HETATM    2  C   UNL     1       7.042  26.551  53.613  1.00  0.00     0.240 C 
HETATM    3  O   UNL     1       7.845  27.479  53.699  1.00  0.00    -0.272 OA
HETATM    4  H   UNL     1       5.036  25.892  53.883  1.00  0.00     0.190 HD
ENDROOT
BRANCH   1   5
HETATM    5  N   UNL     1       5.196  27.845  54.538  1.00  0.00    -0.286 N 
BRANCH   5   6
HETATM    6  C   UNL     1       4.843  27.754  55.969  1.00  0.00     0.187 C 
BRANCH   6   7
HETATM    7  C   UNL     1       5.864  28.439  56.857  1.00  0.00    -0.038 A 
HETATM    8  C   UNL     1       7.044  27.772  57.218  1.00  0.00     0.009 A 
HETATM    9  C   UNL     1       8.015  28.411  57.994  1.00  0.00     0.001 A 
HETATM   10  C   UNL     1       7.821  29.727  58.408  1.00  0.00     0.000 A 
HETATM   11  C   UNL     1       6.661  30.407  58.047  1.00  0.00     0.001 A 
HETATM   12  C   UNL     1       5.691  29.769  57.272  1.00  0.00     0.009 A 
ENDBRANCH   6   7
ENDBRANCH   5   6
BRANCH   5  13
HETATM   13  C   UNL     1       4.461  28.644  53.637  1.00  0.00     0.051 A 
HETATM   14  C   UNL     1       4.073  28.140  52.379  1.00  0.00     0.031 A 
HETATM   15  C   UNL     1       3.347  28.909  51.461  1.00  0.00     0.002 A 
HETATM   16  C   UNL     1       2.991  30.214  51.775  1.00  0.00     0.000 A 
HETATM   17  C   UNL     1       3.373  30.748  53.000  1.00  0.00     0.002 A 
HETATM   18  C   UNL     1       4.104  29.974  53.912  1.00  0.00     0.031 A 
ENDBRANCH   5  13
ENDBRANCH   1   5
BRANCH   2  19
HETATM   19  C   UNL     1       7.400  25.152  53.134  1.00  0.00     0.145 C 
BRANCH  19  20
HETATM   20  C   UNL     1       7.768  24.218  54.242  1.00  0.00    -0.021 A 
HETATM   21  C   UNL     1       7.981  22.805  54.132  1.00  0.00    -0.001 A 
HETATM   22  C   UNL     1       8.328  22.333  55.397  1.00  0.00     0.042 A 
HETATM   23  C   UNL     1       7.904  21.882  53.068  1.00  0.00     0.014 A 
HETATM   24  C   UNL     1       8.612  20.985  55.652  1.00  0.00     0.030 A 
HETATM   25  N   UNL     1       8.315  23.412  56.249  1.00  0.00    -0.365 N 
HETATM   26  C   UNL     1       8.535  20.093  54.578  1.00  0.00     0.002 A 
HETATM   27  C   UNL     1       8.184  20.532  53.304  1.00  0.00     0.001 A 
HETATM   28  H   UNL     1       8.518  23.362  57.237  1.00  0.00     0.165 HD
HETATM   29  C   UNL     1       7.988  24.552  55.565  1.00  0.00     0.097 A 
ENDBRANCH  19  20
ENDBRANCH   2  19
TORSDOF 6
ENDMDL
