MODEL 1
REMARK VINA RESULT:      -9.5      0.000      0.000
REMARK  10 active torsions:
REMARK  status: ('A' for Active; 'I' for Inactive)
REMARK    1  A    between atoms: C_2  and  N_3 
REMARK    2  A    between atoms: N_3  and  N_4 
REMARK       I    between atoms: N_4  and  C_5 
REMARK    3  A    between atoms: C_5  and  C_6 
REMARK    4  A    between atoms: C_9  and  N_10 
REMARK    5  A    between atoms: C_14  and  C_15 
REMARK       I    between atoms: C_15  and  N_16 
REMARK    6  A    between atoms: N_16  and  C_17 
REMARK    7  A    between atoms: C_17  and  C_18 
REMARK    8  A    between atoms: C_18  and  C_19 
REMARK    9  A    between atoms: C_21  and  O_22 
REMARK   10  A    between atoms: C_24  and  O_25 
ROOT
HETATM    1  C   UNL     1       9.727  30.782  58.084  1.00  0.00     0.063 C 
HETATM    2  C   UNL     1       8.789  29.606  58.233  1.00  0.00     0.007 C 
HETATM    3  C   UNL     1       8.752  28.664  57.268  1.00  0.00     0.094 C 
ENDROOT
BRANCH   2   4
HETATM    4  N   UNL     1       8.056  29.568  59.413  1.00  0.00    -0.207 NA
HETATM    5  H   UNL     1       7.208  28.973  59.326  1.00  0.00     0.152 HD
BRANCH   4   6
HETATM    6  N   UNL     1       7.725  30.778  60.065  1.00  0.00    -0.283 N 
HETATM    7  C   UNL     1       8.331  30.997  61.295  1.00  0.00     0.266 C 
HETATM    8  O   UNL     1       9.276  30.335  61.717  1.00  0.00    -0.266 OA
HETATM    9  H   UNL     1       6.788  31.123  59.897  1.00  0.00     0.184 HD
BRANCH   7  10
HETATM   10  C   UNL     1       7.718  32.053  62.148  1.00  0.00     0.033 A 
HETATM   11  C   UNL     1       8.076  32.240  63.487  1.00  0.00     0.019 A 
HETATM   12  C   UNL     1       7.494  33.276  64.228  1.00  0.00     0.024 A 
HETATM   13  C   UNL     1       6.518  34.103  63.664  1.00  0.00     0.005 A 
HETATM   14  C   UNL     1       6.195  33.935  62.316  1.00  0.00     0.024 A 
HETATM   15  C   UNL     1       6.769  32.903  61.567  1.00  0.00     0.019 A 
BRANCH  13  16
HETATM   16  N   UNL     1       6.048  35.217  64.367  1.00  0.00    -0.303 NA
HETATM   17  H   UNL     1       5.094  35.478  64.138  1.00  0.00     0.124 HD
HETATM   18  H   UNL     1       6.678  36.013  64.338  1.00  0.00     0.124 HD
ENDBRANCH  13  16
ENDBRANCH   7  10
ENDBRANCH   4   6
ENDBRANCH   2   4
BRANCH   3  19
HETATM   19  C   UNL     1       7.856  27.486  57.359  1.00  0.00     0.242 C 
HETATM   20  N   UNL     1       6.939  27.417  56.337  1.00  0.00    -0.357 N 
HETATM   21  H   UNL     1       6.892  28.160  55.654  1.00  0.00     0.162 HD
HETATM   22  O   UNL     1       7.915  26.695  58.291  1.00  0.00    -0.269 OA
BRANCH  20  23
HETATM   23  C   UNL     1       5.847  26.452  56.374  1.00  0.00     0.127 C 
BRANCH  23  24
HETATM   24  C   UNL     1       5.594  25.822  54.991  1.00  0.00     0.058 C 
BRANCH  24  25
HETATM   25  C   UNL     1       6.557  24.729  54.582  1.00  0.00    -0.054 A 
HETATM   26  C   UNL     1       7.314  24.042  55.541  1.00  0.00     0.046 A 
HETATM   27  C   UNL     1       8.158  22.983  55.186  1.00  0.00     0.102 A 
HETATM   28  C   UNL     1       8.250  22.592  53.838  1.00  0.00     0.101 A 
HETATM   29  C   UNL     1       7.482  23.260  52.878  1.00  0.00     0.040 A 
HETATM   30  C   UNL     1       6.640  24.316  53.249  1.00  0.00     0.010 A 
BRANCH  27  31
HETATM   31  O   UNL     1       8.931  22.282  56.081  1.00  0.00    -0.353 OA
HETATM   32  C   UNL     1       8.301  21.213  56.778  1.00  0.00     0.210 C 
ENDBRANCH  27  31
BRANCH  28  33
HETATM   33  O   UNL     1       9.097  21.546  53.570  1.00  0.00    -0.353 OA
HETATM   34  C   UNL     1       8.540  20.382  52.979  1.00  0.00     0.210 C 
ENDBRANCH  28  33
ENDBRANCH  24  25
ENDBRANCH  23  24
ENDBRANCH  20  23
ENDBRANCH   3  19
TORSDOF 10
ENDMDL
MODEL 2
REMARK VINA RESULT:      -9.3      1.496      2.325
REMARK  10 active torsions:
REMARK  status: ('A' for Active; 'I' for Inactive)
REMARK    1  A    between atoms: C_2  and  N_3 
REMARK    2  A    between atoms: N_3  and  N_4 
REMARK       I    between atoms: N_4  and  C_5 
REMARK    3  A    between atoms: C_5  and  C_6 
REMARK    4  A    between atoms: C_9  and  N_10 
REMARK    5  A    between atoms: C_14  and  C_15 
REMARK       I    between atoms: C_15  and  N_16 
REMARK    6  A    between atoms: N_16  and  C_17 
REMARK    7  A    between atoms: C_17  and  C_18 
REMARK    8  A    between atoms: C_18  and  C_19 
REMARK    9  A    between atoms: C_21  and  O_22 
REMARK   10  A    between atoms: C_24  and  O_25 
ROOT
HETATM    1  C   UNL     1       9.917  31.479  58.744  1.00  0.00     0.063 C 
HETATM    2  C   UNL     1       8.893  30.388  58.534  1.00  0.00     0.007 C 
HETATM    3  C   UNL     1       8.771  29.822  57.315  1.00  0.00     0.094 C 
ENDROOT
BRANCH   2   4
HETATM    4  N   UNL     1       8.174  30.013  59.663  1.00  0.00    -0.207 NA
HETATM    5  H   UNL     1       7.463  29.286  59.448  1.00  0.00     0.152 HD
BRANCH   4   6
HETATM    6  N   UNL     1       7.605  31.010  60.487  1.00  0.00    -0.283 N 
HETATM    7  C   UNL     1       8.131  31.122  61.768  1.00  0.00     0.266 C 
HETATM    8  O   UNL     1       9.176  30.583  62.124  1.00  0.00    -0.266 OA
HETATM    9  H   UNL     1       6.623  31.200  60.329  1.00  0.00     0.184 HD
BRANCH   7  10
HETATM   10  C   UNL     1       7.310  31.884  62.749  1.00  0.00     0.033 A 
HETATM   11  C   UNL     1       5.913  31.813  62.775  1.00  0.00     0.019 A 
HETATM   12  C   UNL     1       5.195  32.522  63.746  1.00  0.00     0.024 A 
HETATM   13  C   UNL     1       5.851  33.345  64.667  1.00  0.00     0.005 A 
HETATM   14  C   UNL     1       7.247  33.380  64.658  1.00  0.00     0.024 A 
HETATM   15  C   UNL     1       7.973  32.677  63.692  1.00  0.00     0.019 A 
BRANCH  13  16
HETATM   16  N   UNL     1       5.138  33.935  65.715  1.00  0.00    -0.303 NA
HETATM   17  H   UNL     1       5.273  34.938  65.794  1.00  0.00     0.124 HD
HETATM   18  H   UNL     1       5.260  33.463  66.607  1.00  0.00     0.124 HD
ENDBRANCH  13  16
ENDBRANCH   7  10
ENDBRANCH   4   6
ENDBRANCH   2   4
BRANCH   3  19
HETATM   19  C   UNL     1       7.788  28.745  57.048  1.00  0.00     0.242 C 
HETATM   20  N   UNL     1       8.018  27.602  57.777  1.00  0.00    -0.357 N 
HETATM   21  H   UNL     1       8.831  27.543  58.374  1.00  0.00     0.162 HD
HETATM   22  O   UNL     1       6.897  28.870  56.218  1.00  0.00    -0.269 OA
BRANCH  20  23
HETATM   23  C   UNL     1       7.287  26.373  57.494  1.00  0.00     0.127 C 
BRANCH  23  24
HETATM   24  C   UNL     1       8.220  25.147  57.469  1.00  0.00     0.058 C 
BRANCH  24  25
HETATM   25  C   UNL     1       8.023  24.197  56.308  1.00  0.00    -0.054 A 
HETATM   26  C   UNL     1       7.262  24.573  55.192  1.00  0.00     0.046 A 
HETATM   27  C   UNL     1       7.126  23.732  54.081  1.00  0.00     0.102 A 
HETATM   28  C   UNL     1       7.771  22.482  54.076  1.00  0.00     0.101 A 
HETATM   29  C   UNL     1       8.549  22.109  55.177  1.00  0.00     0.040 A 
HETATM   30  C   UNL     1       8.677  22.961  56.280  1.00  0.00     0.010 A 
BRANCH  27  31
HETATM   31  O   UNL     1       6.385  24.043  52.967  1.00  0.00    -0.353 OA
HETATM   32  C   UNL     1       5.230  24.851  53.166  1.00  0.00     0.210 C 
ENDBRANCH  27  31
BRANCH  28  33
HETATM   33  O   UNL     1       7.593  21.716  52.951  1.00  0.00    -0.353 OA
HETATM   34  C   UNL     1       8.273  20.473  52.885  1.00  0.00     0.210 C 
ENDBRANCH  28  33
ENDBRANCH  24  25
ENDBRANCH  23  24
ENDBRANCH  20  23
ENDBRANCH   3  19
TORSDOF 10
ENDMDL
MODEL 3
REMARK VINA RESULT:      -9.2      2.630     11.244
REMARK  10 active torsions:
REMARK  status: ('A' for Active; 'I' for Inactive)
REMARK    1  A    between atoms: C_2  and  N_3 
REMARK    2  A    between atoms: N_3  and  N_4 
REMARK       I    between atoms: N_4  and  C_5 
REMARK    3  A    between atoms: C_5  and  C_6 
REMARK    4  A    between atoms: C_9  and  N_10 
REMARK    5  A    between atoms: C_14  and  C_15 
REMARK       I    between atoms: C_15  and  N_16 
REMARK    6  A    between atoms: N_16  and  C_17 
REMARK    7  A    between atoms: C_17  and  C_18 
REMARK    8  A    between atoms: C_18  and  C_19 
REMARK    9  A    between atoms: C_21  and  O_22 
REMARK   10  A    between atoms: C_24  and  O_25 
ROOT
HETATM    1  C   UNL     1      10.654  29.556  56.359  1.00  0.00     0.063 C 
HETATM    2  C   UNL     1       9.753  29.875  57.530  1.00  0.00     0.007 C 
HETATM    3  C   UNL     1       9.896  31.052  58.172  1.00  0.00     0.094 C 
ENDROOT
BRANCH   2   4
HETATM    4  N   UNL     1       8.790  28.917  57.825  1.00  0.00    -0.207 NA
HETATM    5  H   UNL     1       9.008  28.403  58.702  1.00  0.00     0.152 HD
BRANCH   4   6
HETATM    6  N   UNL     1       8.387  28.005  56.824  1.00  0.00    -0.283 N 
HETATM    7  C   UNL     1       8.003  26.744  57.261  1.00  0.00     0.266 C 
HETATM    8  O   UNL     1       7.781  26.470  58.437  1.00  0.00    -0.266 OA
HETATM    9  H   UNL     1       8.847  28.108  55.927  1.00  0.00     0.184 HD
BRANCH   7  10
HETATM   10  C   UNL     1       7.944  25.681  56.220  1.00  0.00     0.033 A 
HETATM   11  C   UNL     1       7.334  25.878  54.976  1.00  0.00     0.019 A 
HETATM   12  C   UNL     1       7.344  24.854  54.022  1.00  0.00     0.024 A 
HETATM   13  C   UNL     1       7.914  23.611  54.308  1.00  0.00     0.005 A 
HETATM   14  C   UNL     1       8.555  23.434  55.536  1.00  0.00     0.024 A 
HETATM   15  C   UNL     1       8.549  24.449  56.497  1.00  0.00     0.019 A 
BRANCH  13  16
HETATM   16  N   UNL     1       8.042  22.647  53.302  1.00  0.00    -0.303 NA
HETATM   17  H   UNL     1       8.108  23.032  52.366  1.00  0.00     0.124 HD
HETATM   18  H   UNL     1       7.351  21.903  53.360  1.00  0.00     0.124 HD
ENDBRANCH  13  16
ENDBRANCH   7  10
ENDBRANCH   4   6
ENDBRANCH   2   4
BRANCH   3  19
HETATM   19  C   UNL     1       9.040  31.423  59.325  1.00  0.00     0.242 C 
HETATM   20  N   UNL     1       9.341  30.730  60.474  1.00  0.00    -0.357 N 
HETATM   21  H   UNL     1      10.048  30.008  60.454  1.00  0.00     0.162 HD
HETATM   22  O   UNL     1       8.129  32.234  59.224  1.00  0.00    -0.269 OA
BRANCH  20  23
HETATM   23  C   UNL     1       8.475  30.807  61.644  1.00  0.00     0.127 C 
BRANCH  23  24
HETATM   24  C   UNL     1       8.706  32.104  62.442  1.00  0.00     0.058 C 
BRANCH  24  25
HETATM   25  C   UNL     1       7.513  32.619  63.216  1.00  0.00    -0.054 A 
HETATM   26  C   UNL     1       6.208  32.418  62.743  1.00  0.00     0.046 A 
HETATM   27  C   UNL     1       5.090  32.829  63.480  1.00  0.00     0.102 A 
HETATM   28  C   UNL     1       5.275  33.455  64.727  1.00  0.00     0.101 A 
HETATM   29  C   UNL     1       6.573  33.640  65.214  1.00  0.00     0.040 A 
HETATM   30  C   UNL     1       7.680  33.222  64.466  1.00  0.00     0.010 A 
BRANCH  27  31
HETATM   31  O   UNL     1       3.792  32.669  63.061  1.00  0.00    -0.353 OA
HETATM   32  C   UNL     1       3.596  32.169  61.743  1.00  0.00     0.210 C 
ENDBRANCH  27  31
BRANCH  28  33
HETATM   33  O   UNL     1       4.132  33.826  65.390  1.00  0.00    -0.353 OA
HETATM   34  C   UNL     1       4.250  34.186  66.757  1.00  0.00     0.210 C 
ENDBRANCH  28  33
ENDBRANCH  24  25
ENDBRANCH  23  24
ENDBRANCH  20  23
ENDBRANCH   3  19
TORSDOF 10
ENDMDL
MODEL 4
REMARK VINA RESULT:      -9.2      2.636     11.542
REMARK  10 active torsions:
REMARK  status: ('A' for Active; 'I' for Inactive)
REMARK    1  A    between atoms: C_2  and  N_3 
REMARK    2  A    between atoms: N_3  and  N_4 
REMARK       I    between atoms: N_4  and  C_5 
REMARK    3  A    between atoms: C_5  and  C_6 
REMARK    4  A    between atoms: C_9  and  N_10 
REMARK    5  A    between atoms: C_14  and  C_15 
REMARK       I    between atoms: C_15  and  N_16 
REMARK    6  A    between atoms: N_16  and  C_17 
REMARK    7  A    between atoms: C_17  and  C_18 
REMARK    8  A    between atoms: C_18  and  C_19 
REMARK    9  A    between atoms: C_21  and  O_22 
REMARK   10  A    between atoms: C_24  and  O_25 
ROOT
HETATM    1  C   UNL     1       5.270  27.365  55.858  1.00  0.00     0.063 C 
HETATM    2  C   UNL     1       6.524  27.623  56.659  1.00  0.00     0.007 C 
HETATM    3  C   UNL     1       6.645  28.778  57.346  1.00  0.00     0.094 C 
ENDROOT
BRANCH   2   4
HETATM    4  N   UNL     1       7.458  26.593  56.662  1.00  0.00    -0.207 NA
HETATM    5  H   UNL     1       8.417  26.936  56.453  1.00  0.00     0.152 HD
BRANCH   4   6
HETATM    6  N   UNL     1       7.198  25.418  55.921  1.00  0.00    -0.283 N 
HETATM    7  C   UNL     1       7.911  24.286  56.295  1.00  0.00     0.266 C 
HETATM    8  O   UNL     1       8.551  24.200  57.340  1.00  0.00    -0.266 OA
HETATM    9  H   UNL     1       6.954  25.559  54.948  1.00  0.00     0.184 HD
BRANCH   7  10
HETATM   10  C   UNL     1       7.933  23.171  55.309  1.00  0.00     0.033 A 
HETATM   11  C   UNL     1       7.953  23.389  53.927  1.00  0.00     0.019 A 
HETATM   12  C   UNL     1       8.014  22.301  53.048  1.00  0.00     0.024 A 
HETATM   13  C   UNL     1       8.005  20.988  53.528  1.00  0.00     0.005 A 
HETATM   14  C   UNL     1       8.025  20.779  54.908  1.00  0.00     0.024 A 
HETATM   15  C   UNL     1       7.963  21.858  55.795  1.00  0.00     0.019 A 
BRANCH  13  16
HETATM   16  N   UNL     1       8.206  19.917  52.651  1.00  0.00    -0.303 NA
HETATM   17  H   UNL     1       9.136  19.513  52.697  1.00  0.00     0.124 HD
HETATM   18  H   UNL     1       7.923  20.115  51.695  1.00  0.00     0.124 HD
ENDBRANCH  13  16
ENDBRANCH   7  10
ENDBRANCH   4   6
ENDBRANCH   2   4
BRANCH   3  19
HETATM   19  C   UNL     1       7.850  29.086  58.153  1.00  0.00     0.242 C 
HETATM   20  N   UNL     1       7.594  29.910  59.224  1.00  0.00    -0.357 N 
HETATM   21  H   UNL     1       6.665  30.284  59.358  1.00  0.00     0.162 HD
HETATM   22  O   UNL     1       8.961  28.675  57.845  1.00  0.00    -0.269 OA
BRANCH  20  23
HETATM   23  C   UNL     1       8.682  30.488  60.002  1.00  0.00     0.127 C 
BRANCH  23  24
HETATM   24  C   UNL     1       8.455  31.986  60.278  1.00  0.00     0.058 C 
BRANCH  24  25
HETATM   25  C   UNL     1       7.554  32.307  61.451  1.00  0.00    -0.054 A 
HETATM   26  C   UNL     1       6.164  32.389  61.289  1.00  0.00     0.046 A 
HETATM   27  C   UNL     1       5.312  32.618  62.376  1.00  0.00     0.102 A 
HETATM   28  C   UNL     1       5.858  32.766  63.664  1.00  0.00     0.101 A 
HETATM   29  C   UNL     1       7.242  32.665  63.836  1.00  0.00     0.040 A 
HETATM   30  C   UNL     1       8.081  32.434  62.740  1.00  0.00     0.010 A 
BRANCH  27  31
HETATM   31  O   UNL     1       3.946  32.719  62.274  1.00  0.00    -0.353 OA
HETATM   32  C   UNL     1       3.388  32.637  60.967  1.00  0.00     0.210 C 
ENDBRANCH  27  31
BRANCH  28  33
HETATM   33  O   UNL     1       4.959  32.986  64.678  1.00  0.00    -0.353 OA
HETATM   34  C   UNL     1       5.384  33.777  65.776  1.00  0.00     0.210 C 
ENDBRANCH  28  33
ENDBRANCH  24  25
ENDBRANCH  23  24
ENDBRANCH  20  23
ENDBRANCH   3  19
TORSDOF 10
ENDMDL
MODEL 5
REMARK VINA RESULT:      -9.0      3.893     10.448
REMARK  10 active torsions:
REMARK  status: ('A' for Active; 'I' for Inactive)
REMARK    1  A    between atoms: C_2  and  N_3 
REMARK    2  A    between atoms: N_3  and  N_4 
REMARK       I    between atoms: N_4  and  C_5 
REMARK    3  A    between atoms: C_5  and  C_6 
REMARK    4  A    between atoms: C_9  and  N_10 
REMARK    5  A    between atoms: C_14  and  C_15 
REMARK       I    between atoms: C_15  and  N_16 
REMARK    6  A    between atoms: N_16  and  C_17 
REMARK    7  A    between atoms: C_17  and  C_18 
REMARK    8  A    between atoms: C_18  and  C_19 
REMARK    9  A    between atoms: C_21  and  O_22 
REMARK   10  A    between atoms: C_24  and  O_25 
ROOT
HETATM    1  C   UNL     1       4.993  26.064  50.599  1.00  0.00     0.063 C 
HETATM    2  C   UNL     1       5.206  26.803  51.899  1.00  0.00     0.007 C 
HETATM    3  C   UNL     1       4.276  27.685  52.318  1.00  0.00     0.094 C 
ENDROOT
BRANCH   2   4
HETATM    4  N   UNL     1       6.357  26.464  52.601  1.00  0.00    -0.207 NA
HETATM    5  H   UNL     1       7.172  27.044  52.316  1.00  0.00     0.152 HD
BRANCH   4   6
HETATM    6  N   UNL     1       6.743  25.108  52.690  1.00  0.00    -0.283 N 
HETATM    7  C   UNL     1       6.461  24.467  53.889  1.00  0.00     0.266 C 
HETATM    8  O   UNL     1       5.716  24.930  54.750  1.00  0.00    -0.266 OA
HETATM    9  H   UNL     1       7.573  24.854  52.167  1.00  0.00     0.184 HD
BRANCH   7  10
HETATM   10  C   UNL     1       7.184  23.188  54.134  1.00  0.00     0.033 A 
HETATM   11  C   UNL     1       7.421  22.692  55.420  1.00  0.00     0.019 A 
HETATM   12  C   UNL     1       8.071  21.463  55.587  1.00  0.00     0.024 A 
HETATM   13  C   UNL     1       8.535  20.741  54.484  1.00  0.00     0.005 A 
HETATM   14  C   UNL     1       8.261  21.223  53.204  1.00  0.00     0.024 A 
HETATM   15  C   UNL     1       7.614  22.450  53.025  1.00  0.00     0.019 A 
BRANCH  13  16
HETATM   16  N   UNL     1       9.057  19.454  54.656  1.00  0.00    -0.303 NA
HETATM   17  H   UNL     1      10.067  19.426  54.751  1.00  0.00     0.124 HD
HETATM   18  H   UNL     1       8.720  18.783  53.971  1.00  0.00     0.124 HD
ENDBRANCH  13  16
ENDBRANCH   7  10
ENDBRANCH   4   6
ENDBRANCH   2   4
BRANCH   3  19
HETATM   19  C   UNL     1       4.427  28.439  53.587  1.00  0.00     0.242 C 
HETATM   20  N   UNL     1       4.476  27.631  54.698  1.00  0.00    -0.357 N 
HETATM   21  H   UNL     1       4.355  26.633  54.599  1.00  0.00     0.162 HD
HETATM   22  O   UNL     1       4.452  29.661  53.617  1.00  0.00    -0.269 OA
BRANCH  20  23
HETATM   23  C   UNL     1       4.410  28.198  56.039  1.00  0.00     0.127 C 
BRANCH  23  24
HETATM   24  C   UNL     1       5.640  27.812  56.884  1.00  0.00     0.058 C 
BRANCH  24  25
HETATM   25  C   UNL     1       6.446  28.968  57.435  1.00  0.00    -0.054 A 
HETATM   26  C   UNL     1       5.872  30.238  57.586  1.00  0.00     0.046 A 
HETATM   27  C   UNL     1       6.583  31.301  58.156  1.00  0.00     0.102 A 
HETATM   28  C   UNL     1       7.904  31.094  58.594  1.00  0.00     0.101 A 
HETATM   29  C   UNL     1       8.476  29.823  58.465  1.00  0.00     0.040 A 
HETATM   30  C   UNL     1       7.751  28.770  57.895  1.00  0.00     0.010 A 
BRANCH  27  31
HETATM   31  O   UNL     1       6.076  32.567  58.318  1.00  0.00    -0.353 OA
HETATM   32  C   UNL     1       5.066  32.979  57.403  1.00  0.00     0.210 C 
ENDBRANCH  27  31
BRANCH  28  33
HETATM   33  O   UNL     1       8.535  32.182  59.144  1.00  0.00    -0.353 OA
HETATM   34  C   UNL     1       9.382  31.959  60.260  1.00  0.00     0.210 C 
ENDBRANCH  28  33
ENDBRANCH  24  25
ENDBRANCH  23  24
ENDBRANCH  20  23
ENDBRANCH   3  19
TORSDOF 10
ENDMDL
MODEL 6
REMARK VINA RESULT:      -8.5      4.501      9.390
REMARK  10 active torsions:
REMARK  status: ('A' for Active; 'I' for Inactive)
REMARK    1  A    between atoms: C_2  and  N_3 
REMARK    2  A    between atoms: N_3  and  N_4 
REMARK       I    between atoms: N_4  and  C_5 
REMARK    3  A    between atoms: C_5  and  C_6 
REMARK    4  A    between atoms: C_9  and  N_10 
REMARK    5  A    between atoms: C_14  and  C_15 
REMARK       I    between atoms: C_15  and  N_16 
REMARK    6  A    between atoms: N_16  and  C_17 
REMARK    7  A    between atoms: C_17  and  C_18 
REMARK    8  A    between atoms: C_18  and  C_19 
REMARK    9  A    between atoms: C_21  and  O_22 
REMARK   10  A    between atoms: C_24  and  O_25 
ROOT
HETATM    1  C   UNL     1       5.051  25.819  50.730  1.00  0.00     0.063 C 
HETATM    2  C   UNL     1       4.663  26.812  51.799  1.00  0.00     0.007 C 
HETATM    3  C   UNL     1       4.687  28.132  51.517  1.00  0.00     0.094 C 
ENDROOT
BRANCH   2   4
HETATM    4  N   UNL     1       4.254  26.264  53.009  1.00  0.00    -0.207 NA
HETATM    5  H   UNL     1       4.290  26.956  53.783  1.00  0.00     0.152 HD
BRANCH   4   6
HETATM    6  N   UNL     1       4.808  25.037  53.439  1.00  0.00    -0.283 N 
HETATM    7  C   UNL     1       6.150  25.062  53.797  1.00  0.00     0.266 C 
HETATM    8  O   UNL     1       6.787  26.097  53.976  1.00  0.00    -0.266 OA
HETATM    9  H   UNL     1       4.418  24.206  53.010  1.00  0.00     0.184 HD
BRANCH   7  10
HETATM   10  C   UNL     1       6.829  23.740  53.883  1.00  0.00     0.033 A 
HETATM   11  C   UNL     1       7.336  23.080  52.758  1.00  0.00     0.019 A 
HETATM   12  C   UNL     1       8.000  21.857  52.905  1.00  0.00     0.024 A 
HETATM   13  C   UNL     1       8.124  21.253  54.159  1.00  0.00     0.005 A 
HETATM   14  C   UNL     1       7.651  21.935  55.281  1.00  0.00     0.024 A 
HETATM   15  C   UNL     1       6.985  23.157  55.146  1.00  0.00     0.019 A 
BRANCH  13  16
HETATM   16  N   UNL     1       8.908  20.104  54.312  1.00  0.00    -0.303 NA
HETATM   17  H   UNL     1       9.469  19.874  53.498  1.00  0.00     0.124 HD
HETATM   18  H   UNL     1       8.391  19.301  54.658  1.00  0.00     0.124 HD
ENDBRANCH  13  16
ENDBRANCH   7  10
ENDBRANCH   4   6
ENDBRANCH   2   4
BRANCH   3  19
HETATM   19  C   UNL     1       4.313  29.154  52.524  1.00  0.00     0.242 C 
HETATM   20  N   UNL     1       4.814  28.895  53.777  1.00  0.00    -0.357 N 
HETATM   21  H   UNL     1       5.329  28.042  53.945  1.00  0.00     0.162 HD
HETATM   22  O   UNL     1       3.587  30.100  52.250  1.00  0.00    -0.269 OA
BRANCH  20  23
HETATM   23  C   UNL     1       4.380  29.670  54.933  1.00  0.00     0.127 C 
BRANCH  23  24
HETATM   24  C   UNL     1       4.067  28.767  56.142  1.00  0.00     0.058 C 
BRANCH  24  25
HETATM   25  C   UNL     1       5.217  27.923  56.646  1.00  0.00    -0.054 A 
HETATM   26  C   UNL     1       6.440  28.511  56.999  1.00  0.00     0.046 A 
HETATM   27  C   UNL     1       7.491  27.754  57.531  1.00  0.00     0.102 A 
HETATM   28  C   UNL     1       7.320  26.370  57.721  1.00  0.00     0.101 A 
HETATM   29  C   UNL     1       6.095  25.780  57.390  1.00  0.00     0.040 A 
HETATM   30  C   UNL     1       5.053  26.552  56.862  1.00  0.00     0.010 A 
BRANCH  27  31
HETATM   31  O   UNL     1       8.712  28.274  57.883  1.00  0.00    -0.353 OA
HETATM   32  C   UNL     1       8.763  29.669  58.158  1.00  0.00     0.210 C 
ENDBRANCH  27  31
BRANCH  28  33
HETATM   33  O   UNL     1       8.393  25.697  58.248  1.00  0.00    -0.353 OA
HETATM   34  C   UNL     1       8.888  24.578  57.529  1.00  0.00     0.210 C 
ENDBRANCH  28  33
ENDBRANCH  24  25
ENDBRANCH  23  24
ENDBRANCH  20  23
ENDBRANCH   3  19
TORSDOF 10
ENDMDL
MODEL 7
REMARK VINA RESULT:      -8.5      2.076      2.373
REMARK  10 active torsions:
REMARK  status: ('A' for Active; 'I' for Inactive)
REMARK    1  A    between atoms: C_2  and  N_3 
REMARK    2  A    between atoms: N_3  and  N_4 
REMARK       I    between atoms: N_4  and  C_5 
REMARK    3  A    between atoms: C_5  and  C_6 
REMARK    4  A    between atoms: C_9  and  N_10 
REMARK    5  A    between atoms: C_14  and  C_15 
REMARK       I    between atoms: C_15  and  N_16 
REMARK    6  A    between atoms: N_16  and  C_17 
REMARK    7  A    between atoms: C_17  and  C_18 
REMARK    8  A    between atoms: C_18  and  C_19 
REMARK    9  A    between atoms: C_21  and  O_22 
REMARK   10  A    between atoms: C_24  and  O_25 
ROOT
HETATM    1  C   UNL     1       4.231  31.943  57.666  1.00  0.00     0.063 C 
HETATM    2  C   UNL     1       5.388  30.993  57.463  1.00  0.00     0.007 C 
HETATM    3  C   UNL     1       5.600  30.461  56.241  1.00  0.00     0.094 C 
ENDROOT
BRANCH   2   4
HETATM    4  N   UNL     1       6.192  30.779  58.576  1.00  0.00    -0.207 NA
HETATM    5  H   UNL     1       6.204  29.779  58.861  1.00  0.00     0.152 HD
BRANCH   4   6
HETATM    6  N   UNL     1       6.034  31.599  59.715  1.00  0.00    -0.283 N 
HETATM    7  C   UNL     1       7.171  32.267  60.153  1.00  0.00     0.266 C 
HETATM    8  O   UNL     1       8.201  32.362  59.492  1.00  0.00    -0.266 OA
HETATM    9  H   UNL     1       5.345  31.285  60.388  1.00  0.00     0.184 HD
BRANCH   7  10
HETATM   10  C   UNL     1       7.115  32.816  61.536  1.00  0.00     0.033 A 
HETATM   11  C   UNL     1       6.178  33.779  61.926  1.00  0.00     0.019 A 
HETATM   12  C   UNL     1       6.147  34.230  63.251  1.00  0.00     0.024 A 
HETATM   13  C   UNL     1       7.076  33.768  64.188  1.00  0.00     0.005 A 
HETATM   14  C   UNL     1       7.983  32.779  63.802  1.00  0.00     0.024 A 
HETATM   15  C   UNL     1       8.023  32.323  62.480  1.00  0.00     0.019 A 
BRANCH  13  16
HETATM   16  N   UNL     1       6.949  34.119  65.536  1.00  0.00    -0.303 NA
HETATM   17  H   UNL     1       5.989  34.225  65.847  1.00  0.00     0.124 HD
HETATM   18  H   UNL     1       7.528  34.909  65.808  1.00  0.00     0.124 HD
ENDBRANCH  13  16
ENDBRANCH   7  10
ENDBRANCH   4   6
ENDBRANCH   2   4
BRANCH   3  19
HETATM   19  C   UNL     1       6.721  29.525  55.979  1.00  0.00     0.242 C 
HETATM   20  N   UNL     1       6.769  29.083  54.678  1.00  0.00    -0.357 N 
HETATM   21  H   UNL     1       6.047  29.358  54.027  1.00  0.00     0.162 HD
HETATM   22  O   UNL     1       7.483  29.160  56.863  1.00  0.00    -0.269 OA
BRANCH  20  23
HETATM   23  C   UNL     1       7.667  28.003  54.287  1.00  0.00     0.127 C 
BRANCH  23  24
HETATM   24  C   UNL     1       6.939  26.926  53.460  1.00  0.00     0.058 C 
BRANCH  24  25
HETATM   25  C   UNL     1       7.470  25.517  53.607  1.00  0.00    -0.054 A 
HETATM   26  C   UNL     1       7.788  24.996  54.869  1.00  0.00     0.046 A 
HETATM   27  C   UNL     1       8.216  23.672  55.029  1.00  0.00     0.102 A 
HETATM   28  C   UNL     1       8.326  22.839  53.901  1.00  0.00     0.101 A 
HETATM   29  C   UNL     1       7.990  23.346  52.641  1.00  0.00     0.040 A 
HETATM   30  C   UNL     1       7.561  24.671  52.497  1.00  0.00     0.010 A 
BRANCH  27  31
HETATM   31  O   UNL     1       8.553  23.114  56.238  1.00  0.00    -0.353 OA
HETATM   32  C   UNL     1       8.594  23.986  57.362  1.00  0.00     0.210 C 
ENDBRANCH  27  31
BRANCH  28  33
HETATM   33  O   UNL     1       8.749  21.555  54.139  1.00  0.00    -0.353 OA
HETATM   34  C   UNL     1       8.551  20.595  53.113  1.00  0.00     0.210 C 
ENDBRANCH  28  33
ENDBRANCH  24  25
ENDBRANCH  23  24
ENDBRANCH  20  23
ENDBRANCH   3  19
TORSDOF 10
ENDMDL
MODEL 8
REMARK VINA RESULT:      -8.5      4.770      9.721
REMARK  10 active torsions:
REMARK  status: ('A' for Active; 'I' for Inactive)
REMARK    1  A    between atoms: C_2  and  N_3 
REMARK    2  A    between atoms: N_3  and  N_4 
REMARK       I    between atoms: N_4  and  C_5 
REMARK    3  A    between atoms: C_5  and  C_6 
REMARK    4  A    between atoms: C_9  and  N_10 
REMARK    5  A    between atoms: C_14  and  C_15 
REMARK       I    between atoms: C_15  and  N_16 
REMARK    6  A    between atoms: N_16  and  C_17 
REMARK    7  A    between atoms: C_17  and  C_18 
REMARK    8  A    between atoms: C_18  and  C_19 
REMARK    9  A    between atoms: C_21  and  O_22 
REMARK   10  A    between atoms: C_24  and  O_25 
ROOT
HETATM    1  C   UNL     1       4.216  26.453  48.549  1.00  0.00     0.063 C 
HETATM    2  C   UNL     1       4.638  27.291  49.734  1.00  0.00     0.007 C 
HETATM    3  C   UNL     1       3.812  28.256  50.188  1.00  0.00     0.094 C 
ENDROOT
BRANCH   2   4
HETATM    4  N   UNL     1       5.860  26.953  50.304  1.00  0.00    -0.207 NA
HETATM    5  H   UNL     1       6.624  26.924  49.600  1.00  0.00     0.152 HD
BRANCH   4   6
HETATM    6  N   UNL     1       5.944  25.822  51.147  1.00  0.00    -0.283 N 
HETATM    7  C   UNL     1       6.523  26.027  52.393  1.00  0.00     0.266 C 
HETATM    8  O   UNL     1       6.741  27.138  52.868  1.00  0.00    -0.266 OA
HETATM    9  H   UNL     1       6.065  24.933  50.676  1.00  0.00     0.184 HD
BRANCH   7  10
HETATM   10  C   UNL     1       6.956  24.802  53.122  1.00  0.00     0.033 A 
HETATM   11  C   UNL     1       6.631  24.571  54.463  1.00  0.00     0.019 A 
HETATM   12  C   UNL     1       7.032  23.383  55.085  1.00  0.00     0.024 A 
HETATM   13  C   UNL     1       7.801  22.437  54.400  1.00  0.00     0.005 A 
HETATM   14  C   UNL     1       8.088  22.657  53.052  1.00  0.00     0.024 A 
HETATM   15  C   UNL     1       7.694  23.841  52.421  1.00  0.00     0.019 A 
BRANCH  13  16
HETATM   16  N   UNL     1       8.076  21.197  54.985  1.00  0.00    -0.303 NA
HETATM   17  H   UNL     1       8.738  20.631  54.464  1.00  0.00     0.124 HD
HETATM   18  H   UNL     1       7.243  20.672  55.239  1.00  0.00     0.124 HD
ENDBRANCH  13  16
ENDBRANCH   7  10
ENDBRANCH   4   6
ENDBRANCH   2   4
BRANCH   3  19
HETATM   19  C   UNL     1       4.169  29.108  51.348  1.00  0.00     0.242 C 
HETATM   20  N   UNL     1       4.006  28.478  52.559  1.00  0.00    -0.357 N 
HETATM   21  H   UNL     1       3.620  27.545  52.592  1.00  0.00     0.162 HD
HETATM   22  O   UNL     1       4.522  30.272  51.215  1.00  0.00    -0.269 OA
BRANCH  20  23
HETATM   23  C   UNL     1       4.104  29.221  53.810  1.00  0.00     0.127 C 
BRANCH  23  24
HETATM   24  C   UNL     1       4.141  28.281  55.031  1.00  0.00     0.058 C 
BRANCH  24  25
HETATM   25  C   UNL     1       5.228  28.565  56.044  1.00  0.00    -0.054 A 
HETATM   26  C   UNL     1       5.932  27.518  56.655  1.00  0.00     0.046 A 
HETATM   27  C   UNL     1       6.986  27.765  57.544  1.00  0.00     0.102 A 
HETATM   28  C   UNL     1       7.355  29.092  57.829  1.00  0.00     0.101 A 
HETATM   29  C   UNL     1       6.670  30.141  57.206  1.00  0.00     0.040 A 
HETATM   30  C   UNL     1       5.620  29.879  56.319  1.00  0.00     0.010 A 
BRANCH  27  31
HETATM   31  O   UNL     1       7.702  26.780  58.180  1.00  0.00    -0.353 OA
HETATM   32  C   UNL     1       8.493  25.926  57.361  1.00  0.00     0.210 C 
ENDBRANCH  27  31
BRANCH  28  33
HETATM   33  O   UNL     1       8.398  29.253  58.707  1.00  0.00    -0.353 OA
HETATM   34  C   UNL     1       9.253  30.369  58.518  1.00  0.00     0.210 C 
ENDBRANCH  28  33
ENDBRANCH  24  25
ENDBRANCH  23  24
ENDBRANCH  20  23
ENDBRANCH   3  19
TORSDOF 10
ENDMDL
MODEL 9
REMARK VINA RESULT:      -8.3      6.387     10.542
REMARK  10 active torsions:
REMARK  status: ('A' for Active; 'I' for Inactive)
REMARK    1  A    between atoms: C_2  and  N_3 
REMARK    2  A    between atoms: N_3  and  N_4 
REMARK       I    between atoms: N_4  and  C_5 
REMARK    3  A    between atoms: C_5  and  C_6 
REMARK    4  A    between atoms: C_9  and  N_10 
REMARK    5  A    between atoms: C_14  and  C_15 
REMARK       I    between atoms: C_15  and  N_16 
REMARK    6  A    between atoms: N_16  and  C_17 
REMARK    7  A    between atoms: C_17  and  C_18 
REMARK    8  A    between atoms: C_18  and  C_19 
REMARK    9  A    between atoms: C_21  and  O_22 
REMARK   10  A    between atoms: C_24  and  O_25 
ROOT
HETATM    1  C   UNL     1       6.263  26.764  55.965  1.00  0.00     0.063 C 
HETATM    2  C   UNL     1       5.887  27.213  54.573  1.00  0.00     0.007 C 
HETATM    3  C   UNL     1       4.833  28.038  54.406  1.00  0.00     0.094 C 
ENDROOT
BRANCH   2   4
HETATM    4  N   UNL     1       6.716  26.762  53.552  1.00  0.00    -0.207 NA
HETATM    5  H   UNL     1       6.238  26.772  52.629  1.00  0.00     0.152 HD
BRANCH   4   6
HETATM    6  N   UNL     1       7.419  25.547  53.713  1.00  0.00    -0.283 N 
HETATM    7  C   UNL     1       6.824  24.417  53.167  1.00  0.00     0.266 C 
HETATM    8  O   UNL     1       5.879  24.456  52.384  1.00  0.00    -0.266 OA
HETATM    9  H   UNL     1       7.966  25.467  54.561  1.00  0.00     0.184 HD
BRANCH   7  10
HETATM   10  C   UNL     1       7.346  23.107  53.646  1.00  0.00     0.033 A 
HETATM   11  C   UNL     1       7.823  22.123  52.774  1.00  0.00     0.019 A 
HETATM   12  C   UNL     1       8.339  20.926  53.285  1.00  0.00     0.024 A 
HETATM   13  C   UNL     1       8.339  20.673  54.659  1.00  0.00     0.005 A 
HETATM   14  C   UNL     1       7.897  21.674  55.525  1.00  0.00     0.024 A 
HETATM   15  C   UNL     1       7.379  22.873  55.026  1.00  0.00     0.019 A 
BRANCH  13  16
HETATM   16  N   UNL     1       8.981  19.537  55.165  1.00  0.00    -0.303 NA
HETATM   17  H   UNL     1       9.489  19.003  54.467  1.00  0.00     0.124 HD
HETATM   18  H   UNL     1       8.379  18.947  55.733  1.00  0.00     0.124 HD
ENDBRANCH  13  16
ENDBRANCH   7  10
ENDBRANCH   4   6
ENDBRANCH   2   4
BRANCH   3  19
HETATM   19  C   UNL     1       4.417  28.515  53.064  1.00  0.00     0.242 C 
HETATM   20  N   UNL     1       5.443  29.080  52.344  1.00  0.00    -0.357 N 
HETATM   21  H   UNL     1       6.355  29.185  52.767  1.00  0.00     0.162 HD
HETATM   22  O   UNL     1       3.258  28.446  52.681  1.00  0.00    -0.269 OA
BRANCH  20  23
HETATM   23  C   UNL     1       5.181  29.790  51.098  1.00  0.00     0.127 C 
BRANCH  23  24
HETATM   24  C   UNL     1       5.284  28.857  49.876  1.00  0.00     0.058 C 
BRANCH  24  25
HETATM   25  C   UNL     1       3.969  28.460  49.243  1.00  0.00    -0.054 A 
HETATM   26  C   UNL     1       3.778  27.169  48.730  1.00  0.00     0.046 A 
HETATM   27  C   UNL     1       2.546  26.765  48.202  1.00  0.00     0.102 A 
HETATM   28  C   UNL     1       1.469  27.669  48.187  1.00  0.00     0.101 A 
HETATM   29  C   UNL     1       1.646  28.953  48.716  1.00  0.00     0.040 A 
HETATM   30  C   UNL     1       2.883  29.341  49.243  1.00  0.00     0.010 A 
BRANCH  27  31
HETATM   31  O   UNL     1       2.306  25.518  47.677  1.00  0.00    -0.353 OA
HETATM   32  C   UNL     1       3.168  24.465  48.095  1.00  0.00     0.210 C 
ENDBRANCH  27  31
BRANCH  28  33
HETATM   33  O   UNL     1       0.293  27.199  47.657  1.00  0.00    -0.353 OA
HETATM   34  C   UNL     1      -0.109  27.705  46.394  1.00  0.00     0.210 C 
ENDBRANCH  28  33
ENDBRANCH  24  25
ENDBRANCH  23  24
ENDBRANCH  20  23
ENDBRANCH   3  19
TORSDOF 10
ENDMDL
MODEL 10
REMARK VINA RESULT:      -8.3      4.933      9.554
REMARK  10 active torsions:
REMARK  status: ('A' for Active; 'I' for Inactive)
REMARK    1  A    between atoms: C_2  and  N_3 
REMARK    2  A    between atoms: N_3  and  N_4 
REMARK       I    between atoms: N_4  and  C_5 
REMARK    3  A    between atoms: C_5  and  C_6 
REMARK    4  A    between atoms: C_9  and  N_10 
REMARK    5  A    between atoms: C_14  and  C_15 
REMARK       I    between atoms: C_15  and  N_16 
REMARK    6  A    between atoms: N_16  and  C_17 
REMARK    7  A    between atoms: C_17  and  C_18 
REMARK    8  A    between atoms: C_18  and  C_19 
REMARK    9  A    between atoms: C_21  and  O_22 
REMARK   10  A    between atoms: C_24  and  O_25 
ROOT
HETATM    1  C   UNL     1       9.107  28.565  57.097  1.00  0.00     0.063 C 
HETATM    2  C   UNL     1       7.794  28.064  56.544  1.00  0.00     0.007 C 
HETATM    3  C   UNL     1       7.037  28.887  55.789  1.00  0.00     0.094 C 
ENDROOT
BRANCH   2   4
HETATM    4  N   UNL     1       7.488  26.738  56.829  1.00  0.00    -0.207 NA
HETATM    5  H   UNL     1       7.770  26.472  57.793  1.00  0.00     0.152 HD
BRANCH   4   6
HETATM    6  N   UNL     1       7.874  25.726  55.922  1.00  0.00    -0.283 N 
HETATM    7  C   UNL     1       6.880  24.837  55.534  1.00  0.00     0.266 C 
HETATM    8  O   UNL     1       5.684  25.020  55.745  1.00  0.00    -0.266 OA
HETATM    9  H   UNL     1       8.831  25.404  56.006  1.00  0.00     0.184 HD
BRANCH   7  10
HETATM   10  C   UNL     1       7.343  23.573  54.898  1.00  0.00     0.033 A 
HETATM   11  C   UNL     1       7.532  22.392  55.623  1.00  0.00     0.019 A 
HETATM   12  C   UNL     1       7.932  21.223  54.964  1.00  0.00     0.024 A 
HETATM   13  C   UNL     1       8.195  21.226  53.591  1.00  0.00     0.005 A 
HETATM   14  C   UNL     1       7.967  22.398  52.868  1.00  0.00     0.024 A 
HETATM   15  C   UNL     1       7.570  23.572  53.517  1.00  0.00     0.019 A 
BRANCH  13  16
HETATM   16  N   UNL     1       8.458  20.026  52.922  1.00  0.00    -0.303 NA
HETATM   17  H   UNL     1       7.928  19.906  52.065  1.00  0.00     0.124 HD
HETATM   18  H   UNL     1       8.405  19.206  53.521  1.00  0.00     0.124 HD
ENDBRANCH  13  16
ENDBRANCH   7  10
ENDBRANCH   4   6
ENDBRANCH   2   4
BRANCH   3  19
HETATM   19  C   UNL     1       5.741  28.452  55.215  1.00  0.00     0.242 C 
HETATM   20  N   UNL     1       5.873  27.728  54.054  1.00  0.00    -0.357 N 
HETATM   21  H   UNL     1       6.788  27.591  53.649  1.00  0.00     0.162 HD
HETATM   22  O   UNL     1       4.670  28.764  55.719  1.00  0.00    -0.269 OA
BRANCH  20  23
HETATM   23  C   UNL     1       4.709  27.399  53.240  1.00  0.00     0.127 C 
BRANCH  23  24
HETATM   24  C   UNL     1       5.080  26.483  52.057  1.00  0.00     0.058 C 
BRANCH  24  25
HETATM   25  C   UNL     1       5.027  27.125  50.689  1.00  0.00    -0.054 A 
HETATM   26  C   UNL     1       4.348  26.506  49.629  1.00  0.00     0.046 A 
HETATM   27  C   UNL     1       4.233  27.119  48.375  1.00  0.00     0.102 A 
HETATM   28  C   UNL     1       4.804  28.388  48.170  1.00  0.00     0.101 A 
HETATM   29  C   UNL     1       5.464  29.021  49.229  1.00  0.00     0.040 A 
HETATM   30  C   UNL     1       5.570  28.396  50.477  1.00  0.00     0.010 A 
BRANCH  27  31
HETATM   31  O   UNL     1       3.591  26.554  47.300  1.00  0.00    -0.353 OA
HETATM   32  C   UNL     1       3.230  25.182  47.412  1.00  0.00     0.210 C 
ENDBRANCH  27  31
BRANCH  28  33
HETATM   33  O   UNL     1       4.646  28.924  46.916  1.00  0.00    -0.353 OA
HETATM   34  C   UNL     1       3.780  30.039  46.780  1.00  0.00     0.210 C 
ENDBRANCH  28  33
ENDBRANCH  24  25
ENDBRANCH  23  24
ENDBRANCH  20  23
ENDBRANCH   3  19
TORSDOF 10
ENDMDL
