MODEL 1
REMARK VINA RESULT:     -11.3      0.000      0.000
REMARK  8 active torsions:
REMARK  status: ('A' for Active; 'I' for Inactive)
REMARK    1  A    between atoms: C_6  and  S_7 
REMARK    2  A    between atoms: S_7  and  C_8 
REMARK    3  A    between atoms: C_8  and  C_9 
REMARK       I    between atoms: C_9  and  N_10 
REMARK    4  A    between atoms: N_10  and  C_11 
REMARK    5  A    between atoms: C_24  and  C_25 
REMARK    6  A    between atoms: C_25  and  C_26 
REMARK       I    between atoms: C_26  and  N_27 
REMARK    7  A    between atoms: N_27  and  C_28 
REMARK    8  A    between atoms: C_28  and  C_29 
ROOT
HETATM    1  C   UNL     1      10.991  30.085  57.309  1.00  0.00     0.001 A 
HETATM    2  C   UNL     1      10.026  29.352  56.620  1.00  0.00     0.018 A 
HETATM    3  C   UNL     1       8.677  29.561  56.915  1.00  0.00     0.039 A 
HETATM    4  C   UNL     1       8.271  30.484  57.889  1.00  0.00     0.073 A 
HETATM    5  N   UNL     1       6.916  30.740  58.172  1.00  0.00    -0.223 NA
HETATM    6  C   UNL     1       6.027  30.050  57.530  1.00  0.00     0.178 C 
HETATM    7  N   UNL     1       6.346  29.039  56.642  1.00  0.00    -0.241 N 
HETATM    8  C   UNL     1       7.619  28.804  56.243  1.00  0.00     0.147 C 
HETATM    9  N   UNL     1       7.799  27.930  55.301  1.00  0.00    -0.256 NA
HETATM   10  C   UNL     1       5.545  28.105  56.035  1.00  0.00     0.257 C 
HETATM   11  O   UNL     1       4.411  27.774  56.339  1.00  0.00    -0.270 OA
HETATM   12  C   UNL     1       6.421  27.430  54.992  1.00  0.00     0.211 C 
HETATM   13  C   UNL     1       9.251  31.211  58.565  1.00  0.00     0.032 A 
HETATM   14  C   UNL     1      10.605  31.012  58.278  1.00  0.00     0.002 A 
ENDROOT
BRANCH  12  15
HETATM   15  C   UNL     1       6.010  27.845  53.584  1.00  0.00     0.140 C 
BRANCH  15  16
HETATM   16  C   UNL     1       6.244  26.669  52.663  1.00  0.00     0.220 C 
HETATM   17  N   UNL     1       6.768  25.561  53.287  1.00  0.00    -0.357 N 
HETATM   18  H   UNL     1       6.749  25.478  54.294  1.00  0.00     0.162 HD
HETATM   19  O   UNL     1       6.070  26.762  51.451  1.00  0.00    -0.274 OA
BRANCH  17  20
HETATM   20  C   UNL     1       7.417  24.505  52.543  1.00  0.00     0.161 C 
BRANCH  20  21
HETATM   21  C   UNL     1       7.660  23.266  53.363  1.00  0.00    -0.038 A 
HETATM   22  C   UNL     1       7.760  23.343  54.762  1.00  0.00     0.048 A 
HETATM   23  C   UNL     1       8.066  22.191  55.457  1.00  0.00     0.105 A 
HETATM   24  C   UNL     1       8.258  20.987  54.820  1.00  0.00     0.105 A 
HETATM   25  O   UNL     1       8.232  22.097  56.804  1.00  0.00    -0.323 OA
HETATM   26  O   UNL     1       8.570  19.986  55.685  1.00  0.00    -0.323 OA
HETATM   27  C   UNL     1       8.151  20.865  53.454  1.00  0.00     0.040 A 
HETATM   28  C   UNL     1       8.594  20.705  56.935  1.00  0.00     0.352 A 
HETATM   29  C   UNL     1       7.854  22.019  52.722  1.00  0.00     0.012 A 
ENDBRANCH  20  21
ENDBRANCH  17  20
ENDBRANCH  15  16
ENDBRANCH  12  15
BRANCH   6  30
HETATM   30  S   UNL     1       4.353  30.494  57.706  1.00  0.00    -0.082 SA
BRANCH  30  31
HETATM   31  C   UNL     1       4.555  32.240  58.126  1.00  0.00     0.185 C 
BRANCH  31  32
HETATM   32  C   UNL     1       4.656  32.381  59.634  1.00  0.00     0.231 C 
HETATM   33  N   UNL     1       5.899  32.829  60.056  1.00  0.00    -0.327 N 
HETATM   34  H   UNL     1       6.580  33.041  59.336  1.00  0.00     0.169 HD
HETATM   35  O   UNL     1       3.702  32.099  60.355  1.00  0.00    -0.272 OA
BRANCH  33  36
HETATM   36  C   UNL     1       6.315  33.059  61.382  1.00  0.00     0.034 A 
HETATM   37  C   UNL     1       5.808  34.079  62.194  1.00  0.00     0.032 A 
HETATM   38  C   UNL     1       6.275  34.244  63.501  1.00  0.00     0.044 A 
HETATM   39  C   UNL     1       7.243  33.382  63.997  1.00  0.00     0.116 A 
HETATM   40  F   UNL     1       7.686  33.535  65.252  1.00  0.00    -0.206 F 
HETATM   41  C   UNL     1       7.759  32.363  63.209  1.00  0.00     0.044 A 
HETATM   42  C   UNL     1       7.302  32.207  61.898  1.00  0.00     0.032 A 
ENDBRANCH  33  36
ENDBRANCH  31  32
ENDBRANCH  30  31
ENDBRANCH   6  30
TORSDOF 8
ENDMDL
MODEL 2
REMARK VINA RESULT:     -11.3      3.509     10.275
REMARK  8 active torsions:
REMARK  status: ('A' for Active; 'I' for Inactive)
REMARK    1  A    between atoms: C_6  and  S_7 
REMARK    2  A    between atoms: S_7  and  C_8 
REMARK    3  A    between atoms: C_8  and  C_9 
REMARK       I    between atoms: C_9  and  N_10 
REMARK    4  A    between atoms: N_10  and  C_11 
REMARK    5  A    between atoms: C_24  and  C_25 
REMARK    6  A    between atoms: C_25  and  C_26 
REMARK       I    between atoms: C_26  and  N_27 
REMARK    7  A    between atoms: N_27  and  C_28 
REMARK    8  A    between atoms: C_28  and  C_29 
ROOT
HETATM    1  C   UNL     1       3.540  32.470  57.166  1.00  0.00     0.001 A 
HETATM    2  C   UNL     1       4.718  31.851  57.582  1.00  0.00     0.018 A 
HETATM    3  C   UNL     1       5.234  30.798  56.826  1.00  0.00     0.039 A 
HETATM    4  C   UNL     1       4.596  30.344  55.663  1.00  0.00     0.073 A 
HETATM    5  N   UNL     1       5.122  29.311  54.864  1.00  0.00    -0.223 NA
HETATM    6  C   UNL     1       6.214  28.740  55.262  1.00  0.00     0.178 C 
HETATM    7  N   UNL     1       6.841  29.047  56.457  1.00  0.00    -0.241 N 
HETATM    8  C   UNL     1       6.454  30.094  57.225  1.00  0.00     0.147 C 
HETATM    9  N   UNL     1       7.192  30.386  58.252  1.00  0.00    -0.256 NA
HETATM   10  C   UNL     1       7.875  28.420  57.104  1.00  0.00     0.257 C 
HETATM   11  O   UNL     1       8.307  27.294  56.918  1.00  0.00    -0.270 OA
HETATM   12  C   UNL     1       8.278  29.355  58.233  1.00  0.00     0.211 C 
HETATM   13  C   UNL     1       3.420  30.977  55.259  1.00  0.00     0.032 A 
HETATM   14  C   UNL     1       2.893  32.034  56.008  1.00  0.00     0.002 A 
ENDROOT
BRANCH  12  15
HETATM   15  C   UNL     1       9.625  30.008  57.945  1.00  0.00     0.140 C 
BRANCH  15  16
HETATM   16  C   UNL     1       9.787  31.181  58.885  1.00  0.00     0.220 C 
HETATM   17  N   UNL     1       9.399  30.922  60.179  1.00  0.00    -0.357 N 
HETATM   18  H   UNL     1       9.265  29.973  60.499  1.00  0.00     0.162 HD
HETATM   19  O   UNL     1      10.138  32.283  58.476  1.00  0.00    -0.274 OA
BRANCH  17  20
HETATM   20  C   UNL     1       9.106  31.988  61.112  1.00  0.00     0.161 C 
BRANCH  20  21
HETATM   21  C   UNL     1       7.646  32.077  61.469  1.00  0.00    -0.038 A 
HETATM   22  C   UNL     1       6.764  32.840  60.685  1.00  0.00     0.048 A 
HETATM   23  C   UNL     1       5.455  32.955  61.105  1.00  0.00     0.105 A 
HETATM   24  C   UNL     1       5.000  32.336  62.246  1.00  0.00     0.105 A 
HETATM   25  O   UNL     1       4.483  33.679  60.486  1.00  0.00    -0.323 OA
HETATM   26  O   UNL     1       3.687  32.594  62.489  1.00  0.00    -0.323 OA
HETATM   27  C   UNL     1       5.826  31.566  63.030  1.00  0.00     0.040 A 
HETATM   28  C   UNL     1       3.378  33.480  61.394  1.00  0.00     0.352 A 
HETATM   29  C   UNL     1       7.162  31.441  62.637  1.00  0.00     0.012 A 
ENDBRANCH  20  21
ENDBRANCH  17  20
ENDBRANCH  15  16
ENDBRANCH  12  15
BRANCH   6  30
HETATM   30  S   UNL     1       6.995  27.613  54.189  1.00  0.00    -0.082 SA
BRANCH  30  31
HETATM   31  C   UNL     1       5.534  26.897  53.404  1.00  0.00     0.185 C 
BRANCH  31  32
HETATM   32  C   UNL     1       5.637  25.383  53.444  1.00  0.00     0.231 C 
HETATM   33  N   UNL     1       6.881  24.935  53.862  1.00  0.00    -0.327 N 
HETATM   34  H   UNL     1       7.561  25.640  54.122  1.00  0.00     0.169 HD
HETATM   35  O   UNL     1       4.685  24.681  53.115  1.00  0.00    -0.272 OA
BRANCH  33  36
HETATM   36  C   UNL     1       7.299  23.597  54.004  1.00  0.00     0.034 A 
HETATM   37  C   UNL     1       7.665  22.775  52.933  1.00  0.00     0.032 A 
HETATM   38  C   UNL     1       8.067  21.455  53.157  1.00  0.00     0.044 A 
HETATM   39  C   UNL     1       8.113  20.962  54.453  1.00  0.00     0.116 A 
HETATM   40  F   UNL     1       8.505  19.700  54.669  1.00  0.00    -0.206 F 
HETATM   41  C   UNL     1       7.756  21.761  55.531  1.00  0.00     0.044 A 
HETATM   42  C   UNL     1       7.340  23.075  55.305  1.00  0.00     0.032 A 
ENDBRANCH  33  36
ENDBRANCH  31  32
ENDBRANCH  30  31
ENDBRANCH   6  30
TORSDOF 8
ENDMDL
MODEL 3
REMARK VINA RESULT:     -11.0      2.411      4.090
REMARK  8 active torsions:
REMARK  status: ('A' for Active; 'I' for Inactive)
REMARK    1  A    between atoms: C_6  and  S_7 
REMARK    2  A    between atoms: S_7  and  C_8 
REMARK    3  A    between atoms: C_8  and  C_9 
REMARK       I    between atoms: C_9  and  N_10 
REMARK    4  A    between atoms: N_10  and  C_11 
REMARK    5  A    between atoms: C_24  and  C_25 
REMARK    6  A    between atoms: C_25  and  C_26 
REMARK       I    between atoms: C_26  and  N_27 
REMARK    7  A    between atoms: N_27  and  C_28 
REMARK    8  A    between atoms: C_28  and  C_29 
ROOT
HETATM    1  C   UNL     1       6.046  24.758  56.605  1.00  0.00     0.001 A 
HETATM    2  C   UNL     1       5.517  26.046  56.529  1.00  0.00     0.018 A 
HETATM    3  C   UNL     1       6.297  27.126  56.946  1.00  0.00     0.039 A 
HETATM    4  C   UNL     1       7.595  26.947  57.444  1.00  0.00     0.073 A 
HETATM    5  N   UNL     1       8.413  28.026  57.832  1.00  0.00    -0.223 NA
HETATM    6  C   UNL     1       7.909  29.218  57.760  1.00  0.00     0.178 C 
HETATM    7  N   UNL     1       6.599  29.469  57.394  1.00  0.00    -0.241 N 
HETATM    8  C   UNL     1       5.787  28.498  56.912  1.00  0.00     0.147 C 
HETATM    9  N   UNL     1       4.625  28.860  56.463  1.00  0.00    -0.256 NA
HETATM   10  C   UNL     1       5.868  30.628  57.449  1.00  0.00     0.257 C 
HETATM   11  O   UNL     1       6.113  31.643  58.081  1.00  0.00    -0.270 OA
HETATM   12  C   UNL     1       4.586  30.341  56.687  1.00  0.00     0.211 C 
HETATM   13  C   UNL     1       8.110  25.653  57.510  1.00  0.00     0.032 A 
HETATM   14  C   UNL     1       7.339  24.562  57.094  1.00  0.00     0.002 A 
ENDROOT
BRANCH  12  15
HETATM   15  C   UNL     1       4.566  31.079  55.353  1.00  0.00     0.140 C 
BRANCH  15  16
HETATM   16  C   UNL     1       4.362  30.058  54.257  1.00  0.00     0.220 C 
HETATM   17  N   UNL     1       5.509  29.395  53.886  1.00  0.00    -0.357 N 
HETATM   18  H   UNL     1       6.333  29.420  54.471  1.00  0.00     0.162 HD
HETATM   19  O   UNL     1       3.278  29.931  53.696  1.00  0.00    -0.274 OA
BRANCH  17  20
HETATM   20  C   UNL     1       5.607  28.693  52.626  1.00  0.00     0.161 C 
BRANCH  20  21
HETATM   21  C   UNL     1       5.838  27.214  52.790  1.00  0.00    -0.038 A 
HETATM   22  C   UNL     1       7.082  26.729  53.228  1.00  0.00     0.048 A 
HETATM   23  C   UNL     1       7.265  25.362  53.280  1.00  0.00     0.105 A 
HETATM   24  C   UNL     1       6.268  24.481  52.932  1.00  0.00     0.105 A 
HETATM   25  O   UNL     1       8.412  24.728  53.647  1.00  0.00    -0.323 OA
HETATM   26  O   UNL     1       6.661  23.184  53.035  1.00  0.00    -0.323 OA
HETATM   27  C   UNL     1       5.030  24.915  52.516  1.00  0.00     0.040 A 
HETATM   28  C   UNL     1       8.033  23.349  53.447  1.00  0.00     0.352 A 
HETATM   29  C   UNL     1       4.820  26.295  52.441  1.00  0.00     0.012 A 
ENDBRANCH  20  21
ENDBRANCH  17  20
ENDBRANCH  15  16
ENDBRANCH  12  15
BRANCH   6  30
HETATM   30  S   UNL     1       8.964  30.576  58.029  1.00  0.00    -0.082 SA
BRANCH  30  31
HETATM   31  C   UNL     1       9.150  30.453  59.822  1.00  0.00     0.185 C 
BRANCH  31  32
HETATM   32  C   UNL     1       8.703  31.755  60.461  1.00  0.00     0.231 C 
HETATM   33  N   UNL     1       7.920  31.565  61.589  1.00  0.00    -0.327 N 
HETATM   34  H   UNL     1       7.759  30.608  61.882  1.00  0.00     0.169 HD
HETATM   35  O   UNL     1       9.024  32.835  59.973  1.00  0.00    -0.272 OA
BRANCH  33  36
HETATM   36  C   UNL     1       7.346  32.561  62.404  1.00  0.00     0.034 A 
HETATM   37  C   UNL     1       6.333  33.427  61.983  1.00  0.00     0.032 A 
HETATM   38  C   UNL     1       5.817  34.393  62.853  1.00  0.00     0.044 A 
HETATM   39  C   UNL     1       6.310  34.483  64.147  1.00  0.00     0.116 A 
HETATM   40  F   UNL     1       5.811  35.403  64.983  1.00  0.00    -0.206 F 
HETATM   41  C   UNL     1       7.315  33.632  64.586  1.00  0.00     0.044 A 
HETATM   42  C   UNL     1       7.840  32.677  63.712  1.00  0.00     0.032 A 
ENDBRANCH  33  36
ENDBRANCH  31  32
ENDBRANCH  30  31
ENDBRANCH   6  30
TORSDOF 8
ENDMDL
MODEL 4
REMARK VINA RESULT:     -10.9      2.966      8.829
REMARK  8 active torsions:
REMARK  status: ('A' for Active; 'I' for Inactive)
REMARK    1  A    between atoms: C_6  and  S_7 
REMARK    2  A    between atoms: S_7  and  C_8 
REMARK    3  A    between atoms: C_8  and  C_9 
REMARK       I    between atoms: C_9  and  N_10 
REMARK    4  A    between atoms: N_10  and  C_11 
REMARK    5  A    between atoms: C_24  and  C_25 
REMARK    6  A    between atoms: C_25  and  C_26 
REMARK       I    between atoms: C_26  and  N_27 
REMARK    7  A    between atoms: N_27  and  C_28 
REMARK    8  A    between atoms: C_28  and  C_29 
ROOT
HETATM    1  C   UNL     1       8.340  22.167  56.730  1.00  0.00     0.001 A 
HETATM    2  C   UNL     1       8.433  23.522  57.043  1.00  0.00     0.018 A 
HETATM    3  C   UNL     1       7.961  24.464  56.127  1.00  0.00     0.039 A 
HETATM    4  C   UNL     1       7.401  24.081  54.900  1.00  0.00     0.073 A 
HETATM    5  N   UNL     1       6.882  25.013  53.981  1.00  0.00    -0.223 NA
HETATM    6  C   UNL     1       6.977  26.270  54.281  1.00  0.00     0.178 C 
HETATM    7  N   UNL     1       7.621  26.735  55.414  1.00  0.00    -0.241 N 
HETATM    8  C   UNL     1       8.053  25.902  56.390  1.00  0.00     0.147 C 
HETATM    9  N   UNL     1       8.515  26.442  57.476  1.00  0.00    -0.256 NA
HETATM   10  C   UNL     1       7.970  28.011  55.776  1.00  0.00     0.257 C 
HETATM   11  O   UNL     1       8.037  29.003  55.068  1.00  0.00    -0.270 OA
HETATM   12  C   UNL     1       8.425  27.916  57.223  1.00  0.00     0.211 C 
HETATM   13  C   UNL     1       7.313  22.721  54.605  1.00  0.00     0.032 A 
HETATM   14  C   UNL     1       7.781  21.767  55.514  1.00  0.00     0.002 A 
ENDROOT
BRANCH  12  15
HETATM   15  C   UNL     1       7.404  28.553  58.159  1.00  0.00     0.140 C 
BRANCH  15  16
HETATM   16  C   UNL     1       8.045  29.766  58.794  1.00  0.00     0.220 C 
HETATM   17  N   UNL     1       7.181  30.531  59.544  1.00  0.00    -0.357 N 
HETATM   18  H   UNL     1       6.285  30.164  59.833  1.00  0.00     0.162 HD
HETATM   19  O   UNL     1       9.210  30.070  58.558  1.00  0.00    -0.274 OA
BRANCH  17  20
HETATM   20  C   UNL     1       7.488  31.900  59.893  1.00  0.00     0.161 C 
BRANCH  20  21
HETATM   21  C   UNL     1       7.189  32.223  61.334  1.00  0.00    -0.038 A 
HETATM   22  C   UNL     1       5.869  32.451  61.756  1.00  0.00     0.048 A 
HETATM   23  C   UNL     1       5.661  32.825  63.068  1.00  0.00     0.105 A 
HETATM   24  C   UNL     1       6.701  32.963  63.958  1.00  0.00     0.105 A 
HETATM   25  O   UNL     1       4.457  33.115  63.630  1.00  0.00    -0.323 OA
HETATM   26  O   UNL     1       6.282  33.358  65.189  1.00  0.00    -0.323 OA
HETATM   27  C   UNL     1       8.006  32.732  63.589  1.00  0.00     0.040 A 
HETATM   28  C   UNL     1       4.865  33.494  64.962  1.00  0.00     0.352 A 
HETATM   29  C   UNL     1       8.248  32.363  62.262  1.00  0.00     0.012 A 
ENDBRANCH  20  21
ENDBRANCH  17  20
ENDBRANCH  15  16
ENDBRANCH  12  15
BRANCH   6  30
HETATM   30  S   UNL     1       6.158  27.424  53.267  1.00  0.00    -0.082 SA
BRANCH  30  31
HETATM   31  C   UNL     1       4.608  27.571  54.185  1.00  0.00     0.185 C 
BRANCH  31  32
HETATM   32  C   UNL     1       4.425  29.010  54.629  1.00  0.00     0.231 C 
HETATM   33  N   UNL     1       4.696  29.201  55.976  1.00  0.00    -0.327 N 
HETATM   34  H   UNL     1       5.011  28.393  56.501  1.00  0.00     0.169 HD
HETATM   35  O   UNL     1       4.059  29.870  53.833  1.00  0.00    -0.272 OA
BRANCH  33  36
HETATM   36  C   UNL     1       4.619  30.409  56.697  1.00  0.00     0.034 A 
HETATM   37  C   UNL     1       5.232  31.600  56.294  1.00  0.00     0.032 A 
HETATM   38  C   UNL     1       5.109  32.758  57.067  1.00  0.00     0.044 A 
HETATM   39  C   UNL     1       4.365  32.726  58.238  1.00  0.00     0.116 A 
HETATM   40  F   UNL     1       4.241  33.836  58.976  1.00  0.00    -0.206 F 
HETATM   41  C   UNL     1       3.747  31.555  58.655  1.00  0.00     0.044 A 
HETATM   42  C   UNL     1       3.881  30.394  57.890  1.00  0.00     0.032 A 
ENDBRANCH  33  36
ENDBRANCH  31  32
ENDBRANCH  30  31
ENDBRANCH   6  30
TORSDOF 8
ENDMDL
MODEL 5
REMARK VINA RESULT:     -10.6      4.725     11.430
REMARK  8 active torsions:
REMARK  status: ('A' for Active; 'I' for Inactive)
REMARK    1  A    between atoms: C_6  and  S_7 
REMARK    2  A    between atoms: S_7  and  C_8 
REMARK    3  A    between atoms: C_8  and  C_9 
REMARK       I    between atoms: C_9  and  N_10 
REMARK    4  A    between atoms: N_10  and  C_11 
REMARK    5  A    between atoms: C_24  and  C_25 
REMARK    6  A    between atoms: C_25  and  C_26 
REMARK       I    between atoms: C_26  and  N_27 
REMARK    7  A    between atoms: N_27  and  C_28 
REMARK    8  A    between atoms: C_28  and  C_29 
ROOT
HETATM    1  C   UNL     1       8.584  22.039  56.928  1.00  0.00     0.001 A 
HETATM    2  C   UNL     1       8.540  23.426  57.059  1.00  0.00     0.018 A 
HETATM    3  C   UNL     1       7.844  24.176  56.108  1.00  0.00     0.039 A 
HETATM    4  C   UNL     1       7.194  23.568  55.025  1.00  0.00     0.073 A 
HETATM    5  N   UNL     1       6.452  24.302  54.079  1.00  0.00    -0.223 NA
HETATM    6  C   UNL     1       6.421  25.590  54.207  1.00  0.00     0.178 C 
HETATM    7  N   UNL     1       7.132  26.275  55.177  1.00  0.00    -0.241 N 
HETATM    8  C   UNL     1       7.782  25.637  56.179  1.00  0.00     0.147 C 
HETATM    9  N   UNL     1       8.299  26.369  57.118  1.00  0.00    -0.256 NA
HETATM   10  C   UNL     1       7.356  27.619  55.330  1.00  0.00     0.257 C 
HETATM   11  O   UNL     1       7.210  28.506  54.505  1.00  0.00    -0.270 OA
HETATM   12  C   UNL     1       7.991  27.775  56.702  1.00  0.00     0.211 C 
HETATM   13  C   UNL     1       7.245  22.179  54.912  1.00  0.00     0.032 A 
HETATM   14  C   UNL     1       7.938  21.417  55.858  1.00  0.00     0.002 A 
ENDROOT
BRANCH  12  15
HETATM   15  C   UNL     1       7.018  28.417  57.684  1.00  0.00     0.140 C 
BRANCH  15  16
HETATM   16  C   UNL     1       7.695  29.625  58.292  1.00  0.00     0.220 C 
HETATM   17  N   UNL     1       6.837  30.484  58.938  1.00  0.00    -0.357 N 
HETATM   18  H   UNL     1       5.902  30.191  59.188  1.00  0.00     0.162 HD
HETATM   19  O   UNL     1       8.889  29.843  58.116  1.00  0.00    -0.274 OA
BRANCH  17  20
HETATM   20  C   UNL     1       7.208  31.851  59.230  1.00  0.00     0.161 C 
BRANCH  20  21
HETATM   21  C   UNL     1       7.288  32.140  60.706  1.00  0.00    -0.038 A 
HETATM   22  C   UNL     1       6.235  32.799  61.363  1.00  0.00     0.048 A 
HETATM   23  C   UNL     1       6.397  33.112  62.697  1.00  0.00     0.105 A 
HETATM   24  C   UNL     1       7.542  32.787  63.387  1.00  0.00     0.105 A 
HETATM   25  O   UNL     1       5.496  33.775  63.472  1.00  0.00    -0.323 OA
HETATM   26  O   UNL     1       7.505  33.203  64.681  1.00  0.00    -0.323 OA
HETATM   27  C   UNL     1       8.587  32.126  62.785  1.00  0.00     0.040 A 
HETATM   28  C   UNL     1       6.225  33.866  64.715  1.00  0.00     0.352 A 
HETATM   29  C   UNL     1       8.457  31.806  61.430  1.00  0.00     0.012 A 
ENDBRANCH  20  21
ENDBRANCH  17  20
ENDBRANCH  15  16
ENDBRANCH  12  15
BRANCH   6  30
HETATM   30  S   UNL     1       5.344  26.496  53.183  1.00  0.00    -0.082 SA
BRANCH  30  31
HETATM   31  C   UNL     1       6.110  26.159  51.581  1.00  0.00     0.185 C 
BRANCH  31  32
HETATM   32  C   UNL     1       5.304  26.839  50.490  1.00  0.00     0.231 C 
HETATM   33  N   UNL     1       4.353  26.007  49.919  1.00  0.00    -0.327 N 
HETATM   34  H   UNL     1       4.272  25.071  50.300  1.00  0.00     0.169 HD
HETATM   35  O   UNL     1       5.530  28.005  50.179  1.00  0.00    -0.272 OA
BRANCH  33  36
HETATM   36  C   UNL     1       3.451  26.329  48.885  1.00  0.00     0.034 A 
HETATM   37  C   UNL     1       3.273  25.554  47.735  1.00  0.00     0.032 A 
HETATM   38  C   UNL     1       2.359  25.943  46.751  1.00  0.00     0.044 A 
HETATM   39  C   UNL     1       1.617  27.104  46.925  1.00  0.00     0.116 A 
HETATM   40  F   UNL     1       0.736  27.473  45.987  1.00  0.00    -0.206 F 
HETATM   41  C   UNL     1       1.778  27.887  48.060  1.00  0.00     0.044 A 
HETATM   42  C   UNL     1       2.702  27.505  49.035  1.00  0.00     0.032 A 
ENDBRANCH  33  36
ENDBRANCH  31  32
ENDBRANCH  30  31
ENDBRANCH   6  30
TORSDOF 8
ENDMDL
MODEL 6
REMARK VINA RESULT:     -10.6      4.543     10.563
REMARK  8 active torsions:
REMARK  status: ('A' for Active; 'I' for Inactive)
REMARK    1  A    between atoms: C_6  and  S_7 
REMARK    2  A    between atoms: S_7  and  C_8 
REMARK    3  A    between atoms: C_8  and  C_9 
REMARK       I    between atoms: C_9  and  N_10 
REMARK    4  A    between atoms: N_10  and  C_11 
REMARK    5  A    between atoms: C_24  and  C_25 
REMARK    6  A    between atoms: C_25  and  C_26 
REMARK       I    between atoms: C_26  and  N_27 
REMARK    7  A    between atoms: N_27  and  C_28 
REMARK    8  A    between atoms: C_28  and  C_29 
ROOT
HETATM    1  C   UNL     1       8.359  20.383  56.275  1.00  0.00     0.001 A 
HETATM    2  C   UNL     1       7.988  21.707  56.504  1.00  0.00     0.018 A 
HETATM    3  C   UNL     1       7.870  22.577  55.418  1.00  0.00     0.039 A 
HETATM    4  C   UNL     1       8.119  22.152  54.106  1.00  0.00     0.073 A 
HETATM    5  N   UNL     1       7.965  23.001  52.993  1.00  0.00    -0.223 NA
HETATM    6  C   UNL     1       7.625  24.231  53.218  1.00  0.00     0.178 C 
HETATM    7  N   UNL     1       7.476  24.758  54.488  1.00  0.00    -0.241 N 
HETATM    8  C   UNL     1       7.507  23.984  55.599  1.00  0.00     0.147 C 
HETATM    9  N   UNL     1       7.217  24.549  56.730  1.00  0.00    -0.256 NA
HETATM   10  C   UNL     1       7.310  26.057  54.896  1.00  0.00     0.257 C 
HETATM   11  O   UNL     1       7.521  27.079  54.262  1.00  0.00    -0.270 OA
HETATM   12  C   UNL     1       6.961  25.981  56.373  1.00  0.00     0.211 C 
HETATM   13  C   UNL     1       8.486  20.823  53.894  1.00  0.00     0.032 A 
HETATM   14  C   UNL     1       8.607  19.942  54.974  1.00  0.00     0.002 A 
ENDROOT
BRANCH  12  15
HETATM   15  C   UNL     1       5.496  26.333  56.607  1.00  0.00     0.140 C 
BRANCH  15  16
HETATM   16  C   UNL     1       5.301  27.788  56.249  1.00  0.00     0.220 C 
HETATM   17  N   UNL     1       6.253  28.630  56.778  1.00  0.00    -0.357 N 
HETATM   18  H   UNL     1       7.119  28.264  57.147  1.00  0.00     0.162 HD
HETATM   19  O   UNL     1       4.313  28.166  55.627  1.00  0.00    -0.274 OA
BRANCH  17  20
HETATM   20  C   UNL     1       6.031  30.055  56.885  1.00  0.00     0.161 C 
BRANCH  20  21
HETATM   21  C   UNL     1       6.656  30.660  58.114  1.00  0.00    -0.038 A 
HETATM   22  C   UNL     1       7.776  30.060  58.715  1.00  0.00     0.048 A 
HETATM   23  C   UNL     1       8.257  30.609  59.886  1.00  0.00     0.105 A 
HETATM   24  C   UNL     1       7.681  31.719  60.460  1.00  0.00     0.105 A 
HETATM   25  O   UNL     1       9.306  30.137  60.612  1.00  0.00    -0.323 OA
HETATM   26  O   UNL     1       8.294  32.083  61.617  1.00  0.00    -0.323 OA
HETATM   27  C   UNL     1       6.595  32.345  59.894  1.00  0.00     0.040 A 
HETATM   28  C   UNL     1       9.295  31.051  61.729  1.00  0.00     0.352 A 
HETATM   29  C   UNL     1       6.078  31.804  58.712  1.00  0.00     0.012 A 
ENDBRANCH  20  21
ENDBRANCH  17  20
ENDBRANCH  15  16
ENDBRANCH  12  15
BRANCH   6  30
HETATM   30  S   UNL     1       7.223  25.238  51.856  1.00  0.00    -0.082 SA
BRANCH  30  31
HETATM   31  C   UNL     1       5.420  25.147  51.946  1.00  0.00     0.185 C 
BRANCH  31  32
HETATM   32  C   UNL     1       4.824  26.363  51.260  1.00  0.00     0.231 C 
HETATM   33  N   UNL     1       4.613  26.172  49.903  1.00  0.00    -0.327 N 
HETATM   34  H   UNL     1       4.839  25.258  49.526  1.00  0.00     0.169 HD
HETATM   35  O   UNL     1       4.589  27.387  51.895  1.00  0.00    -0.272 OA
BRANCH  33  36
HETATM   36  C   UNL     1       4.081  27.099  48.986  1.00  0.00     0.034 A 
HETATM   37  C   UNL     1       4.726  28.280  48.605  1.00  0.00     0.032 A 
HETATM   38  C   UNL     1       4.130  29.152  47.689  1.00  0.00     0.044 A 
HETATM   39  C   UNL     1       2.892  28.835  47.148  1.00  0.00     0.116 A 
HETATM   40  F   UNL     1       2.323  29.666  46.265  1.00  0.00    -0.206 F 
HETATM   41  C   UNL     1       2.234  27.668  47.511  1.00  0.00     0.044 A 
HETATM   42  C   UNL     1       2.825  26.804  48.437  1.00  0.00     0.032 A 
ENDBRANCH  33  36
ENDBRANCH  31  32
ENDBRANCH  30  31
ENDBRANCH   6  30
TORSDOF 8
ENDMDL
MODEL 7
REMARK VINA RESULT:     -10.6      1.853      2.581
REMARK  8 active torsions:
REMARK  status: ('A' for Active; 'I' for Inactive)
REMARK    1  A    between atoms: C_6  and  S_7 
REMARK    2  A    between atoms: S_7  and  C_8 
REMARK    3  A    between atoms: C_8  and  C_9 
REMARK       I    between atoms: C_9  and  N_10 
REMARK    4  A    between atoms: N_10  and  C_11 
REMARK    5  A    between atoms: C_24  and  C_25 
REMARK    6  A    between atoms: C_25  and  C_26 
REMARK       I    between atoms: C_26  and  N_27 
REMARK    7  A    between atoms: N_27  and  C_28 
REMARK    8  A    between atoms: C_28  and  C_29 
ROOT
HETATM    1  C   UNL     1       9.586  31.192  61.533  1.00  0.00     0.001 A 
HETATM    2  C   UNL     1       9.205  30.364  60.478  1.00  0.00     0.018 A 
HETATM    3  C   UNL     1       8.138  30.749  59.664  1.00  0.00     0.039 A 
HETATM    4  C   UNL     1       7.439  31.944  59.883  1.00  0.00     0.073 A 
HETATM    5  N   UNL     1       6.388  32.371  59.049  1.00  0.00    -0.223 NA
HETATM    6  C   UNL     1       6.040  31.591  58.075  1.00  0.00     0.178 C 
HETATM    7  N   UNL     1       6.598  30.343  57.863  1.00  0.00    -0.241 N 
HETATM    8  C   UNL     1       7.677  29.909  58.557  1.00  0.00     0.147 C 
HETATM    9  N   UNL     1       8.213  28.786  58.188  1.00  0.00    -0.256 NA
HETATM   10  C   UNL     1       6.221  29.334  57.013  1.00  0.00     0.257 C 
HETATM   11  O   UNL     1       5.153  29.192  56.440  1.00  0.00    -0.270 OA
HETATM   12  C   UNL     1       7.353  28.321  57.052  1.00  0.00     0.211 C 
HETATM   13  C   UNL     1       7.836  32.763  60.940  1.00  0.00     0.032 A 
HETATM   14  C   UNL     1       8.904  32.389  61.763  1.00  0.00     0.002 A 
ENDROOT
BRANCH  12  15
HETATM   15  C   UNL     1       8.143  28.335  55.749  1.00  0.00     0.140 C 
BRANCH  15  16
HETATM   16  C   UNL     1       7.316  27.637  54.693  1.00  0.00     0.220 C 
HETATM   17  N   UNL     1       7.022  26.325  54.986  1.00  0.00    -0.357 N 
HETATM   18  H   UNL     1       7.137  25.966  55.923  1.00  0.00     0.162 HD
HETATM   19  O   UNL     1       7.037  28.188  53.633  1.00  0.00    -0.274 OA
BRANCH  17  20
HETATM   20  C   UNL     1       6.599  25.395  53.962  1.00  0.00     0.161 C 
BRANCH  20  21
HETATM   21  C   UNL     1       7.148  24.007  54.161  1.00  0.00    -0.038 A 
HETATM   22  C   UNL     1       7.443  23.533  55.451  1.00  0.00     0.048 A 
HETATM   23  C   UNL     1       8.022  22.286  55.568  1.00  0.00     0.105 A 
HETATM   24  C   UNL     1       8.298  21.506  54.469  1.00  0.00     0.105 A 
HETATM   25  O   UNL     1       8.400  21.693  56.733  1.00  0.00    -0.323 OA
HETATM   26  O   UNL     1       8.885  20.326  54.804  1.00  0.00    -0.323 OA
HETATM   27  C   UNL     1       8.009  21.926  53.192  1.00  0.00     0.040 A 
HETATM   28  C   UNL     1       8.985  20.471  56.235  1.00  0.00     0.352 A 
HETATM   29  C   UNL     1       7.433  23.191  53.041  1.00  0.00     0.012 A 
ENDBRANCH  20  21
ENDBRANCH  17  20
ENDBRANCH  15  16
ENDBRANCH  12  15
BRANCH   6  30
HETATM   30  S   UNL     1       4.894  32.189  56.908  1.00  0.00    -0.082 SA
BRANCH  30  31
HETATM   31  C   UNL     1       4.705  33.878  57.523  1.00  0.00     0.185 C 
BRANCH  31  32
HETATM   32  C   UNL     1       3.971  33.847  58.851  1.00  0.00     0.231 C 
HETATM   33  N   UNL     1       4.632  34.540  59.853  1.00  0.00    -0.327 N 
HETATM   34  H   UNL     1       5.493  35.010  59.598  1.00  0.00     0.169 HD
HETATM   35  O   UNL     1       2.910  33.240  58.965  1.00  0.00    -0.272 OA
BRANCH  33  36
HETATM   36  C   UNL     1       4.221  34.698  61.192  1.00  0.00     0.034 A 
HETATM   37  C   UNL     1       3.606  35.850  61.689  1.00  0.00     0.032 A 
HETATM   38  C   UNL     1       3.229  35.931  63.033  1.00  0.00     0.044 A 
HETATM   39  C   UNL     1       3.460  34.852  63.876  1.00  0.00     0.116 A 
HETATM   40  F   UNL     1       3.094  34.926  65.162  1.00  0.00    -0.206 F 
HETATM   41  C   UNL     1       4.069  33.698  63.402  1.00  0.00     0.044 A 
HETATM   42  C   UNL     1       4.458  33.624  62.063  1.00  0.00     0.032 A 
ENDBRANCH  33  36
ENDBRANCH  31  32
ENDBRANCH  30  31
ENDBRANCH   6  30
TORSDOF 8
ENDMDL
MODEL 8
REMARK VINA RESULT:     -10.6      4.174      7.495
REMARK  8 active torsions:
REMARK  status: ('A' for Active; 'I' for Inactive)
REMARK    1  A    between atoms: C_6  and  S_7 
REMARK    2  A    between atoms: S_7  and  C_8 
REMARK    3  A    between atoms: C_8  and  C_9 
REMARK       I    between atoms: C_9  and  N_10 
REMARK    4  A    between atoms: N_10  and  C_11 
REMARK    5  A    between atoms: C_24  and  C_25 
REMARK    6  A    between atoms: C_25  and  C_26 
REMARK       I    between atoms: C_26  and  N_27 
REMARK    7  A    between atoms: N_27  and  C_28 
REMARK    8  A    between atoms: C_28  and  C_29 
ROOT
HETATM    1  C   UNL     1       8.089  22.696  53.253  1.00  0.00     0.001 A 
HETATM    2  C   UNL     1       7.265  23.777  52.945  1.00  0.00     0.018 A 
HETATM    3  C   UNL     1       7.040  24.757  53.914  1.00  0.00     0.039 A 
HETATM    4  C   UNL     1       7.617  24.677  55.189  1.00  0.00     0.073 A 
HETATM    5  N   UNL     1       7.436  25.674  56.166  1.00  0.00    -0.223 NA
HETATM    6  C   UNL     1       6.665  26.672  55.870  1.00  0.00     0.178 C 
HETATM    7  N   UNL     1       5.965  26.766  54.681  1.00  0.00    -0.241 N 
HETATM    8  C   UNL     1       6.165  25.903  53.657  1.00  0.00     0.147 C 
HETATM    9  N   UNL     1       5.567  26.158  52.534  1.00  0.00    -0.256 NA
HETATM   10  C   UNL     1       4.980  27.640  54.297  1.00  0.00     0.257 C 
HETATM   11  O   UNL     1       4.303  28.369  55.003  1.00  0.00    -0.270 OA
HETATM   12  C   UNL     1       4.779  27.402  52.809  1.00  0.00     0.211 C 
HETATM   13  C   UNL     1       8.442  23.590  55.479  1.00  0.00     0.032 A 
HETATM   14  C   UNL     1       8.676  22.602  54.516  1.00  0.00     0.002 A 
ENDROOT
BRANCH  12  15
HETATM   15  C   UNL     1       5.325  28.567  51.991  1.00  0.00     0.140 C 
BRANCH  15  16
HETATM   16  C   UNL     1       5.080  28.268  50.530  1.00  0.00     0.220 C 
HETATM   17  N   UNL     1       3.971  27.489  50.293  1.00  0.00    -0.357 N 
HETATM   18  H   UNL     1       3.270  27.357  51.008  1.00  0.00     0.162 HD
HETATM   19  O   UNL     1       5.877  28.617  49.664  1.00  0.00    -0.274 OA
BRANCH  17  20
HETATM   20  C   UNL     1       3.793  26.780  49.045  1.00  0.00     0.161 C 
BRANCH  20  21
HETATM   21  C   UNL     1       2.796  27.437  48.128  1.00  0.00    -0.038 A 
HETATM   22  C   UNL     1       3.011  28.744  47.659  1.00  0.00     0.048 A 
HETATM   23  C   UNL     1       2.026  29.328  46.889  1.00  0.00     0.105 A 
HETATM   24  C   UNL     1       0.865  28.664  46.567  1.00  0.00     0.105 A 
HETATM   25  O   UNL     1       2.057  30.591  46.384  1.00  0.00    -0.323 OA
HETATM   26  O   UNL     1       0.021  29.424  45.820  1.00  0.00    -0.323 OA
HETATM   27  C   UNL     1       0.625  27.378  46.992  1.00  0.00     0.040 A 
HETATM   28  C   UNL     1       0.764  30.658  45.745  1.00  0.00     0.352 A 
HETATM   29  C   UNL     1       1.600  26.764  47.783  1.00  0.00     0.012 A 
ENDBRANCH  20  21
ENDBRANCH  17  20
ENDBRANCH  15  16
ENDBRANCH  12  15
BRANCH   6  30
HETATM   30  S   UNL     1       6.595  28.016  56.975  1.00  0.00    -0.082 SA
BRANCH  30  31
HETATM   31  C   UNL     1       8.065  28.917  56.434  1.00  0.00     0.185 C 
BRANCH  31  32
HETATM   32  C   UNL     1       8.694  29.610  57.629  1.00  0.00     0.231 C 
HETATM   33  N   UNL     1       7.762  30.022  58.570  1.00  0.00    -0.327 N 
HETATM   34  H   UNL     1       6.791  29.795  58.386  1.00  0.00     0.169 HD
HETATM   35  O   UNL     1       9.909  29.773  57.691  1.00  0.00    -0.272 OA
BRANCH  33  36
HETATM   36  C   UNL     1       8.017  30.693  59.782  1.00  0.00     0.034 A 
HETATM   37  C   UNL     1       9.093  30.401  60.625  1.00  0.00     0.032 A 
HETATM   38  C   UNL     1       9.276  31.113  61.815  1.00  0.00     0.044 A 
HETATM   39  C   UNL     1       8.386  32.123  62.153  1.00  0.00     0.116 A 
HETATM   40  F   UNL     1       8.564  32.810  63.289  1.00  0.00    -0.206 F 
HETATM   41  C   UNL     1       7.312  32.430  61.330  1.00  0.00     0.044 A 
HETATM   42  C   UNL     1       7.121  31.709  60.148  1.00  0.00     0.032 A 
ENDBRANCH  33  36
ENDBRANCH  31  32
ENDBRANCH  30  31
ENDBRANCH   6  30
TORSDOF 8
ENDMDL
MODEL 9
REMARK VINA RESULT:     -10.5      4.595     10.770
REMARK  8 active torsions:
REMARK  status: ('A' for Active; 'I' for Inactive)
REMARK    1  A    between atoms: C_6  and  S_7 
REMARK    2  A    between atoms: S_7  and  C_8 
REMARK    3  A    between atoms: C_8  and  C_9 
REMARK       I    between atoms: C_9  and  N_10 
REMARK    4  A    between atoms: N_10  and  C_11 
REMARK    5  A    between atoms: C_24  and  C_25 
REMARK    6  A    between atoms: C_25  and  C_26 
REMARK       I    between atoms: C_26  and  N_27 
REMARK    7  A    between atoms: N_27  and  C_28 
REMARK    8  A    between atoms: C_28  and  C_29 
ROOT
HETATM    1  C   UNL     1       3.401  32.721  56.424  1.00  0.00     0.001 A 
HETATM    2  C   UNL     1       4.520  32.162  57.041  1.00  0.00     0.018 A 
HETATM    3  C   UNL     1       4.946  30.891  56.652  1.00  0.00     0.039 A 
HETATM    4  C   UNL     1       4.274  30.161  55.661  1.00  0.00     0.073 A 
HETATM    5  N   UNL     1       4.711  28.895  55.225  1.00  0.00    -0.223 NA
HETATM    6  C   UNL     1       5.749  28.385  55.808  1.00  0.00     0.178 C 
HETATM    7  N   UNL     1       6.396  28.986  56.873  1.00  0.00    -0.241 N 
HETATM    8  C   UNL     1       6.099  30.243  57.280  1.00  0.00     0.147 C 
HETATM    9  N   UNL     1       6.856  30.771  58.192  1.00  0.00    -0.256 NA
HETATM   10  C   UNL     1       7.369  28.501  57.709  1.00  0.00     0.257 C 
HETATM   11  O   UNL     1       7.704  27.340  57.882  1.00  0.00    -0.270 OA
HETATM   12  C   UNL     1       7.849  29.697  58.515  1.00  0.00     0.211 C 
HETATM   13  C   UNL     1       3.159  30.736  55.052  1.00  0.00     0.032 A 
HETATM   14  C   UNL     1       2.723  32.010  55.432  1.00  0.00     0.002 A 
ENDROOT
BRANCH  12  15
HETATM   15  C   UNL     1       9.248  30.120  58.083  1.00  0.00     0.140 C 
BRANCH  15  16
HETATM   16  C   UNL     1       9.720  31.205  59.025  1.00  0.00     0.220 C 
HETATM   17  N   UNL     1       9.460  30.951  60.351  1.00  0.00    -0.357 N 
HETATM   18  H   UNL     1       9.212  30.021  60.661  1.00  0.00     0.162 HD
HETATM   19  O   UNL     1      10.196  32.254  58.602  1.00  0.00    -0.274 OA
BRANCH  17  20
HETATM   20  C   UNL     1       9.469  32.004  61.342  1.00  0.00     0.161 C 
BRANCH  20  21
HETATM   21  C   UNL     1       8.128  32.212  61.996  1.00  0.00    -0.038 A 
HETATM   22  C   UNL     1       6.945  32.120  61.243  1.00  0.00     0.048 A 
HETATM   23  C   UNL     1       5.750  32.402  61.874  1.00  0.00     0.105 A 
HETATM   24  C   UNL     1       5.694  32.751  63.203  1.00  0.00     0.105 A 
HETATM   25  O   UNL     1       4.522  32.393  61.289  1.00  0.00    -0.323 OA
HETATM   26  O   UNL     1       4.426  33.006  63.621  1.00  0.00    -0.323 OA
HETATM   27  C   UNL     1       6.828  32.834  63.979  1.00  0.00     0.040 A 
HETATM   28  C   UNL     1       3.694  32.820  62.392  1.00  0.00     0.352 A 
HETATM   29  C   UNL     1       8.054  32.566  63.364  1.00  0.00     0.012 A 
ENDBRANCH  20  21
ENDBRANCH  17  20
ENDBRANCH  15  16
ENDBRANCH  12  15
BRANCH   6  30
HETATM   30  S   UNL     1       6.432  26.926  55.147  1.00  0.00    -0.082 SA
BRANCH  30  31
HETATM   31  C   UNL     1       6.738  27.487  53.456  1.00  0.00     0.185 C 
BRANCH  31  32
HETATM   32  C   UNL     1       5.675  26.911  52.539  1.00  0.00     0.231 C 
HETATM   33  N   UNL     1       5.499  27.651  51.379  1.00  0.00    -0.327 N 
HETATM   34  H   UNL     1       6.103  28.455  51.251  1.00  0.00     0.169 HD
HETATM   35  O   UNL     1       5.057  25.898  52.855  1.00  0.00    -0.272 OA
BRANCH  33  36
HETATM   36  C   UNL     1       4.594  27.389  50.332  1.00  0.00     0.034 A 
HETATM   37  C   UNL     1       4.647  26.252  49.520  1.00  0.00     0.032 A 
HETATM   38  C   UNL     1       3.711  26.066  48.498  1.00  0.00     0.044 A 
HETATM   39  C   UNL     1       2.718  27.014  48.296  1.00  0.00     0.116 A 
HETATM   40  F   UNL     1       1.818  26.834  47.321  1.00  0.00    -0.206 F 
HETATM   41  C   UNL     1       2.647  28.150  49.091  1.00  0.00     0.044 A 
HETATM   42  C   UNL     1       3.591  28.342  50.103  1.00  0.00     0.032 A 
ENDBRANCH  33  36
ENDBRANCH  31  32
ENDBRANCH  30  31
ENDBRANCH   6  30
TORSDOF 8
ENDMDL
MODEL 10
REMARK VINA RESULT:     -10.4      1.861      2.684
REMARK  8 active torsions:
REMARK  status: ('A' for Active; 'I' for Inactive)
REMARK    1  A    between atoms: C_6  and  S_7 
REMARK    2  A    between atoms: S_7  and  C_8 
REMARK    3  A    between atoms: C_8  and  C_9 
REMARK       I    between atoms: C_9  and  N_10 
REMARK    4  A    between atoms: N_10  and  C_11 
REMARK    5  A    between atoms: C_24  and  C_25 
REMARK    6  A    between atoms: C_25  and  C_26 
REMARK       I    between atoms: C_26  and  N_27 
REMARK    7  A    between atoms: N_27  and  C_28 
REMARK    8  A    between atoms: C_28  and  C_29 
ROOT
HETATM    1  C   UNL     1       9.940  30.738  59.101  1.00  0.00     0.001 A 
HETATM    2  C   UNL     1       8.841  30.283  58.374  1.00  0.00     0.018 A 
HETATM    3  C   UNL     1       7.609  30.919  58.534  1.00  0.00     0.039 A 
HETATM    4  C   UNL     1       7.449  32.001  59.411  1.00  0.00     0.073 A 
HETATM    5  N   UNL     1       6.225  32.683  59.558  1.00  0.00    -0.223 NA
HETATM    6  C   UNL     1       5.211  32.248  58.880  1.00  0.00     0.178 C 
HETATM    7  N   UNL     1       5.255  31.117  58.086  1.00  0.00    -0.241 N 
HETATM    8  C   UNL     1       6.414  30.470  57.817  1.00  0.00     0.147 C 
HETATM    9  N   UNL     1       6.374  29.507  56.949  1.00  0.00    -0.256 NA
HETATM   10  C   UNL     1       4.244  30.426  57.467  1.00  0.00     0.257 C 
HETATM   11  O   UNL     1       3.046  30.487  57.688  1.00  0.00    -0.270 OA
HETATM   12  C   UNL     1       4.932  29.430  56.548  1.00  0.00     0.211 C 
HETATM   13  C   UNL     1       8.559  32.447  60.128  1.00  0.00     0.032 A 
HETATM   14  C   UNL     1       9.799  31.818  59.975  1.00  0.00     0.002 A 
ENDROOT
BRANCH  12  15
HETATM   15  C   UNL     1       4.766  29.830  55.087  1.00  0.00     0.140 C 
BRANCH  15  16
HETATM   16  C   UNL     1       4.607  28.568  54.270  1.00  0.00     0.220 C 
HETATM   17  N   UNL     1       5.580  27.622  54.502  1.00  0.00    -0.357 N 
HETATM   18  H   UNL     1       6.175  27.682  55.317  1.00  0.00     0.162 HD
HETATM   19  O   UNL     1       3.738  28.468  53.410  1.00  0.00    -0.274 OA
BRANCH  17  20
HETATM   20  C   UNL     1       5.832  26.548  53.568  1.00  0.00     0.161 C 
BRANCH  20  21
HETATM   21  C   UNL     1       6.422  25.325  54.219  1.00  0.00    -0.038 A 
HETATM   22  C   UNL     1       6.823  24.225  53.442  1.00  0.00     0.048 A 
HETATM   23  C   UNL     1       7.279  23.099  54.095  1.00  0.00     0.105 A 
HETATM   24  C   UNL     1       7.360  23.037  55.467  1.00  0.00     0.105 A 
HETATM   25  O   UNL     1       7.673  21.940  53.501  1.00  0.00    -0.323 OA
HETATM   26  O   UNL     1       7.815  21.833  55.907  1.00  0.00    -0.323 OA
HETATM   27  C   UNL     1       6.995  24.098  56.263  1.00  0.00     0.040 A 
HETATM   28  C   UNL     1       7.969  21.130  54.658  1.00  0.00     0.352 A 
HETATM   29  C   UNL     1       6.517  25.249  55.629  1.00  0.00     0.012 A 
ENDBRANCH  20  21
ENDBRANCH  17  20
ENDBRANCH  15  16
ENDBRANCH  12  15
BRANCH   6  30
HETATM   30  S   UNL     1       3.751  33.197  58.880  1.00  0.00    -0.082 SA
BRANCH  30  31
HETATM   31  C   UNL     1       3.067  32.684  60.471  1.00  0.00     0.185 C 
BRANCH  31  32
HETATM   32  C   UNL     1       3.752  33.458  61.583  1.00  0.00     0.231 C 
HETATM   33  N   UNL     1       4.484  32.648  62.438  1.00  0.00    -0.327 N 
HETATM   34  H   UNL     1       4.514  31.658  62.221  1.00  0.00     0.169 HD
HETATM   35  O   UNL     1       3.621  34.676  61.670  1.00  0.00    -0.272 OA
BRANCH  33  36
HETATM   36  C   UNL     1       5.228  33.052  63.564  1.00  0.00     0.034 A 
HETATM   37  C   UNL     1       4.660  33.573  64.730  1.00  0.00     0.032 A 
HETATM   38  C   UNL     1       5.469  33.955  65.805  1.00  0.00     0.044 A 
HETATM   39  C   UNL     1       6.845  33.804  65.714  1.00  0.00     0.116 A 
HETATM   40  F   UNL     1       7.620  34.163  66.746  1.00  0.00    -0.206 F 
HETATM   41  C   UNL     1       7.430  33.288  64.566  1.00  0.00     0.044 A 
HETATM   42  C   UNL     1       6.622  32.921  63.487  1.00  0.00     0.032 A 
ENDBRANCH  33  36
ENDBRANCH  31  32
ENDBRANCH  30  31
ENDBRANCH   6  30
TORSDOF 8
ENDMDL
