MODEL 1
REMARK VINA RESULT:     -10.8      0.000      0.000
REMARK  8 active torsions:
REMARK  status: ('A' for Active; 'I' for Inactive)
REMARK    1  A    between atoms: C_2  and  C_3 
REMARK    2  A    between atoms: C_3  and  C_4 
REMARK    3  A    between atoms: C_7  and  N_8 
REMARK       I    between atoms: N_8  and  C_9 
REMARK    4  A    between atoms: C_9  and  C_10 
REMARK    5  A    between atoms: C_13  and  N_14 
REMARK       I    between atoms: N_14  and  C_15 
REMARK    6  A    between atoms: C_15  and  C_16 
REMARK    7  A    between atoms: C_16  and  C_17 
REMARK    8  A    between atoms: C_19  and  N_20 
ROOT
HETATM    1  C   UNL     1       7.556  30.994  59.115  1.00  0.00     0.032 A 
HETATM    2  C   UNL     1       8.515  30.002  58.878  1.00  0.00     0.019 A 
HETATM    3  C   UNL     1       8.411  29.167  57.757  1.00  0.00     0.030 A 
HETATM    4  C   UNL     1       7.333  29.286  56.877  1.00  0.00     0.034 A 
HETATM    5  C   UNL     1       6.352  30.248  57.136  1.00  0.00     0.030 A 
HETATM    6  C   UNL     1       6.468  31.104  58.240  1.00  0.00     0.019 A 
ENDROOT
BRANCH   4   7
HETATM    7  N   UNL     1       7.147  28.449  55.755  1.00  0.00    -0.327 N 
HETATM    8  C   UNL     1       6.015  27.714  55.465  1.00  0.00     0.223 C 
HETATM    9  O   UNL     1       5.032  27.619  56.200  1.00  0.00    -0.273 OA
HETATM   10  H   UNL     1       7.978  28.318  55.193  1.00  0.00     0.169 HD
BRANCH   8  11
HETATM   11  C   UNL     1       5.964  27.053  54.092  1.00  0.00     0.128 C 
BRANCH  11  12
HETATM   12  C   UNL     1       5.830  25.541  53.980  1.00  0.00     0.158 A 
HETATM   13  S   UNL     1       6.618  24.562  55.280  1.00  0.00    -0.077 SA
HETATM   14  C   UNL     1       7.632  23.754  54.098  1.00  0.00     0.168 A 
HETATM   15  N   UNL     1       7.452  24.123  52.871  1.00  0.00    -0.189 NA
HETATM   16  C   UNL     1       6.435  25.027  52.695  1.00  0.00     0.260 A 
HETATM   17  O   UNL     1       6.086  25.438  51.595  1.00  0.00    -0.270 OA
BRANCH  14  18
HETATM   18  N   UNL     1       8.584  22.839  54.498  1.00  0.00    -0.360 N 
HETATM   19  C   UNL     1       8.722  22.354  55.877  1.00  0.00     0.125 C 
HETATM   20  C   UNL     1       7.872  21.095  56.055  1.00  0.00     0.020 C 
HETATM   21  C   UNL     1       8.253  20.023  55.031  1.00  0.00     0.003 C 
HETATM   22  C   UNL     1       8.251  20.583  53.607  1.00  0.00     0.020 C 
HETATM   23  C   UNL     1       9.088  21.860  53.519  1.00  0.00     0.125 C 
ENDBRANCH  14  18
ENDBRANCH  11  12
ENDBRANCH   8  11
ENDBRANCH   4   7
BRANCH   1  24
HETATM   24  C   UNL     1       7.617  31.915  60.295  1.00  0.00     0.256 C 
HETATM   25  N   UNL     1       6.894  31.517  61.406  1.00  0.00    -0.323 N 
HETATM   26  H   UNL     1       6.463  30.605  61.378  1.00  0.00     0.169 HD
HETATM   27  O   UNL     1       8.302  32.929  60.200  1.00  0.00    -0.267 OA
BRANCH  25  28
HETATM   28  C   UNL     1       6.703  32.228  62.611  1.00  0.00     0.035 A 
HETATM   29  C   UNL     1       7.737  32.700  63.417  1.00  0.00     0.030 A 
HETATM   30  C   UNL     1       7.455  33.413  64.590  1.00  0.00     0.010 A 
HETATM   31  C   UNL     1       6.135  33.682  64.973  1.00  0.00    -0.054 A 
HETATM   32  C   UNL     1       5.100  33.202  64.162  1.00  0.00     0.010 A 
HETATM   33  C   UNL     1       5.381  32.479  62.998  1.00  0.00     0.030 A 
BRANCH  31  34
HETATM   34  C   UNL     1       5.807  34.463  66.235  1.00  0.00     0.014 C 
HETATM   35  C   UNL     1       6.845  34.198  67.334  1.00  0.00     0.015 C 
BRANCH  34  36
HETATM   36  C   UNL     1       4.387  34.173  66.760  1.00  0.00     0.004 C 
HETATM   37  C   UNL     1       3.439  35.356  66.601  1.00  0.00     0.006 C 
ENDBRANCH  34  36
ENDBRANCH  31  34
ENDBRANCH  25  28
ENDBRANCH   1  24
TORSDOF 8
ENDMDL
MODEL 2
REMARK VINA RESULT:     -10.4      3.348     11.973
REMARK  8 active torsions:
REMARK  status: ('A' for Active; 'I' for Inactive)
REMARK    1  A    between atoms: C_2  and  C_3 
REMARK    2  A    between atoms: C_3  and  C_4 
REMARK    3  A    between atoms: C_7  and  N_8 
REMARK       I    between atoms: N_8  and  C_9 
REMARK    4  A    between atoms: C_9  and  C_10 
REMARK    5  A    between atoms: C_13  and  N_14 
REMARK       I    between atoms: N_14  and  C_15 
REMARK    6  A    between atoms: C_15  and  C_16 
REMARK    7  A    between atoms: C_16  and  C_17 
REMARK    8  A    between atoms: C_19  and  N_20 
ROOT
HETATM    1  C   UNL     1       6.914  29.450  57.257  1.00  0.00     0.032 A 
HETATM    2  C   UNL     1       5.935  29.962  56.397  1.00  0.00     0.019 A 
HETATM    3  C   UNL     1       5.344  31.206  56.654  1.00  0.00     0.030 A 
HETATM    4  C   UNL     1       5.695  31.942  57.788  1.00  0.00     0.034 A 
HETATM    5  C   UNL     1       6.642  31.413  58.670  1.00  0.00     0.030 A 
HETATM    6  C   UNL     1       7.255  30.182  58.401  1.00  0.00     0.019 A 
ENDROOT
BRANCH   4   7
HETATM    7  N   UNL     1       5.107  33.181  58.126  1.00  0.00    -0.327 N 
HETATM    8  C   UNL     1       3.849  33.366  58.664  1.00  0.00     0.223 C 
HETATM    9  O   UNL     1       3.022  32.471  58.843  1.00  0.00    -0.273 OA
HETATM   10  H   UNL     1       5.643  33.987  57.835  1.00  0.00     0.169 HD
BRANCH   8  11
HETATM   11  C   UNL     1       3.512  34.774  59.143  1.00  0.00     0.128 C 
BRANCH  11  12
HETATM   12  C   UNL     1       3.605  35.116  60.622  1.00  0.00     0.158 A 
HETATM   13  S   UNL     1       5.140  34.662  61.462  1.00  0.00    -0.077 SA
HETATM   14  C   UNL     1       4.261  33.632  62.578  1.00  0.00     0.168 A 
HETATM   15  N   UNL     1       2.980  33.591  62.399  1.00  0.00    -0.189 NA
HETATM   16  C   UNL     1       2.518  34.429  61.416  1.00  0.00     0.260 A 
HETATM   17  O   UNL     1       1.329  34.564  61.154  1.00  0.00    -0.270 OA
BRANCH  14  18
HETATM   18  N   UNL     1       4.933  32.889  63.526  1.00  0.00    -0.360 N 
HETATM   19  C   UNL     1       5.980  31.910  63.205  1.00  0.00     0.125 C 
HETATM   20  C   UNL     1       7.341  32.606  63.222  1.00  0.00     0.020 C 
HETATM   21  C   UNL     1       7.593  33.293  64.567  1.00  0.00     0.003 C 
HETATM   22  C   UNL     1       6.424  34.197  64.962  1.00  0.00     0.020 C 
HETATM   23  C   UNL     1       5.096  33.442  64.882  1.00  0.00     0.125 C 
ENDBRANCH  14  18
ENDBRANCH  11  12
ENDBRANCH   8  11
ENDBRANCH   4   7
BRANCH   1  24
HETATM   24  C   UNL     1       7.580  28.127  57.032  1.00  0.00     0.256 C 
HETATM   25  N   UNL     1       6.809  27.166  56.401  1.00  0.00    -0.323 N 
HETATM   26  H   UNL     1       5.903  27.448  56.058  1.00  0.00     0.169 HD
HETATM   27  O   UNL     1       8.743  27.997  57.402  1.00  0.00    -0.267 OA
BRANCH  25  28
HETATM   28  C   UNL     1       7.149  25.819  56.147  1.00  0.00     0.035 A 
HETATM   29  C   UNL     1       7.646  24.939  57.106  1.00  0.00     0.030 A 
HETATM   30  C   UNL     1       7.941  23.612  56.769  1.00  0.00     0.010 A 
HETATM   31  C   UNL     1       7.731  23.133  55.470  1.00  0.00    -0.054 A 
HETATM   32  C   UNL     1       7.236  24.022  54.508  1.00  0.00     0.010 A 
HETATM   33  C   UNL     1       6.954  25.351  54.842  1.00  0.00     0.030 A 
BRANCH  31  34
HETATM   34  C   UNL     1       8.034  21.694  55.085  1.00  0.00     0.014 C 
HETATM   35  C   UNL     1       8.745  20.954  56.227  1.00  0.00     0.015 C 
BRANCH  34  36
HETATM   36  C   UNL     1       8.856  21.587  53.785  1.00  0.00     0.004 C 
HETATM   37  C   UNL     1       8.391  20.456  52.876  1.00  0.00     0.006 C 
ENDBRANCH  34  36
ENDBRANCH  31  34
ENDBRANCH  25  28
ENDBRANCH   1  24
TORSDOF 8
ENDMDL
MODEL 3
REMARK VINA RESULT:     -10.3      3.318     11.995
REMARK  8 active torsions:
REMARK  status: ('A' for Active; 'I' for Inactive)
REMARK    1  A    between atoms: C_2  and  C_3 
REMARK    2  A    between atoms: C_3  and  C_4 
REMARK    3  A    between atoms: C_7  and  N_8 
REMARK       I    between atoms: N_8  and  C_9 
REMARK    4  A    between atoms: C_9  and  C_10 
REMARK    5  A    between atoms: C_13  and  N_14 
REMARK       I    between atoms: N_14  and  C_15 
REMARK    6  A    between atoms: C_15  and  C_16 
REMARK    7  A    between atoms: C_16  and  C_17 
REMARK    8  A    between atoms: C_19  and  N_20 
ROOT
HETATM    1  C   UNL     1       6.414  29.560  56.311  1.00  0.00     0.032 A 
HETATM    2  C   UNL     1       6.903  30.160  57.477  1.00  0.00     0.019 A 
HETATM    3  C   UNL     1       6.261  31.281  58.022  1.00  0.00     0.030 A 
HETATM    4  C   UNL     1       5.145  31.839  57.396  1.00  0.00     0.034 A 
HETATM    5  C   UNL     1       4.681  31.266  56.207  1.00  0.00     0.030 A 
HETATM    6  C   UNL     1       5.303  30.129  55.675  1.00  0.00     0.019 A 
ENDROOT
BRANCH   4   7
HETATM    7  N   UNL     1       4.480  32.991  57.869  1.00  0.00    -0.327 N 
HETATM    8  C   UNL     1       3.457  33.018  58.796  1.00  0.00     0.223 C 
HETATM    9  O   UNL     1       2.919  32.020  59.279  1.00  0.00    -0.273 OA
HETATM   10  H   UNL     1       4.729  33.842  57.384  1.00  0.00     0.169 HD
BRANCH   8  11
HETATM   11  C   UNL     1       3.038  34.391  59.310  1.00  0.00     0.128 C 
BRANCH  11  12
HETATM   12  C   UNL     1       3.433  34.832  60.711  1.00  0.00     0.158 A 
HETATM   13  S   UNL     1       5.055  34.292  61.301  1.00  0.00    -0.077 SA
HETATM   14  C   UNL     1       4.317  33.439  62.645  1.00  0.00     0.168 A 
HETATM   15  N   UNL     1       3.027  33.512  62.702  1.00  0.00    -0.189 NA
HETATM   16  C   UNL     1       2.460  34.316  61.746  1.00  0.00     0.260 A 
HETATM   17  O   UNL     1       1.259  34.547  61.690  1.00  0.00    -0.270 OA
BRANCH  14  18
HETATM   18  N   UNL     1       5.090  32.706  63.521  1.00  0.00    -0.360 N 
HETATM   19  C   UNL     1       6.072  31.699  63.098  1.00  0.00     0.125 C 
HETATM   20  C   UNL     1       7.436  32.368  62.926  1.00  0.00     0.020 C 
HETATM   21  C   UNL     1       7.866  33.083  64.211  1.00  0.00     0.003 C 
HETATM   22  C   UNL     1       6.771  34.019  64.725  1.00  0.00     0.020 C 
HETATM   23  C   UNL     1       5.431  33.288  64.831  1.00  0.00     0.125 C 
ENDBRANCH  14  18
ENDBRANCH  11  12
ENDBRANCH   8  11
ENDBRANCH   4   7
BRANCH   1  24
HETATM   24  C   UNL     1       7.058  28.361  55.684  1.00  0.00     0.256 C 
HETATM   25  N   UNL     1       6.383  27.164  55.845  1.00  0.00    -0.323 N 
HETATM   26  H   UNL     1       5.475  27.197  56.283  1.00  0.00     0.169 HD
HETATM   27  O   UNL     1       8.108  28.526  55.072  1.00  0.00    -0.267 OA
BRANCH  25  28
HETATM   28  C   UNL     1       6.802  25.877  55.441  1.00  0.00     0.035 A 
HETATM   29  C   UNL     1       6.438  25.274  54.239  1.00  0.00     0.030 A 
HETATM   30  C   UNL     1       6.915  23.998  53.911  1.00  0.00     0.010 A 
HETATM   31  C   UNL     1       7.777  23.305  54.771  1.00  0.00    -0.054 A 
HETATM   32  C   UNL     1       8.136  23.914  55.979  1.00  0.00     0.010 A 
HETATM   33  C   UNL     1       7.649  25.183  56.313  1.00  0.00     0.030 A 
BRANCH  31  34
HETATM   34  C   UNL     1       8.315  21.925  54.430  1.00  0.00     0.014 C 
HETATM   35  C   UNL     1       7.934  21.522  52.999  1.00  0.00     0.015 C 
BRANCH  34  36
HETATM   36  C   UNL     1       7.857  20.845  55.430  1.00  0.00     0.004 C 
HETATM   37  C   UNL     1       8.972  20.378  56.356  1.00  0.00     0.006 C 
ENDBRANCH  34  36
ENDBRANCH  31  34
ENDBRANCH  25  28
ENDBRANCH   1  24
TORSDOF 8
ENDMDL
MODEL 4
REMARK VINA RESULT:      -9.8      4.335     13.437
REMARK  8 active torsions:
REMARK  status: ('A' for Active; 'I' for Inactive)
REMARK    1  A    between atoms: C_2  and  C_3 
REMARK    2  A    between atoms: C_3  and  C_4 
REMARK    3  A    between atoms: C_7  and  N_8 
REMARK       I    between atoms: N_8  and  C_9 
REMARK    4  A    between atoms: C_9  and  C_10 
REMARK    5  A    between atoms: C_13  and  N_14 
REMARK       I    between atoms: N_14  and  C_15 
REMARK    6  A    between atoms: C_15  and  C_16 
REMARK    7  A    between atoms: C_16  and  C_17 
REMARK    8  A    between atoms: C_19  and  N_20 
ROOT
HETATM    1  C   UNL     1       7.953  29.924  58.528  1.00  0.00     0.032 A 
HETATM    2  C   UNL     1       6.817  30.711  58.307  1.00  0.00     0.019 A 
HETATM    3  C   UNL     1       6.477  31.735  59.202  1.00  0.00     0.030 A 
HETATM    4  C   UNL     1       7.243  31.967  60.345  1.00  0.00     0.034 A 
HETATM    5  C   UNL     1       8.355  31.154  60.589  1.00  0.00     0.030 A 
HETATM    6  C   UNL     1       8.714  30.148  59.682  1.00  0.00     0.019 A 
ENDROOT
BRANCH   4   7
HETATM    7  N   UNL     1       6.931  32.952  61.307  1.00  0.00    -0.327 N 
HETATM    8  C   UNL     1       6.174  32.768  62.447  1.00  0.00     0.223 C 
HETATM    9  O   UNL     1       5.586  31.726  62.739  1.00  0.00    -0.273 OA
HETATM   10  H   UNL     1       7.215  33.887  61.049  1.00  0.00     0.169 HD
BRANCH   8  11
HETATM   11  C   UNL     1       6.148  33.922  63.443  1.00  0.00     0.128 C 
BRANCH  11  12
HETATM   12  C   UNL     1       5.034  34.956  63.381  1.00  0.00     0.158 A 
HETATM   13  S   UNL     1       5.116  36.152  62.028  1.00  0.00    -0.077 SA
HETATM   14  C   UNL     1       5.196  37.484  63.168  1.00  0.00     0.168 A 
HETATM   15  N   UNL     1       5.168  37.143  64.416  1.00  0.00    -0.189 NA
HETATM   16  C   UNL     1       4.995  35.800  64.634  1.00  0.00     0.260 A 
HETATM   17  O   UNL     1       4.884  35.310  65.751  1.00  0.00    -0.270 OA
BRANCH  14  18
HETATM   18  N   UNL     1       5.338  38.781  62.723  1.00  0.00    -0.360 N 
HETATM   19  C   UNL     1       5.716  39.904  63.591  1.00  0.00     0.125 C 
HETATM   20  C   UNL     1       7.238  40.054  63.585  1.00  0.00     0.020 C 
HETATM   21  C   UNL     1       7.770  40.227  62.159  1.00  0.00     0.003 C 
HETATM   22  C   UNL     1       7.246  39.131  61.228  1.00  0.00     0.020 C 
HETATM   23  C   UNL     1       5.723  39.017  61.321  1.00  0.00     0.125 C 
ENDBRANCH  14  18
ENDBRANCH  11  12
ENDBRANCH   8  11
ENDBRANCH   4   7
BRANCH   1  24
HETATM   24  C   UNL     1       8.366  28.818  57.605  1.00  0.00     0.256 C 
HETATM   25  N   UNL     1       7.493  27.746  57.525  1.00  0.00    -0.323 N 
HETATM   26  H   UNL     1       6.612  27.826  58.010  1.00  0.00     0.169 HD
HETATM   27  O   UNL     1       9.418  28.945  56.988  1.00  0.00    -0.267 OA
BRANCH  25  28
HETATM   28  C   UNL     1       7.672  26.541  56.812  1.00  0.00     0.035 A 
HETATM   29  C   UNL     1       7.310  26.355  55.479  1.00  0.00     0.030 A 
HETATM   30  C   UNL     1       7.540  25.128  54.844  1.00  0.00     0.010 A 
HETATM   31  C   UNL     1       8.151  24.066  55.524  1.00  0.00    -0.054 A 
HETATM   32  C   UNL     1       8.508  24.256  56.864  1.00  0.00     0.010 A 
HETATM   33  C   UNL     1       8.267  25.477  57.501  1.00  0.00     0.030 A 
BRANCH  31  34
HETATM   34  C   UNL     1       8.420  22.729  54.851  1.00  0.00     0.014 C 
HETATM   35  C   UNL     1       7.930  22.734  53.396  1.00  0.00     0.015 C 
BRANCH  34  36
HETATM   36  C   UNL     1       7.804  21.543  55.619  1.00  0.00     0.004 C 
HETATM   37  C   UNL     1       8.850  20.598  56.196  1.00  0.00     0.006 C 
ENDBRANCH  34  36
ENDBRANCH  31  34
ENDBRANCH  25  28
ENDBRANCH   1  24
TORSDOF 8
ENDMDL
MODEL 5
REMARK VINA RESULT:      -9.7      1.538      2.164
REMARK  8 active torsions:
REMARK  status: ('A' for Active; 'I' for Inactive)
REMARK    1  A    between atoms: C_2  and  C_3 
REMARK    2  A    between atoms: C_3  and  C_4 
REMARK    3  A    between atoms: C_7  and  N_8 
REMARK       I    between atoms: N_8  and  C_9 
REMARK    4  A    between atoms: C_9  and  C_10 
REMARK    5  A    between atoms: C_13  and  N_14 
REMARK       I    between atoms: N_14  and  C_15 
REMARK    6  A    between atoms: C_15  and  C_16 
REMARK    7  A    between atoms: C_16  and  C_17 
REMARK    8  A    between atoms: C_19  and  N_20 
ROOT
HETATM    1  C   UNL     1       6.472  32.275  60.336  1.00  0.00     0.032 A 
HETATM    2  C   UNL     1       5.643  32.327  59.210  1.00  0.00     0.019 A 
HETATM    3  C   UNL     1       5.895  31.505  58.103  1.00  0.00     0.030 A 
HETATM    4  C   UNL     1       6.995  30.645  58.090  1.00  0.00     0.034 A 
HETATM    5  C   UNL     1       7.848  30.623  59.197  1.00  0.00     0.030 A 
HETATM    6  C   UNL     1       7.583  31.422  60.317  1.00  0.00     0.019 A 
ENDROOT
BRANCH   4   7
HETATM    7  N   UNL     1       7.329  29.823  56.991  1.00  0.00    -0.327 N 
HETATM    8  C   UNL     1       7.726  28.503  57.052  1.00  0.00     0.223 C 
HETATM    9  O   UNL     1       7.931  27.878  58.093  1.00  0.00    -0.273 OA
HETATM   10  H   UNL     1       7.372  30.311  56.107  1.00  0.00     0.169 HD
BRANCH   8  11
HETATM   11  C   UNL     1       7.829  27.759  55.725  1.00  0.00     0.128 C 
BRANCH  11  12
HETATM   12  C   UNL     1       7.169  26.399  55.562  1.00  0.00     0.158 A 
HETATM   13  S   UNL     1       7.939  25.017  56.436  1.00  0.00    -0.077 SA
HETATM   14  C   UNL     1       8.213  24.171  54.924  1.00  0.00     0.168 A 
HETATM   15  N   UNL     1       7.802  24.790  53.864  1.00  0.00    -0.189 NA
HETATM   16  C   UNL     1       7.144  25.968  54.114  1.00  0.00     0.260 A 
HETATM   17  O   UNL     1       6.636  26.651  53.234  1.00  0.00    -0.270 OA
BRANCH  14  18
HETATM   18  N   UNL     1       8.876  22.962  54.905  1.00  0.00    -0.360 N 
HETATM   19  C   UNL     1       8.791  21.967  55.982  1.00  0.00     0.125 C 
HETATM   20  C   UNL     1       7.645  21.000  55.683  1.00  0.00     0.020 C 
HETATM   21  C   UNL     1       7.819  20.344  54.310  1.00  0.00     0.003 C 
HETATM   22  C   UNL     1       8.058  21.388  53.217  1.00  0.00     0.020 C 
HETATM   23  C   UNL     1       9.190  22.341  53.607  1.00  0.00     0.125 C 
ENDBRANCH  14  18
ENDBRANCH  11  12
ENDBRANCH   8  11
ENDBRANCH   4   7
BRANCH   1  24
HETATM   24  C   UNL     1       6.250  33.129  61.548  1.00  0.00     0.256 C 
HETATM   25  N   UNL     1       6.599  32.556  62.758  1.00  0.00    -0.323 N 
HETATM   26  H   UNL     1       7.058  31.658  62.734  1.00  0.00     0.169 HD
HETATM   27  O   UNL     1       5.800  34.258  61.381  1.00  0.00    -0.267 OA
BRANCH  25  28
HETATM   28  C   UNL     1       6.415  33.094  64.051  1.00  0.00     0.035 A 
HETATM   29  C   UNL     1       7.442  33.595  64.847  1.00  0.00     0.030 A 
HETATM   30  C   UNL     1       7.166  34.127  66.114  1.00  0.00     0.010 A 
HETATM   31  C   UNL     1       5.855  34.182  66.604  1.00  0.00    -0.054 A 
HETATM   32  C   UNL     1       4.827  33.674  65.802  1.00  0.00     0.010 A 
HETATM   33  C   UNL     1       5.104  33.132  64.542  1.00  0.00     0.030 A 
BRANCH  31  34
HETATM   34  C   UNL     1       5.531  34.765  67.970  1.00  0.00     0.014 C 
HETATM   35  C   UNL     1       6.766  35.430  68.594  1.00  0.00     0.015 C 
BRANCH  34  36
HETATM   36  C   UNL     1       4.941  33.719  68.937  1.00  0.00     0.004 C 
HETATM   37  C   UNL     1       5.905  33.324  70.049  1.00  0.00     0.006 C 
ENDBRANCH  34  36
ENDBRANCH  31  34
ENDBRANCH  25  28
ENDBRANCH   1  24
TORSDOF 8
ENDMDL
MODEL 6
REMARK VINA RESULT:      -9.3      3.927     12.442
REMARK  8 active torsions:
REMARK  status: ('A' for Active; 'I' for Inactive)
REMARK    1  A    between atoms: C_2  and  C_3 
REMARK    2  A    between atoms: C_3  and  C_4 
REMARK    3  A    between atoms: C_7  and  N_8 
REMARK       I    between atoms: N_8  and  C_9 
REMARK    4  A    between atoms: C_9  and  C_10 
REMARK    5  A    between atoms: C_13  and  N_14 
REMARK       I    between atoms: N_14  and  C_15 
REMARK    6  A    between atoms: C_15  and  C_16 
REMARK    7  A    between atoms: C_16  and  C_17 
REMARK    8  A    between atoms: C_19  and  N_20 
ROOT
HETATM    1  C   UNL     1       7.571  29.773  57.969  1.00  0.00     0.032 A 
HETATM    2  C   UNL     1       6.402  30.529  57.826  1.00  0.00     0.019 A 
HETATM    3  C   UNL     1       6.114  31.568  58.722  1.00  0.00     0.030 A 
HETATM    4  C   UNL     1       6.968  31.846  59.791  1.00  0.00     0.034 A 
HETATM    5  C   UNL     1       8.115  31.063  59.960  1.00  0.00     0.030 A 
HETATM    6  C   UNL     1       8.421  30.043  59.050  1.00  0.00     0.019 A 
ENDROOT
BRANCH   4   7
HETATM    7  N   UNL     1       6.714  32.849  60.752  1.00  0.00    -0.327 N 
HETATM    8  C   UNL     1       6.323  32.644  62.060  1.00  0.00     0.223 C 
HETATM    9  O   UNL     1       6.053  31.546  62.549  1.00  0.00    -0.273 OA
HETATM   10  H   UNL     1       6.727  33.789  60.382  1.00  0.00     0.169 HD
BRANCH   8  11
HETATM   11  C   UNL     1       6.314  33.868  62.969  1.00  0.00     0.128 C 
BRANCH  11  12
HETATM   12  C   UNL     1       5.022  34.639  63.196  1.00  0.00     0.158 A 
HETATM   13  S   UNL     1       3.603  34.149  62.189  1.00  0.00    -0.077 SA
HETATM   14  C   UNL     1       3.499  35.758  61.496  1.00  0.00     0.168 A 
HETATM   15  N   UNL     1       4.384  36.600  61.924  1.00  0.00    -0.189 NA
HETATM   16  C   UNL     1       5.202  36.112  62.911  1.00  0.00     0.260 A 
HETATM   17  O   UNL     1       6.054  36.789  63.472  1.00  0.00    -0.270 OA
BRANCH  14  18
HETATM   18  N   UNL     1       2.564  36.045  60.525  1.00  0.00    -0.360 N 
HETATM   19  C   UNL     1       2.439  37.356  59.873  1.00  0.00     0.125 C 
HETATM   20  C   UNL     1       3.309  37.377  58.616  1.00  0.00     0.020 C 
HETATM   21  C   UNL     1       2.941  36.230  57.670  1.00  0.00     0.003 C 
HETATM   22  C   UNL     1       2.928  34.885  58.399  1.00  0.00     0.020 C 
HETATM   23  C   UNL     1       2.071  34.956  59.664  1.00  0.00     0.125 C 
ENDBRANCH  14  18
ENDBRANCH  11  12
ENDBRANCH   8  11
ENDBRANCH   4   7
BRANCH   1  24
HETATM   24  C   UNL     1       7.931  28.652  57.042  1.00  0.00     0.256 C 
HETATM   25  N   UNL     1       7.527  27.390  57.440  1.00  0.00    -0.323 N 
HETATM   26  H   UNL     1       6.947  27.325  58.263  1.00  0.00     0.169 HD
HETATM   27  O   UNL     1       8.532  28.930  56.010  1.00  0.00    -0.267 OA
BRANCH  25  28
HETATM   28  C   UNL     1       7.807  26.157  56.812  1.00  0.00     0.035 A 
HETATM   29  C   UNL     1       8.635  25.173  57.346  1.00  0.00     0.030 A 
HETATM   30  C   UNL     1       8.844  23.969  56.660  1.00  0.00     0.010 A 
HETATM   31  C   UNL     1       8.217  23.719  55.432  1.00  0.00    -0.054 A 
HETATM   32  C   UNL     1       7.389  24.713  54.897  1.00  0.00     0.010 A 
HETATM   33  C   UNL     1       7.191  25.920  55.577  1.00  0.00     0.030 A 
BRANCH  31  34
HETATM   34  C   UNL     1       8.421  22.416  54.676  1.00  0.00     0.014 C 
HETATM   35  C   UNL     1       8.028  22.567  53.200  1.00  0.00     0.015 C 
BRANCH  34  36
HETATM   36  C   UNL     1       7.662  21.235  55.313  1.00  0.00     0.004 C 
HETATM   37  C   UNL     1       8.556  20.339  56.161  1.00  0.00     0.006 C 
ENDBRANCH  34  36
ENDBRANCH  31  34
ENDBRANCH  25  28
ENDBRANCH   1  24
TORSDOF 8
ENDMDL
MODEL 7
REMARK VINA RESULT:      -9.1      2.742      4.473
REMARK  8 active torsions:
REMARK  status: ('A' for Active; 'I' for Inactive)
REMARK    1  A    between atoms: C_2  and  C_3 
REMARK    2  A    between atoms: C_3  and  C_4 
REMARK    3  A    between atoms: C_7  and  N_8 
REMARK       I    between atoms: N_8  and  C_9 
REMARK    4  A    between atoms: C_9  and  C_10 
REMARK    5  A    between atoms: C_13  and  N_14 
REMARK       I    between atoms: N_14  and  C_15 
REMARK    6  A    between atoms: C_15  and  C_16 
REMARK    7  A    between atoms: C_16  and  C_17 
REMARK    8  A    between atoms: C_19  and  N_20 
ROOT
HETATM    1  C   UNL     1       4.662  33.178  61.559  1.00  0.00     0.032 A 
HETATM    2  C   UNL     1       3.393  33.099  60.974  1.00  0.00     0.019 A 
HETATM    3  C   UNL     1       3.197  32.362  59.799  1.00  0.00     0.030 A 
HETATM    4  C   UNL     1       4.267  31.721  59.172  1.00  0.00     0.034 A 
HETATM    5  C   UNL     1       5.544  31.834  59.732  1.00  0.00     0.030 A 
HETATM    6  C   UNL     1       5.738  32.546  60.923  1.00  0.00     0.019 A 
ENDROOT
BRANCH   4   7
HETATM    7  N   UNL     1       4.145  30.999  57.965  1.00  0.00    -0.327 N 
HETATM    8  C   UNL     1       4.712  31.336  56.752  1.00  0.00     0.223 C 
HETATM    9  O   UNL     1       5.338  32.374  56.534  1.00  0.00    -0.273 OA
HETATM   10  H   UNL     1       3.490  30.230  58.006  1.00  0.00     0.169 HD
BRANCH   8  11
HETATM   11  C   UNL     1       4.618  30.296  55.642  1.00  0.00     0.128 C 
BRANCH  11  12
HETATM   12  C   UNL     1       5.811  29.403  55.333  1.00  0.00     0.158 A 
HETATM   13  S   UNL     1       5.716  28.425  53.815  1.00  0.00    -0.077 SA
HETATM   14  C   UNL     1       5.859  26.935  54.730  1.00  0.00     0.168 A 
HETATM   15  N   UNL     1       5.968  27.083  56.011  1.00  0.00    -0.189 NA
HETATM   16  C   UNL     1       6.039  28.388  56.428  1.00  0.00     0.260 A 
HETATM   17  O   UNL     1       6.205  28.710  57.598  1.00  0.00    -0.270 OA
BRANCH  14  18
HETATM   18  N   UNL     1       5.794  25.712  54.096  1.00  0.00    -0.360 N 
HETATM   19  C   UNL     1       5.699  25.552  52.639  1.00  0.00     0.125 C 
HETATM   20  C   UNL     1       7.107  25.443  52.052  1.00  0.00     0.020 C 
HETATM   21  C   UNL     1       7.889  24.299  52.704  1.00  0.00     0.003 C 
HETATM   22  C   UNL     1       7.853  24.395  54.231  1.00  0.00     0.020 C 
HETATM   23  C   UNL     1       6.417  24.542  54.737  1.00  0.00     0.125 C 
ENDBRANCH  14  18
ENDBRANCH  11  12
ENDBRANCH   8  11
ENDBRANCH   4   7
BRANCH   1  24
HETATM   24  C   UNL     1       4.930  33.950  62.815  1.00  0.00     0.256 C 
HETATM   25  N   UNL     1       5.158  33.191  63.950  1.00  0.00    -0.323 N 
HETATM   26  H   UNL     1       5.221  32.191  63.836  1.00  0.00     0.169 HD
HETATM   27  O   UNL     1       4.944  35.175  62.746  1.00  0.00    -0.267 OA
BRANCH  25  28
HETATM   28  C   UNL     1       5.345  33.652  65.272  1.00  0.00     0.035 A 
HETATM   29  C   UNL     1       4.310  33.999  66.137  1.00  0.00     0.030 A 
HETATM   30  C   UNL     1       4.587  34.431  67.441  1.00  0.00     0.010 A 
HETATM   31  C   UNL     1       5.904  34.512  67.911  1.00  0.00    -0.054 A 
HETATM   32  C   UNL     1       6.941  34.166  67.036  1.00  0.00     0.010 A 
HETATM   33  C   UNL     1       6.664  33.747  65.730  1.00  0.00     0.030 A 
BRANCH  31  34
HETATM   34  C   UNL     1       6.226  34.967  69.324  1.00  0.00     0.014 C 
HETATM   35  C   UNL     1       7.572  35.705  69.374  1.00  0.00     0.015 C 
BRANCH  34  36
HETATM   36  C   UNL     1       6.215  33.807  70.339  1.00  0.00     0.004 C 
HETATM   37  C   UNL     1       7.601  33.468  70.873  1.00  0.00     0.006 C 
ENDBRANCH  34  36
ENDBRANCH  31  34
ENDBRANCH  25  28
ENDBRANCH   1  24
TORSDOF 8
ENDMDL
MODEL 8
REMARK VINA RESULT:      -8.9      7.242     13.068
REMARK  8 active torsions:
REMARK  status: ('A' for Active; 'I' for Inactive)
REMARK    1  A    between atoms: C_2  and  C_3 
REMARK    2  A    between atoms: C_3  and  C_4 
REMARK    3  A    between atoms: C_7  and  N_8 
REMARK       I    between atoms: N_8  and  C_9 
REMARK    4  A    between atoms: C_9  and  C_10 
REMARK    5  A    between atoms: C_13  and  N_14 
REMARK       I    between atoms: N_14  and  C_15 
REMARK    6  A    between atoms: C_15  and  C_16 
REMARK    7  A    between atoms: C_16  and  C_17 
REMARK    8  A    between atoms: C_19  and  N_20 
ROOT
HETATM    1  C   UNL     1       5.099  28.842  54.468  1.00  0.00     0.032 A 
HETATM    2  C   UNL     1       4.913  29.457  55.711  1.00  0.00     0.019 A 
HETATM    3  C   UNL     1       3.915  30.426  55.882  1.00  0.00     0.030 A 
HETATM    4  C   UNL     1       3.111  30.818  54.810  1.00  0.00     0.034 A 
HETATM    5  C   UNL     1       3.324  30.235  53.557  1.00  0.00     0.030 A 
HETATM    6  C   UNL     1       4.302  29.246  53.389  1.00  0.00     0.019 A 
ENDROOT
BRANCH   4   7
HETATM    7  N   UNL     1       2.118  31.817  54.905  1.00  0.00    -0.327 N 
HETATM    8  C   UNL     1       2.188  33.090  54.374  1.00  0.00     0.223 C 
HETATM    9  O   UNL     1       3.176  33.563  53.812  1.00  0.00    -0.273 OA
HETATM   10  H   UNL     1       1.347  31.579  55.514  1.00  0.00     0.169 HD
BRANCH   8  11
HETATM   11  C   UNL     1       0.910  33.920  54.421  1.00  0.00     0.128 C 
BRANCH  11  12
HETATM   12  C   UNL     1      -0.441  33.231  54.536  1.00  0.00     0.158 A 
HETATM   13  S   UNL     1      -1.400  33.075  53.011  1.00  0.00    -0.077 SA
HETATM   14  C   UNL     1      -2.716  34.004  53.706  1.00  0.00     0.168 A 
HETATM   15  N   UNL     1      -2.524  34.408  54.921  1.00  0.00    -0.189 NA
HETATM   16  C   UNL     1      -1.356  33.966  55.488  1.00  0.00     0.260 A 
HETATM   17  O   UNL     1      -1.044  34.200  56.649  1.00  0.00    -0.270 OA
BRANCH  14  18
HETATM   18  N   UNL     1      -3.832  34.312  52.956  1.00  0.00    -0.360 N 
HETATM   19  C   UNL     1      -4.098  33.756  51.623  1.00  0.00     0.125 C 
HETATM   20  C   UNL     1      -4.920  32.475  51.767  1.00  0.00     0.020 C 
HETATM   21  C   UNL     1      -6.212  32.733  52.549  1.00  0.00     0.003 C 
HETATM   22  C   UNL     1      -5.932  33.450  53.872  1.00  0.00     0.020 C 
HETATM   23  C   UNL     1      -5.073  34.696  53.649  1.00  0.00     0.125 C 
ENDBRANCH  14  18
ENDBRANCH  11  12
ENDBRANCH   8  11
ENDBRANCH   4   7
BRANCH   1  24
HETATM   24  C   UNL     1       6.149  27.800  54.227  1.00  0.00     0.256 C 
HETATM   25  N   UNL     1       5.770  26.494  54.485  1.00  0.00    -0.323 N 
HETATM   26  H   UNL     1       4.804  26.328  54.721  1.00  0.00     0.169 HD
HETATM   27  O   UNL     1       7.243  28.170  53.812  1.00  0.00    -0.267 OA
BRANCH  25  28
HETATM   28  C   UNL     1       6.576  25.336  54.431  1.00  0.00     0.035 A 
HETATM   29  C   UNL     1       7.425  24.922  55.455  1.00  0.00     0.030 A 
HETATM   30  C   UNL     1       8.178  23.747  55.324  1.00  0.00     0.010 A 
HETATM   31  C   UNL     1       8.086  22.955  54.172  1.00  0.00    -0.054 A 
HETATM   32  C   UNL     1       7.236  23.379  53.144  1.00  0.00     0.010 A 
HETATM   33  C   UNL     1       6.494  24.558  53.270  1.00  0.00     0.030 A 
BRANCH  31  34
HETATM   34  C   UNL     1       8.885  21.672  54.013  1.00  0.00     0.014 C 
HETATM   35  C   UNL     1       8.187  20.703  53.049  1.00  0.00     0.015 C 
BRANCH  34  36
HETATM   36  C   UNL     1       9.167  20.977  55.360  1.00  0.00     0.004 C 
HETATM   37  C   UNL     1       7.986  20.160  55.869  1.00  0.00     0.006 C 
ENDBRANCH  34  36
ENDBRANCH  31  34
ENDBRANCH  25  28
ENDBRANCH   1  24
TORSDOF 8
ENDMDL
MODEL 9
REMARK VINA RESULT:      -8.9      2.366      2.876
REMARK  8 active torsions:
REMARK  status: ('A' for Active; 'I' for Inactive)
REMARK    1  A    between atoms: C_2  and  C_3 
REMARK    2  A    between atoms: C_3  and  C_4 
REMARK    3  A    between atoms: C_7  and  N_8 
REMARK       I    between atoms: N_8  and  C_9 
REMARK    4  A    between atoms: C_9  and  C_10 
REMARK    5  A    between atoms: C_13  and  N_14 
REMARK       I    between atoms: N_14  and  C_15 
REMARK    6  A    between atoms: C_15  and  C_16 
REMARK    7  A    between atoms: C_16  and  C_17 
REMARK    8  A    between atoms: C_19  and  N_20 
ROOT
HETATM    1  C   UNL     1       3.866  31.761  57.750  1.00  0.00     0.032 A 
HETATM    2  C   UNL     1       4.312  30.488  58.126  1.00  0.00     0.019 A 
HETATM    3  C   UNL     1       4.568  29.509  57.156  1.00  0.00     0.030 A 
HETATM    4  C   UNL     1       4.351  29.774  55.802  1.00  0.00     0.034 A 
HETATM    5  C   UNL     1       3.866  31.031  55.429  1.00  0.00     0.030 A 
HETATM    6  C   UNL     1       3.636  32.021  56.393  1.00  0.00     0.019 A 
ENDROOT
BRANCH   4   7
HETATM    7  N   UNL     1       4.549  28.819  54.780  1.00  0.00    -0.327 N 
HETATM    8  C   UNL     1       5.761  28.297  54.376  1.00  0.00     0.223 C 
HETATM    9  O   UNL     1       6.859  28.661  54.798  1.00  0.00    -0.273 OA
HETATM   10  H   UNL     1       3.717  28.604  54.249  1.00  0.00     0.169 HD
BRANCH   8  11
HETATM   11  C   UNL     1       5.708  27.126  53.401  1.00  0.00     0.128 C 
BRANCH  11  12
HETATM   12  C   UNL     1       5.585  25.704  53.925  1.00  0.00     0.158 A 
HETATM   13  S   UNL     1       6.855  25.160  55.091  1.00  0.00    -0.077 SA
HETATM   14  C   UNL     1       7.336  23.864  54.010  1.00  0.00     0.168 A 
HETATM   15  N   UNL     1       6.669  23.793  52.903  1.00  0.00    -0.189 NA
HETATM   16  C   UNL     1       5.640  24.695  52.802  1.00  0.00     0.260 A 
HETATM   17  O   UNL     1       4.869  24.728  51.851  1.00  0.00    -0.270 OA
BRANCH  14  18
HETATM   18  N   UNL     1       8.394  23.039  54.329  1.00  0.00    -0.360 N 
HETATM   19  C   UNL     1       8.999  22.967  55.666  1.00  0.00     0.125 C 
HETATM   20  C   UNL     1       8.297  21.877  56.477  1.00  0.00     0.020 C 
HETATM   21  C   UNL     1       8.348  20.529  55.751  1.00  0.00     0.003 C 
HETATM   22  C   UNL     1       7.855  20.651  54.308  1.00  0.00     0.020 C 
HETATM   23  C   UNL     1       8.574  21.786  53.577  1.00  0.00     0.125 C 
ENDBRANCH  14  18
ENDBRANCH  11  12
ENDBRANCH   8  11
ENDBRANCH   4   7
BRANCH   1  24
HETATM   24  C   UNL     1       3.578  32.846  58.743  1.00  0.00     0.256 C 
HETATM   25  N   UNL     1       4.178  32.701  59.982  1.00  0.00    -0.323 N 
HETATM   26  H   UNL     1       4.831  31.941  60.097  1.00  0.00     0.169 HD
HETATM   27  O   UNL     1       2.858  33.773  58.389  1.00  0.00    -0.267 OA
BRANCH  25  28
HETATM   28  C   UNL     1       4.009  33.518  61.121  1.00  0.00     0.035 A 
HETATM   29  C   UNL     1       2.860  33.541  61.908  1.00  0.00     0.030 A 
HETATM   30  C   UNL     1       2.785  34.371  63.034  1.00  0.00     0.010 A 
HETATM   31  C   UNL     1       3.863  35.184  63.405  1.00  0.00    -0.054 A 
HETATM   32  C   UNL     1       5.014  35.161  62.609  1.00  0.00     0.010 A 
HETATM   33  C   UNL     1       5.084  34.341  61.477  1.00  0.00     0.030 A 
BRANCH  31  34
HETATM   34  C   UNL     1       3.808  36.085  64.629  1.00  0.00     0.014 C 
HETATM   35  C   UNL     1       4.957  37.103  64.618  1.00  0.00     0.015 C 
BRANCH  34  36
HETATM   36  C   UNL     1       3.808  35.291  65.950  1.00  0.00     0.004 C 
HETATM   37  C   UNL     1       5.081  34.479  66.158  1.00  0.00     0.006 C 
ENDBRANCH  34  36
ENDBRANCH  31  34
ENDBRANCH  25  28
ENDBRANCH   1  24
TORSDOF 8
ENDMDL
MODEL 10
REMARK VINA RESULT:      -8.6      4.143     11.932
REMARK  8 active torsions:
REMARK  status: ('A' for Active; 'I' for Inactive)
REMARK    1  A    between atoms: C_2  and  C_3 
REMARK    2  A    between atoms: C_3  and  C_4 
REMARK    3  A    between atoms: C_7  and  N_8 
REMARK       I    between atoms: N_8  and  C_9 
REMARK    4  A    between atoms: C_9  and  C_10 
REMARK    5  A    between atoms: C_13  and  N_14 
REMARK       I    between atoms: N_14  and  C_15 
REMARK    6  A    between atoms: C_15  and  C_16 
REMARK    7  A    between atoms: C_16  and  C_17 
REMARK    8  A    between atoms: C_19  and  N_20 
ROOT
HETATM    1  C   UNL     1       4.680  29.150  56.433  1.00  0.00     0.032 A 
HETATM    2  C   UNL     1       4.153  29.779  55.299  1.00  0.00     0.019 A 
HETATM    3  C   UNL     1       3.765  31.125  55.349  1.00  0.00     0.030 A 
HETATM    4  C   UNL     1       3.866  31.852  56.537  1.00  0.00     0.034 A 
HETATM    5  C   UNL     1       4.353  31.213  57.681  1.00  0.00     0.030 A 
HETATM    6  C   UNL     1       4.768  29.876  57.627  1.00  0.00     0.019 A 
ENDROOT
BRANCH   4   7
HETATM    7  N   UNL     1       3.454  33.197  56.665  1.00  0.00    -0.327 N 
HETATM    8  C   UNL     1       4.188  34.311  56.313  1.00  0.00     0.223 C 
HETATM    9  O   UNL     1       5.353  34.288  55.915  1.00  0.00    -0.273 OA
HETATM   10  H   UNL     1       2.581  33.317  57.161  1.00  0.00     0.169 HD
BRANCH   8  11
HETATM   11  C   UNL     1       3.456  35.649  56.345  1.00  0.00     0.128 C 
BRANCH  11  12
HETATM   12  C   UNL     1       2.879  36.169  57.653  1.00  0.00     0.158 A 
HETATM   13  S   UNL     1       4.026  36.306  59.043  1.00  0.00    -0.077 SA
HETATM   14  C   UNL     1       3.059  35.191  59.992  1.00  0.00     0.168 A 
HETATM   15  N   UNL     1       2.000  34.740  59.400  1.00  0.00    -0.189 NA
HETATM   16  C   UNL     1       1.769  35.278  58.160  1.00  0.00     0.260 A 
HETATM   17  O   UNL     1       0.782  35.011  57.486  1.00  0.00    -0.270 OA
BRANCH  14  18
HETATM   18  N   UNL     1       3.466  34.803  61.251  1.00  0.00    -0.360 N 
HETATM   19  C   UNL     1       2.840  33.714  62.012  1.00  0.00     0.125 C 
HETATM   20  C   UNL     1       3.565  32.404  61.703  1.00  0.00     0.020 C 
HETATM   21  C   UNL     1       5.064  32.519  61.995  1.00  0.00     0.003 C 
HETATM   22  C   UNL     1       5.674  33.747  61.316  1.00  0.00     0.020 C 
HETATM   23  C   UNL     1       4.872  35.008  61.641  1.00  0.00     0.125 C 
ENDBRANCH  14  18
ENDBRANCH  11  12
ENDBRANCH   8  11
ENDBRANCH   4   7
BRANCH   1  24
HETATM   24  C   UNL     1       5.112  27.715  56.437  1.00  0.00     0.256 C 
HETATM   25  N   UNL     1       6.216  27.417  55.657  1.00  0.00    -0.323 N 
HETATM   26  H   UNL     1       6.701  28.188  55.224  1.00  0.00     0.169 HD
HETATM   27  O   UNL     1       4.478  26.925  57.130  1.00  0.00    -0.267 OA
BRANCH  25  28
HETATM   28  C   UNL     1       6.777  26.146  55.408  1.00  0.00     0.035 A 
HETATM   29  C   UNL     1       7.727  25.533  56.223  1.00  0.00     0.030 A 
HETATM   30  C   UNL     1       8.219  24.259  55.908  1.00  0.00     0.010 A 
HETATM   31  C   UNL     1       7.760  23.566  54.781  1.00  0.00    -0.054 A 
HETATM   32  C   UNL     1       6.810  24.188  53.963  1.00  0.00     0.010 A 
HETATM   33  C   UNL     1       6.328  25.465  54.270  1.00  0.00     0.030 A 
BRANCH  31  34
HETATM   34  C   UNL     1       8.272  22.179  54.426  1.00  0.00     0.014 C 
HETATM   35  C   UNL     1       7.880  21.795  52.993  1.00  0.00     0.015 C 
BRANCH  34  36
HETATM   36  C   UNL     1       7.795  21.099  55.418  1.00  0.00     0.004 C 
HETATM   37  C   UNL     1       8.851  20.037  55.697  1.00  0.00     0.006 C 
ENDBRANCH  34  36
ENDBRANCH  31  34
ENDBRANCH  25  28
ENDBRANCH   1  24
TORSDOF 8
ENDMDL
