MODEL 1
REMARK VINA RESULT:      -9.4      0.000      0.000
REMARK  8 active torsions:
REMARK  status: ('A' for Active; 'I' for Inactive)
REMARK    1  A    between atoms: C_8  and  N_9 
REMARK    2  A    between atoms: C_10  and  S_11 
REMARK    3  A    between atoms: S_11  and  C_12 
REMARK    4  A    between atoms: C_12  and  C_13 
REMARK       I    between atoms: C_13  and  N_14 
REMARK    5  A    between atoms: N_14  and  C_15 
REMARK    6  A    between atoms: C_15  and  C_16 
REMARK    7  A    between atoms: C_16  and  C_17 
REMARK    8  A    between atoms: C_27  and  N_28 
ROOT
HETATM    1  N   UNL     1       7.056  28.195  55.425  1.00  0.00    -0.275 N 
HETATM    2  C   UNL     1       6.170  28.019  56.521  1.00  0.00     0.177 A 
HETATM    3  N   UNL     1       6.378  28.420  57.753  1.00  0.00    -0.204 NA
HETATM    4  C   UNL     1       7.550  29.073  57.917  1.00  0.00     0.162 A 
HETATM    5  C   UNL     1       8.524  29.357  57.000  1.00  0.00     0.081 A 
HETATM    6  C   UNL     1       8.294  28.921  55.655  1.00  0.00     0.124 A 
HETATM    7  N   UNL     1       8.008  29.585  59.095  1.00  0.00    -0.260 N 
HETATM    8  H   UNL     1       7.547  29.571  59.998  1.00  0.00     0.191 HD
HETATM    9  N   UNL     1       9.232  30.148  58.988  1.00  0.00    -0.177 NA
HETATM   10  C   UNL     1       9.557  30.005  57.692  1.00  0.00     0.068 A 
HETATM   11  C   UNL     1      10.871  30.494  57.213  1.00  0.00     0.073 C 
ENDROOT
BRANCH   2  12
HETATM   12  S   UNL     1       4.647  27.134  56.278  1.00  0.00    -0.082 SA
BRANCH  12  13
HETATM   13  C   UNL     1       4.994  25.628  57.224  1.00  0.00     0.185 C 
BRANCH  13  14
HETATM   14  C   UNL     1       6.135  24.804  56.636  1.00  0.00     0.227 C 
HETATM   15  N   UNL     1       7.268  24.803  57.434  1.00  0.00    -0.360 N 
HETATM   16  H   UNL     1       7.352  25.518  58.147  1.00  0.00     0.162 HD
HETATM   17  O   UNL     1       6.065  24.169  55.588  1.00  0.00    -0.273 OA
BRANCH  15  18
HETATM   18  C   UNL     1       8.484  24.118  57.022  1.00  0.00     0.127 C 
BRANCH  18  19
HETATM   19  C   UNL     1       8.331  22.601  57.128  1.00  0.00     0.058 C 
BRANCH  19  20
HETATM   20  C   UNL     1       8.501  21.909  55.800  1.00  0.00    -0.057 A 
HETATM   21  C   UNL     1       8.663  22.653  54.624  1.00  0.00     0.007 A 
HETATM   22  C   UNL     1       8.819  22.007  53.396  1.00  0.00     0.001 A 
HETATM   23  C   UNL     1       8.811  20.615  53.331  1.00  0.00     0.000 A 
HETATM   24  C   UNL     1       8.643  19.867  54.494  1.00  0.00     0.001 A 
HETATM   25  C   UNL     1       8.487  20.509  55.724  1.00  0.00     0.007 A 
ENDBRANCH  19  20
ENDBRANCH  18  19
ENDBRANCH  15  18
ENDBRANCH  13  14
ENDBRANCH  12  13
ENDBRANCH   2  12
BRANCH   1  26
HETATM   26  C   UNL     1       6.841  27.517  54.186  1.00  0.00     0.051 A 
HETATM   27  C   UNL     1       5.950  28.006  53.204  1.00  0.00    -0.013 A 
HETATM   28  C   UNL     1       5.132  29.250  53.442  1.00  0.00     0.052 C 
HETATM   29  C   UNL     1       5.803  27.269  52.013  1.00  0.00     0.042 A 
HETATM   30 CL   UNL     1       4.691  27.748  50.777  1.00  0.00    -0.084 Cl
HETATM   31  C   UNL     1       6.554  26.113  51.781  1.00  0.00     0.024 A 
HETATM   32  C   UNL     1       7.456  25.658  52.736  1.00  0.00     0.004 A 
HETATM   33  C   UNL     1       7.596  26.355  53.933  1.00  0.00     0.031 A 
ENDBRANCH   1  26
BRANCH   6  34
HETATM   34  N   UNL     1       9.163  29.164  54.693  1.00  0.00    -0.384 N 
HETATM   35  H   UNL     1       9.007  29.884  54.005  1.00  0.00     0.157 HD
HETATM   36  H   UNL     1       9.998  28.597  54.620  1.00  0.00     0.157 HD
ENDBRANCH   6  34
TORSDOF 8
ENDMDL
MODEL 2
REMARK VINA RESULT:      -9.3      3.926      8.133
REMARK  8 active torsions:
REMARK  status: ('A' for Active; 'I' for Inactive)
REMARK    1  A    between atoms: C_8  and  N_9 
REMARK    2  A    between atoms: C_10  and  S_11 
REMARK    3  A    between atoms: S_11  and  C_12 
REMARK    4  A    between atoms: C_12  and  C_13 
REMARK       I    between atoms: C_13  and  N_14 
REMARK    5  A    between atoms: N_14  and  C_15 
REMARK    6  A    between atoms: C_15  and  C_16 
REMARK    7  A    between atoms: C_16  and  C_17 
REMARK    8  A    between atoms: C_27  and  N_28 
ROOT
HETATM    1  N   UNL     1       6.047  26.996  54.331  1.00  0.00    -0.275 N 
HETATM    2  C   UNL     1       6.539  27.987  55.222  1.00  0.00     0.177 A 
HETATM    3  N   UNL     1       6.098  29.218  55.326  1.00  0.00    -0.204 NA
HETATM    4  C   UNL     1       5.068  29.494  54.495  1.00  0.00     0.162 A 
HETATM    5  C   UNL     1       4.445  28.687  53.583  1.00  0.00     0.081 A 
HETATM    6  C   UNL     1       4.926  27.342  53.474  1.00  0.00     0.124 A 
HETATM    7  N   UNL     1       4.434  30.697  54.400  1.00  0.00    -0.260 N 
HETATM    8  H   UNL     1       4.619  31.540  54.933  1.00  0.00     0.191 HD
HETATM    9  N   UNL     1       3.467  30.713  53.456  1.00  0.00    -0.177 NA
HETATM   10  C   UNL     1       3.474  29.471  52.944  1.00  0.00     0.068 A 
HETATM   11  C   UNL     1       2.541  29.131  51.845  1.00  0.00     0.073 C 
ENDROOT
BRANCH   2  12
HETATM   12  S   UNL     1       7.911  27.599  56.284  1.00  0.00    -0.082 SA
BRANCH  12  13
HETATM   13  C   UNL     1       7.375  28.408  57.814  1.00  0.00     0.185 C 
BRANCH  13  14
HETATM   14  C   UNL     1       8.291  29.554  58.234  1.00  0.00     0.227 C 
HETATM   15  N   UNL     1       8.064  29.978  59.534  1.00  0.00    -0.360 N 
HETATM   16  H   UNL     1       7.192  29.715  59.978  1.00  0.00     0.162 HD
HETATM   17  O   UNL     1       9.168  30.038  57.525  1.00  0.00    -0.273 OA
BRANCH  15  18
HETATM   18  C   UNL     1       8.799  31.097  60.104  1.00  0.00     0.127 C 
BRANCH  18  19
HETATM   19  C   UNL     1       8.799  31.042  61.632  1.00  0.00     0.058 C 
BRANCH  19  20
HETATM   20  C   UNL     1       7.964  32.134  62.249  1.00  0.00    -0.057 A 
HETATM   21  C   UNL     1       8.057  32.415  63.618  1.00  0.00     0.007 A 
HETATM   22  C   UNL     1       7.281  33.428  64.186  1.00  0.00     0.001 A 
HETATM   23  C   UNL     1       6.403  34.164  63.392  1.00  0.00     0.000 A 
HETATM   24  C   UNL     1       6.298  33.887  62.031  1.00  0.00     0.001 A 
HETATM   25  C   UNL     1       7.073  32.875  61.460  1.00  0.00     0.007 A 
ENDBRANCH  19  20
ENDBRANCH  18  19
ENDBRANCH  15  18
ENDBRANCH  13  14
ENDBRANCH  12  13
ENDBRANCH   2  12
BRANCH   1  26
HETATM   26  C   UNL     1       6.748  25.767  54.134  1.00  0.00     0.051 A 
HETATM   27  C   UNL     1       6.636  24.683  55.034  1.00  0.00    -0.013 A 
HETATM   28  C   UNL     1       5.808  24.792  56.289  1.00  0.00     0.052 C 
HETATM   29  C   UNL     1       7.366  23.511  54.758  1.00  0.00     0.042 A 
HETATM   30 CL   UNL     1       7.347  22.153  55.829  1.00  0.00    -0.084 Cl
HETATM   31  C   UNL     1       8.140  23.397  53.599  1.00  0.00     0.024 A 
HETATM   32  C   UNL     1       8.216  24.454  52.699  1.00  0.00     0.004 A 
HETATM   33  C   UNL     1       7.526  25.633  52.967  1.00  0.00     0.031 A 
ENDBRANCH   1  26
BRANCH   6  34
HETATM   34  N   UNL     1       4.379  26.481  52.638  1.00  0.00    -0.384 N 
HETATM   35  H   UNL     1       4.157  26.730  51.687  1.00  0.00     0.157 HD
HETATM   36  H   UNL     1       4.146  25.551  52.963  1.00  0.00     0.157 HD
ENDBRANCH   6  34
TORSDOF 8
ENDMDL
MODEL 3
REMARK VINA RESULT:      -9.3      3.652      8.061
REMARK  8 active torsions:
REMARK  status: ('A' for Active; 'I' for Inactive)
REMARK    1  A    between atoms: C_8  and  N_9 
REMARK    2  A    between atoms: C_10  and  S_11 
REMARK    3  A    between atoms: S_11  and  C_12 
REMARK    4  A    between atoms: C_12  and  C_13 
REMARK       I    between atoms: C_13  and  N_14 
REMARK    5  A    between atoms: N_14  and  C_15 
REMARK    6  A    between atoms: C_15  and  C_16 
REMARK    7  A    between atoms: C_16  and  C_17 
REMARK    8  A    between atoms: C_27  and  N_28 
ROOT
HETATM    1  N   UNL     1       5.936  26.391  52.887  1.00  0.00    -0.275 N 
HETATM    2  C   UNL     1       6.435  27.721  52.905  1.00  0.00     0.177 A 
HETATM    3  N   UNL     1       6.258  28.624  51.970  1.00  0.00    -0.204 NA
HETATM    4  C   UNL     1       5.505  28.189  50.935  1.00  0.00     0.162 A 
HETATM    5  C   UNL     1       4.924  26.967  50.735  1.00  0.00     0.081 A 
HETATM    6  C   UNL     1       5.116  25.983  51.758  1.00  0.00     0.124 A 
HETATM    7  N   UNL     1       5.178  28.925  49.835  1.00  0.00    -0.260 N 
HETATM    8  H   UNL     1       5.426  29.888  49.637  1.00  0.00     0.191 HD
HETATM    9  N   UNL     1       4.451  28.231  48.930  1.00  0.00    -0.177 NA
HETATM   10  C   UNL     1       4.296  27.016  49.482  1.00  0.00     0.068 A 
HETATM   11  C   UNL     1       3.559  25.968  48.739  1.00  0.00     0.073 C 
ENDROOT
BRANCH   2  12
HETATM   12  S   UNL     1       7.444  28.254  54.268  1.00  0.00    -0.082 SA
BRANCH  12  13
HETATM   13  C   UNL     1       6.209  29.133  55.261  1.00  0.00     0.185 C 
BRANCH  13  14
HETATM   14  C   UNL     1       6.543  29.149  56.749  1.00  0.00     0.227 C 
HETATM   15  N   UNL     1       7.819  29.619  57.012  1.00  0.00    -0.360 N 
HETATM   16  H   UNL     1       8.486  29.647  56.249  1.00  0.00     0.162 HD
HETATM   17  O   UNL     1       5.763  28.822  57.639  1.00  0.00    -0.273 OA
BRANCH  15  18
HETATM   18  C   UNL     1       8.346  29.662  58.368  1.00  0.00     0.127 C 
BRANCH  18  19
HETATM   19  C   UNL     1       8.773  31.078  58.755  1.00  0.00     0.058 C 
BRANCH  19  20
HETATM   20  C   UNL     1       8.513  31.383  60.208  1.00  0.00    -0.057 A 
HETATM   21  C   UNL     1       7.800  32.530  60.579  1.00  0.00     0.007 A 
HETATM   22  C   UNL     1       7.562  32.809  61.926  1.00  0.00     0.001 A 
HETATM   23  C   UNL     1       8.038  31.948  62.913  1.00  0.00     0.000 A 
HETATM   24  C   UNL     1       8.754  30.808  62.554  1.00  0.00     0.001 A 
HETATM   25  C   UNL     1       8.994  30.526  61.208  1.00  0.00     0.007 A 
ENDBRANCH  19  20
ENDBRANCH  18  19
ENDBRANCH  15  18
ENDBRANCH  13  14
ENDBRANCH  12  13
ENDBRANCH   2  12
BRANCH   1  26
HETATM   26  C   UNL     1       6.381  25.423  53.838  1.00  0.00     0.051 A 
HETATM   27  C   UNL     1       7.438  24.527  53.563  1.00  0.00    -0.013 A 
HETATM   28  C   UNL     1       8.118  24.510  52.217  1.00  0.00     0.052 C 
HETATM   29  C   UNL     1       7.807  23.606  54.562  1.00  0.00     0.042 A 
HETATM   30 CL   UNL     1       9.045  22.425  54.301  1.00  0.00    -0.084 Cl
HETATM   31  C   UNL     1       7.184  23.608  55.813  1.00  0.00     0.024 A 
HETATM   32  C   UNL     1       6.169  24.518  56.090  1.00  0.00     0.004 A 
HETATM   33  C   UNL     1       5.768  25.418  55.107  1.00  0.00     0.031 A 
ENDBRANCH   1  26
BRANCH   6  34
HETATM   34  N   UNL     1       4.580  24.781  51.669  1.00  0.00    -0.384 N 
HETATM   35  H   UNL     1       4.116  24.467  50.830  1.00  0.00     0.157 HD
HETATM   36  H   UNL     1       4.605  24.163  52.469  1.00  0.00     0.157 HD
ENDBRANCH   6  34
TORSDOF 8
ENDMDL
MODEL 4
REMARK VINA RESULT:      -9.2      4.218      8.184
REMARK  8 active torsions:
REMARK  status: ('A' for Active; 'I' for Inactive)
REMARK    1  A    between atoms: C_8  and  N_9 
REMARK    2  A    between atoms: C_10  and  S_11 
REMARK    3  A    between atoms: S_11  and  C_12 
REMARK    4  A    between atoms: C_12  and  C_13 
REMARK       I    between atoms: C_13  and  N_14 
REMARK    5  A    between atoms: N_14  and  C_15 
REMARK    6  A    between atoms: C_15  and  C_16 
REMARK    7  A    between atoms: C_16  and  C_17 
REMARK    8  A    between atoms: C_27  and  N_28 
ROOT
HETATM    1  N   UNL     1       5.886  28.619  56.635  1.00  0.00    -0.275 N 
HETATM    2  C   UNL     1       6.794  29.418  57.380  1.00  0.00     0.177 A 
HETATM    3  N   UNL     1       6.659  30.696  57.644  1.00  0.00    -0.204 NA
HETATM    4  C   UNL     1       5.521  31.231  57.151  1.00  0.00     0.162 A 
HETATM    5  C   UNL     1       4.521  30.638  56.429  1.00  0.00     0.081 A 
HETATM    6  C   UNL     1       4.668  29.242  56.145  1.00  0.00     0.124 A 
HETATM    7  N   UNL     1       5.144  32.535  57.279  1.00  0.00    -0.260 N 
HETATM    8  H   UNL     1       5.635  33.278  57.763  1.00  0.00     0.191 HD
HETATM    9  N   UNL     1       3.979  32.815  56.652  1.00  0.00    -0.177 NA
HETATM   10  C   UNL     1       3.593  31.643  56.120  1.00  0.00     0.068 A 
HETATM   11  C   UNL     1       2.346  31.581  55.323  1.00  0.00     0.073 C 
ENDROOT
BRANCH   2  12
HETATM   12  S   UNL     1       8.296  28.689  57.992  1.00  0.00    -0.082 SA
BRANCH  12  13
HETATM   13  C   UNL     1       9.516  29.847  57.318  1.00  0.00     0.185 C 
BRANCH  13  14
HETATM   14  C   UNL     1       9.872  30.969  58.289  1.00  0.00     0.227 C 
HETATM   15  N   UNL     1       9.280  30.816  59.532  1.00  0.00    -0.360 N 
HETATM   16  H   UNL     1       8.494  30.182  59.613  1.00  0.00     0.162 HD
HETATM   17  O   UNL     1      10.633  31.896  58.029  1.00  0.00    -0.273 OA
BRANCH  15  18
HETATM   18  C   UNL     1       9.454  31.810  60.581  1.00  0.00     0.127 C 
BRANCH  18  19
HETATM   19  C   UNL     1       8.814  31.355  61.892  1.00  0.00     0.058 C 
BRANCH  19  20
HETATM   20  C   UNL     1       7.930  32.412  62.501  1.00  0.00    -0.057 A 
HETATM   21  C   UNL     1       7.950  32.649  63.882  1.00  0.00     0.007 A 
HETATM   22  C   UNL     1       7.128  33.629  64.442  1.00  0.00     0.001 A 
HETATM   23  C   UNL     1       6.278  34.378  63.629  1.00  0.00     0.000 A 
HETATM   24  C   UNL     1       6.247  34.145  62.256  1.00  0.00     0.001 A 
HETATM   25  C   UNL     1       7.067  33.165  61.693  1.00  0.00     0.007 A 
ENDBRANCH  19  20
ENDBRANCH  18  19
ENDBRANCH  15  18
ENDBRANCH  13  14
ENDBRANCH  12  13
ENDBRANCH   2  12
BRANCH   1  26
HETATM   26  C   UNL     1       6.241  27.302  56.208  1.00  0.00     0.051 A 
HETATM   27  C   UNL     1       6.917  27.062  54.991  1.00  0.00    -0.013 A 
HETATM   28  C   UNL     1       7.250  28.189  54.046  1.00  0.00     0.052 C 
HETATM   29  C   UNL     1       7.224  25.730  54.652  1.00  0.00     0.042 A 
HETATM   30 CL   UNL     1       7.992  25.324  53.156  1.00  0.00    -0.084 Cl
HETATM   31  C   UNL     1       6.919  24.675  55.517  1.00  0.00     0.024 A 
HETATM   32  C   UNL     1       6.287  24.923  56.731  1.00  0.00     0.004 A 
HETATM   33  C   UNL     1       5.947  26.229  57.073  1.00  0.00     0.031 A 
ENDBRANCH   1  26
BRANCH   6  34
HETATM   34  N   UNL     1       3.750  28.575  55.474  1.00  0.00    -0.384 N 
HETATM   35  H   UNL     1       3.020  29.044  54.961  1.00  0.00     0.157 HD
HETATM   36  H   UNL     1       3.754  27.563  55.494  1.00  0.00     0.157 HD
ENDBRANCH   6  34
TORSDOF 8
ENDMDL
MODEL 5
REMARK VINA RESULT:      -8.8      4.063      8.010
REMARK  8 active torsions:
REMARK  status: ('A' for Active; 'I' for Inactive)
REMARK    1  A    between atoms: C_8  and  N_9 
REMARK    2  A    between atoms: C_10  and  S_11 
REMARK    3  A    between atoms: S_11  and  C_12 
REMARK    4  A    between atoms: C_12  and  C_13 
REMARK       I    between atoms: C_13  and  N_14 
REMARK    5  A    between atoms: N_14  and  C_15 
REMARK    6  A    between atoms: C_15  and  C_16 
REMARK    7  A    between atoms: C_16  and  C_17 
REMARK    8  A    between atoms: C_27  and  N_28 
ROOT
HETATM    1  N   UNL     1       7.224  25.793  55.501  1.00  0.00    -0.275 N 
HETATM    2  C   UNL     1       7.138  25.796  54.083  1.00  0.00     0.177 A 
HETATM    3  N   UNL     1       7.294  24.756  53.299  1.00  0.00    -0.204 NA
HETATM    4  C   UNL     1       7.534  23.607  53.968  1.00  0.00     0.162 A 
HETATM    5  C   UNL     1       7.638  23.389  55.314  1.00  0.00     0.081 A 
HETATM    6  C   UNL     1       7.465  24.525  56.169  1.00  0.00     0.124 A 
HETATM    7  N   UNL     1       7.738  22.388  53.392  1.00  0.00    -0.260 N 
HETATM    8  H   UNL     1       7.725  22.159  52.404  1.00  0.00     0.191 HD
HETATM    9  N   UNL     1       8.000  21.414  54.292  1.00  0.00    -0.177 NA
HETATM   10  C   UNL     1       7.945  22.031  55.483  1.00  0.00     0.068 A 
HETATM   11  C   UNL     1       8.214  21.257  56.717  1.00  0.00     0.073 C 
ENDROOT
BRANCH   2  12
HETATM   12  S   UNL     1       6.848  27.330  53.232  1.00  0.00    -0.082 SA
BRANCH  12  13
HETATM   13  C   UNL     1       5.211  27.004  52.527  1.00  0.00     0.185 C 
BRANCH  13  14
HETATM   14  C   UNL     1       5.118  27.358  51.046  1.00  0.00     0.227 C 
HETATM   15  N   UNL     1       4.658  26.309  50.267  1.00  0.00    -0.360 N 
HETATM   16  H   UNL     1       4.686  25.374  50.658  1.00  0.00     0.162 HD
HETATM   17  O   UNL     1       5.381  28.462  50.579  1.00  0.00    -0.273 OA
BRANCH  15  18
HETATM   18  C   UNL     1       4.550  26.430  48.821  1.00  0.00     0.127 C 
BRANCH  18  19
HETATM   19  C   UNL     1       3.200  25.918  48.319  1.00  0.00     0.058 C 
BRANCH  19  20
HETATM   20  C   UNL     1       2.308  27.028  47.826  1.00  0.00    -0.057 A 
HETATM   21  C   UNL     1       1.275  26.762  46.918  1.00  0.00     0.007 A 
HETATM   22  C   UNL     1       0.451  27.794  46.463  1.00  0.00     0.001 A 
HETATM   23  C   UNL     1       0.655  29.099  46.909  1.00  0.00     0.000 A 
HETATM   24  C   UNL     1       1.683  29.374  47.806  1.00  0.00     0.001 A 
HETATM   25  C   UNL     1       2.509  28.344  48.263  1.00  0.00     0.007 A 
ENDBRANCH  19  20
ENDBRANCH  18  19
ENDBRANCH  15  18
ENDBRANCH  13  14
ENDBRANCH  12  13
ENDBRANCH   2  12
BRANCH   1  26
HETATM   26  C   UNL     1       7.272  27.014  56.240  1.00  0.00     0.051 A 
HETATM   27  C   UNL     1       6.103  27.680  56.673  1.00  0.00    -0.013 A 
HETATM   28  C   UNL     1       4.733  27.158  56.323  1.00  0.00     0.052 C 
HETATM   29  C   UNL     1       6.249  28.879  57.396  1.00  0.00     0.042 A 
HETATM   30 CL   UNL     1       4.882  29.803  57.915  1.00  0.00    -0.084 Cl
HETATM   31  C   UNL     1       7.514  29.376  57.725  1.00  0.00     0.024 A 
HETATM   32  C   UNL     1       8.660  28.696  57.328  1.00  0.00     0.004 A 
HETATM   33  C   UNL     1       8.540  27.523  56.587  1.00  0.00     0.031 A 
ENDBRANCH   1  26
BRANCH   6  34
HETATM   34  N   UNL     1       7.527  24.416  57.482  1.00  0.00    -0.384 N 
HETATM   35  H   UNL     1       6.706  24.241  58.041  1.00  0.00     0.157 HD
HETATM   36  H   UNL     1       8.415  24.539  57.952  1.00  0.00     0.157 HD
ENDBRANCH   6  34
TORSDOF 8
ENDMDL
MODEL 6
REMARK VINA RESULT:      -8.7      3.078      5.949
REMARK  8 active torsions:
REMARK  status: ('A' for Active; 'I' for Inactive)
REMARK    1  A    between atoms: C_8  and  N_9 
REMARK    2  A    between atoms: C_10  and  S_11 
REMARK    3  A    between atoms: S_11  and  C_12 
REMARK    4  A    between atoms: C_12  and  C_13 
REMARK       I    between atoms: C_13  and  N_14 
REMARK    5  A    between atoms: N_14  and  C_15 
REMARK    6  A    between atoms: C_15  and  C_16 
REMARK    7  A    between atoms: C_16  and  C_17 
REMARK    8  A    between atoms: C_27  and  N_28 
ROOT
HETATM    1  N   UNL     1       6.928  28.383  56.654  1.00  0.00    -0.275 N 
HETATM    2  C   UNL     1       5.645  28.983  56.747  1.00  0.00     0.177 A 
HETATM    3  N   UNL     1       5.359  30.100  57.374  1.00  0.00    -0.204 NA
HETATM    4  C   UNL     1       6.434  30.691  57.941  1.00  0.00     0.162 A 
HETATM    5  C   UNL     1       7.742  30.290  57.953  1.00  0.00     0.081 A 
HETATM    6  C   UNL     1       8.052  29.073  57.266  1.00  0.00     0.124 A 
HETATM    7  N   UNL     1       6.409  31.853  58.654  1.00  0.00    -0.260 N 
HETATM    8  H   UNL     1       5.609  32.445  58.848  1.00  0.00     0.191 HD
HETATM    9  N   UNL     1       7.620  32.197  59.148  1.00  0.00    -0.177 NA
HETATM   10  C   UNL     1       8.447  31.229  58.720  1.00  0.00     0.068 A 
HETATM   11  C   UNL     1       9.876  31.270  59.106  1.00  0.00     0.073 C 
ENDROOT
BRANCH   2  12
HETATM   12  S   UNL     1       4.246  28.167  56.013  1.00  0.00    -0.082 SA
BRANCH  12  13
HETATM   13  C   UNL     1       3.951  29.249  54.590  1.00  0.00     0.185 C 
BRANCH  13  14
HETATM   14  C   UNL     1       4.101  28.528  53.253  1.00  0.00     0.227 C 
HETATM   15  N   UNL     1       4.225  29.398  52.182  1.00  0.00    -0.360 N 
HETATM   16  H   UNL     1       3.946  30.363  52.314  1.00  0.00     0.162 HD
HETATM   17  O   UNL     1       4.148  27.309  53.123  1.00  0.00    -0.273 OA
BRANCH  15  18
HETATM   18  C   UNL     1       4.326  28.907  50.816  1.00  0.00     0.127 C 
BRANCH  18  19
HETATM   19  C   UNL     1       2.973  28.955  50.106  1.00  0.00     0.058 C 
BRANCH  19  20
HETATM   20  C   UNL     1       2.840  27.891  49.046  1.00  0.00    -0.057 A 
HETATM   21  C   UNL     1       1.666  27.783  48.289  1.00  0.00     0.007 A 
HETATM   22  C   UNL     1       1.546  26.795  47.309  1.00  0.00     0.001 A 
HETATM   23  C   UNL     1       2.595  25.907  47.080  1.00  0.00     0.000 A 
HETATM   24  C   UNL     1       3.764  26.002  47.832  1.00  0.00     0.001 A 
HETATM   25  C   UNL     1       3.886  26.988  48.813  1.00  0.00     0.007 A 
ENDBRANCH  19  20
ENDBRANCH  18  19
ENDBRANCH  15  18
ENDBRANCH  13  14
ENDBRANCH  12  13
ENDBRANCH   2  12
BRANCH   1  26
HETATM   26  C   UNL     1       7.088  27.055  56.152  1.00  0.00     0.051 A 
HETATM   27  C   UNL     1       7.447  26.795  54.811  1.00  0.00    -0.013 A 
HETATM   28  C   UNL     1       7.625  27.915  53.818  1.00  0.00     0.052 C 
HETATM   29  C   UNL     1       7.581  25.452  54.406  1.00  0.00     0.042 A 
HETATM   30 CL   UNL     1       7.953  25.026  52.772  1.00  0.00    -0.084 Cl
HETATM   31  C   UNL     1       7.416  24.403  55.316  1.00  0.00     0.024 A 
HETATM   32  C   UNL     1       7.099  24.669  56.644  1.00  0.00     0.004 A 
HETATM   33  C   UNL     1       6.934  25.987  57.059  1.00  0.00     0.031 A 
ENDBRANCH   1  26
BRANCH   6  34
HETATM   34  N   UNL     1       9.287  28.612  57.202  1.00  0.00    -0.384 N 
HETATM   35  H   UNL     1       9.496  27.633  57.324  1.00  0.00     0.157 HD
HETATM   36  H   UNL     1      10.053  29.258  57.058  1.00  0.00     0.157 HD
ENDBRANCH   6  34
TORSDOF 8
ENDMDL
MODEL 7
REMARK VINA RESULT:      -8.6      4.852      6.561
REMARK  8 active torsions:
REMARK  status: ('A' for Active; 'I' for Inactive)
REMARK    1  A    between atoms: C_8  and  N_9 
REMARK    2  A    between atoms: C_10  and  S_11 
REMARK    3  A    between atoms: S_11  and  C_12 
REMARK    4  A    between atoms: C_12  and  C_13 
REMARK       I    between atoms: C_13  and  N_14 
REMARK    5  A    between atoms: N_14  and  C_15 
REMARK    6  A    between atoms: C_15  and  C_16 
REMARK    7  A    between atoms: C_16  and  C_17 
REMARK    8  A    between atoms: C_27  and  N_28 
ROOT
HETATM    1  N   UNL     1       4.255  30.008  49.018  1.00  0.00    -0.275 N 
HETATM    2  C   UNL     1       4.300  30.098  50.435  1.00  0.00     0.177 A 
HETATM    3  N   UNL     1       4.828  31.077  51.129  1.00  0.00    -0.204 NA
HETATM    4  C   UNL     1       5.337  32.069  50.364  1.00  0.00     0.162 A 
HETATM    5  C   UNL     1       5.379  32.181  49.001  1.00  0.00     0.081 A 
HETATM    6  C   UNL     1       4.800  31.112  48.245  1.00  0.00     0.124 A 
HETATM    7  N   UNL     1       5.945  33.194  50.835  1.00  0.00    -0.260 N 
HETATM    8  H   UNL     1       6.090  33.463  51.802  1.00  0.00     0.191 HD
HETATM    9  N   UNL     1       6.403  34.001  49.851  1.00  0.00    -0.177 NA
HETATM   10  C   UNL     1       6.058  33.374  48.714  1.00  0.00     0.068 A 
HETATM   11  C   UNL     1       6.433  33.971  47.411  1.00  0.00     0.073 C 
ENDROOT
BRANCH   2  12
HETATM   12  S   UNL     1       3.646  28.765  51.413  1.00  0.00    -0.082 SA
BRANCH  12  13
HETATM   13  C   UNL     1       5.164  28.164  52.199  1.00  0.00     0.185 C 
BRANCH  13  14
HETATM   14  C   UNL     1       5.271  26.642  52.202  1.00  0.00     0.227 C 
HETATM   15  N   UNL     1       5.673  26.132  53.426  1.00  0.00    -0.360 N 
HETATM   16  H   UNL     1       6.106  26.764  54.090  1.00  0.00     0.162 HD
HETATM   17  O   UNL     1       4.996  25.925  51.246  1.00  0.00    -0.273 OA
BRANCH  15  18
HETATM   18  C   UNL     1       5.885  24.705  53.618  1.00  0.00     0.127 C 
BRANCH  18  19
HETATM   19  C   UNL     1       7.356  24.331  53.434  1.00  0.00     0.058 C 
BRANCH  19  20
HETATM   20  C   UNL     1       7.649  22.916  53.860  1.00  0.00    -0.057 A 
HETATM   21  C   UNL     1       7.980  21.939  52.912  1.00  0.00     0.007 A 
HETATM   22  C   UNL     1       8.251  20.629  53.312  1.00  0.00     0.001 A 
HETATM   23  C   UNL     1       8.188  20.282  54.660  1.00  0.00     0.000 A 
HETATM   24  C   UNL     1       7.853  21.244  55.610  1.00  0.00     0.001 A 
HETATM   25  C   UNL     1       7.582  22.556  55.213  1.00  0.00     0.007 A 
ENDBRANCH  19  20
ENDBRANCH  18  19
ENDBRANCH  15  18
ENDBRANCH  13  14
ENDBRANCH  12  13
ENDBRANCH   2  12
BRANCH   1  26
HETATM   26  C   UNL     1       3.871  28.796  48.367  1.00  0.00     0.051 A 
HETATM   27  C   UNL     1       2.588  28.618  47.802  1.00  0.00    -0.013 A 
HETATM   28  C   UNL     1       1.531  29.688  47.911  1.00  0.00     0.052 C 
HETATM   29  C   UNL     1       2.300  27.387  47.180  1.00  0.00     0.042 A 
HETATM   30 CL   UNL     1       0.740  27.046  46.516  1.00  0.00    -0.084 Cl
HETATM   31  C   UNL     1       3.270  26.386  47.075  1.00  0.00     0.024 A 
HETATM   32  C   UNL     1       4.542  26.583  47.600  1.00  0.00     0.004 A 
HETATM   33  C   UNL     1       4.840  27.780  48.244  1.00  0.00     0.031 A 
ENDBRANCH   1  26
BRANCH   6  34
HETATM   34  N   UNL     1       4.773  31.136  46.926  1.00  0.00    -0.384 N 
HETATM   35  H   UNL     1       4.005  31.546  46.417  1.00  0.00     0.157 HD
HETATM   36  H   UNL     1       5.526  30.707  46.404  1.00  0.00     0.157 HD
ENDBRANCH   6  34
TORSDOF 8
ENDMDL
MODEL 8
REMARK VINA RESULT:      -8.6      4.359      7.102
REMARK  8 active torsions:
REMARK  status: ('A' for Active; 'I' for Inactive)
REMARK    1  A    between atoms: C_8  and  N_9 
REMARK    2  A    between atoms: C_10  and  S_11 
REMARK    3  A    between atoms: S_11  and  C_12 
REMARK    4  A    between atoms: C_12  and  C_13 
REMARK       I    between atoms: C_13  and  N_14 
REMARK    5  A    between atoms: N_14  and  C_15 
REMARK    6  A    between atoms: C_15  and  C_16 
REMARK    7  A    between atoms: C_16  and  C_17 
REMARK    8  A    between atoms: C_27  and  N_28 
ROOT
HETATM    1  N   UNL     1       4.047  29.302  50.327  1.00  0.00    -0.275 N 
HETATM    2  C   UNL     1       4.779  28.188  50.816  1.00  0.00     0.177 A 
HETATM    3  N   UNL     1       4.684  26.953  50.383  1.00  0.00    -0.204 NA
HETATM    4  C   UNL     1       3.809  26.803  49.364  1.00  0.00     0.162 A 
HETATM    5  C   UNL     1       3.027  27.739  48.744  1.00  0.00     0.081 A 
HETATM    6  C   UNL     1       3.133  29.087  49.217  1.00  0.00     0.124 A 
HETATM    7  N   UNL     1       3.521  25.627  48.739  1.00  0.00    -0.260 N 
HETATM    8  H   UNL     1       3.919  24.712  48.924  1.00  0.00     0.191 HD
HETATM    9  N   UNL     1       2.575  25.752  47.781  1.00  0.00    -0.177 NA
HETATM   10  C   UNL     1       2.263  27.059  47.785  1.00  0.00     0.068 A 
HETATM   11  C   UNL     1       1.219  27.561  46.861  1.00  0.00     0.073 C 
ENDROOT
BRANCH   2  12
HETATM   12  S   UNL     1       5.903  28.412  52.174  1.00  0.00    -0.082 SA
BRANCH  12  13
HETATM   13  C   UNL     1       4.964  27.619  53.506  1.00  0.00     0.185 C 
BRANCH  13  14
HETATM   14  C   UNL     1       5.411  26.186  53.777  1.00  0.00     0.227 C 
HETATM   15  N   UNL     1       5.967  25.573  52.665  1.00  0.00    -0.360 N 
HETATM   16  H   UNL     1       5.793  25.984  51.756  1.00  0.00     0.162 HD
HETATM   17  O   UNL     1       5.332  25.628  54.868  1.00  0.00    -0.273 OA
BRANCH  15  18
HETATM   18  C   UNL     1       6.407  24.187  52.706  1.00  0.00     0.127 C 
BRANCH  18  19
HETATM   19  C   UNL     1       7.855  24.075  53.184  1.00  0.00     0.058 C 
BRANCH  19  20
HETATM   20  C   UNL     1       8.157  22.735  53.802  1.00  0.00    -0.057 A 
HETATM   21  C   UNL     1       8.061  21.561  53.043  1.00  0.00     0.007 A 
HETATM   22  C   UNL     1       8.341  20.321  53.621  1.00  0.00     0.001 A 
HETATM   23  C   UNL     1       8.714  20.243  54.961  1.00  0.00     0.000 A 
HETATM   24  C   UNL     1       8.805  21.403  55.726  1.00  0.00     0.001 A 
HETATM   25  C   UNL     1       8.526  22.645  55.152  1.00  0.00     0.007 A 
ENDBRANCH  19  20
ENDBRANCH  18  19
ENDBRANCH  15  18
ENDBRANCH  13  14
ENDBRANCH  12  13
ENDBRANCH   2  12
BRANCH   1  26
HETATM   26  C   UNL     1       4.051  30.551  51.021  1.00  0.00     0.051 A 
HETATM   27  C   UNL     1       4.945  31.593  50.690  1.00  0.00    -0.013 A 
HETATM   28  C   UNL     1       5.987  31.417  49.615  1.00  0.00     0.052 C 
HETATM   29  C   UNL     1       4.876  32.789  51.431  1.00  0.00     0.042 A 
HETATM   30 CL   UNL     1       5.968  34.101  51.147  1.00  0.00    -0.084 Cl
HETATM   31  C   UNL     1       3.917  32.965  52.432  1.00  0.00     0.024 A 
HETATM   32  C   UNL     1       3.015  31.948  52.727  1.00  0.00     0.004 A 
HETATM   33  C   UNL     1       3.084  30.747  52.027  1.00  0.00     0.031 A 
ENDBRANCH   1  26
BRANCH   6  34
HETATM   34  N   UNL     1       2.436  30.066  48.672  1.00  0.00    -0.384 N 
HETATM   35  H   UNL     1       1.536  30.343  49.034  1.00  0.00     0.157 HD
HETATM   36  H   UNL     1       2.793  30.536  47.850  1.00  0.00     0.157 HD
ENDBRANCH   6  34
TORSDOF 8
ENDMDL
MODEL 9
REMARK VINA RESULT:      -8.6      4.127      5.997
REMARK  8 active torsions:
REMARK  status: ('A' for Active; 'I' for Inactive)
REMARK    1  A    between atoms: C_8  and  N_9 
REMARK    2  A    between atoms: C_10  and  S_11 
REMARK    3  A    between atoms: S_11  and  C_12 
REMARK    4  A    between atoms: C_12  and  C_13 
REMARK       I    between atoms: C_13  and  N_14 
REMARK    5  A    between atoms: N_14  and  C_15 
REMARK    6  A    between atoms: C_15  and  C_16 
REMARK    7  A    between atoms: C_16  and  C_17 
REMARK    8  A    between atoms: C_27  and  N_28 
ROOT
HETATM    1  N   UNL     1       3.609  29.821  50.622  1.00  0.00    -0.275 N 
HETATM    2  C   UNL     1       4.685  28.975  51.004  1.00  0.00     0.177 A 
HETATM    3  N   UNL     1       5.212  28.892  52.202  1.00  0.00    -0.204 NA
HETATM    4  C   UNL     1       4.616  29.694  53.112  1.00  0.00     0.162 A 
HETATM    5  C   UNL     1       3.569  30.561  52.954  1.00  0.00     0.081 A 
HETATM    6  C   UNL     1       2.993  30.648  51.645  1.00  0.00     0.124 A 
HETATM    7  N   UNL     1       4.974  29.802  54.422  1.00  0.00    -0.260 N 
HETATM    8  H   UNL     1       5.709  29.300  54.908  1.00  0.00     0.191 HD
HETATM    9  N   UNL     1       4.239  30.712  55.100  1.00  0.00    -0.177 NA
HETATM   10  C   UNL     1       3.371  31.188  54.192  1.00  0.00     0.068 A 
HETATM   11  C   UNL     1       2.410  32.244  54.587  1.00  0.00     0.073 C 
ENDROOT
BRANCH   2  12
HETATM   12  S   UNL     1       5.465  27.951  49.778  1.00  0.00    -0.082 SA
BRANCH  12  13
HETATM   13  C   UNL     1       4.679  26.359  50.138  1.00  0.00     0.185 C 
BRANCH  13  14
HETATM   14  C   UNL     1       5.284  25.657  51.350  1.00  0.00     0.227 C 
HETATM   15  N   UNL     1       6.603  26.016  51.580  1.00  0.00    -0.360 N 
HETATM   16  H   UNL     1       7.116  26.461  50.829  1.00  0.00     0.162 HD
HETATM   17  O   UNL     1       4.674  24.883  52.081  1.00  0.00    -0.273 OA
BRANCH  15  18
HETATM   18  C   UNL     1       7.374  25.416  52.659  1.00  0.00     0.127 C 
BRANCH  18  19
HETATM   19  C   UNL     1       7.986  24.083  52.230  1.00  0.00     0.058 C 
BRANCH  19  20
HETATM   20  C   UNL     1       7.901  23.034  53.309  1.00  0.00    -0.057 A 
HETATM   21  C   UNL     1       8.002  21.673  52.991  1.00  0.00     0.007 A 
HETATM   22  C   UNL     1       7.920  20.706  53.994  1.00  0.00     0.001 A 
HETATM   23  C   UNL     1       7.734  21.088  55.321  1.00  0.00     0.000 A 
HETATM   24  C   UNL     1       7.625  22.438  55.647  1.00  0.00     0.001 A 
HETATM   25  C   UNL     1       7.705  23.408  54.646  1.00  0.00     0.007 A 
ENDBRANCH  19  20
ENDBRANCH  18  19
ENDBRANCH  15  18
ENDBRANCH  13  14
ENDBRANCH  12  13
ENDBRANCH   2  12
BRANCH   1  26
HETATM   26  C   UNL     1       3.268  30.006  49.247  1.00  0.00     0.051 A 
HETATM   27  C   UNL     1       2.234  29.275  48.622  1.00  0.00    -0.013 A 
HETATM   28  C   UNL     1       1.469  28.210  49.367  1.00  0.00     0.052 C 
HETATM   29  C   UNL     1       1.970  29.525  47.261  1.00  0.00     0.042 A 
HETATM   30 CL   UNL     1       0.769  28.638  46.388  1.00  0.00    -0.084 Cl
HETATM   31  C   UNL     1       2.673  30.508  46.557  1.00  0.00     0.024 A 
HETATM   32  C   UNL     1       3.665  31.250  47.190  1.00  0.00     0.004 A 
HETATM   33  C   UNL     1       3.962  30.999  48.526  1.00  0.00     0.031 A 
ENDBRANCH   1  26
BRANCH   6  34
HETATM   34  N   UNL     1       1.967  31.439  51.395  1.00  0.00    -0.384 N 
HETATM   35  H   UNL     1       1.962  32.408  51.675  1.00  0.00     0.157 HD
HETATM   36  H   UNL     1       1.147  31.063  50.936  1.00  0.00     0.157 HD
ENDBRANCH   6  34
TORSDOF 8
ENDMDL
MODEL 10
REMARK VINA RESULT:      -8.5      2.686      6.989
REMARK  8 active torsions:
REMARK  status: ('A' for Active; 'I' for Inactive)
REMARK    1  A    between atoms: C_8  and  N_9 
REMARK    2  A    between atoms: C_10  and  S_11 
REMARK    3  A    between atoms: S_11  and  C_12 
REMARK    4  A    between atoms: C_12  and  C_13 
REMARK       I    between atoms: C_13  and  N_14 
REMARK    5  A    between atoms: N_14  and  C_15 
REMARK    6  A    between atoms: C_15  and  C_16 
REMARK    7  A    between atoms: C_16  and  C_17 
REMARK    8  A    between atoms: C_27  and  N_28 
ROOT
HETATM    1  N   UNL     1       6.584  26.192  54.135  1.00  0.00    -0.275 N 
HETATM    2  C   UNL     1       6.014  26.446  55.410  1.00  0.00     0.177 A 
HETATM    3  N   UNL     1       6.242  25.764  56.507  1.00  0.00    -0.204 NA
HETATM    4  C   UNL     1       7.126  24.755  56.341  1.00  0.00     0.162 A 
HETATM    5  C   UNL     1       7.792  24.358  55.214  1.00  0.00     0.081 A 
HETATM    6  C   UNL     1       7.544  25.106  54.018  1.00  0.00     0.124 A 
HETATM    7  N   UNL     1       7.530  23.893  57.317  1.00  0.00    -0.260 N 
HETATM    8  H   UNL     1       7.252  23.886  58.292  1.00  0.00     0.191 HD
HETATM    9  N   UNL     1       8.387  22.949  56.869  1.00  0.00    -0.177 NA
HETATM   10  C   UNL     1       8.548  23.230  55.565  1.00  0.00     0.068 A 
HETATM   11  C   UNL     1       9.419  22.366  54.736  1.00  0.00     0.073 C 
ENDROOT
BRANCH   2  12
HETATM   12  S   UNL     1       4.835  27.765  55.590  1.00  0.00    -0.082 SA
BRANCH  12  13
HETATM   13  C   UNL     1       5.415  28.509  57.137  1.00  0.00     0.185 C 
BRANCH  13  14
HETATM   14  C   UNL     1       6.780  29.177  57.001  1.00  0.00     0.227 C 
HETATM   15  N   UNL     1       7.514  29.149  58.176  1.00  0.00    -0.360 N 
HETATM   16  H   UNL     1       7.024  28.958  59.042  1.00  0.00     0.162 HD
HETATM   17  O   UNL     1       7.216  29.660  55.961  1.00  0.00    -0.273 OA
BRANCH  15  18
HETATM   18  C   UNL     1       8.822  29.781  58.266  1.00  0.00     0.127 C 
BRANCH  18  19
HETATM   19  C   UNL     1       8.702  31.255  58.652  1.00  0.00     0.058 C 
BRANCH  19  20
HETATM   20  C   UNL     1       8.489  31.450  60.131  1.00  0.00    -0.057 A 
HETATM   21  C   UNL     1       9.062  30.567  61.056  1.00  0.00     0.007 A 
HETATM   22  C   UNL     1       8.861  30.750  62.426  1.00  0.00     0.001 A 
HETATM   23  C   UNL     1       8.083  31.813  62.882  1.00  0.00     0.000 A 
HETATM   24  C   UNL     1       7.504  32.691  61.970  1.00  0.00     0.001 A 
HETATM   25  C   UNL     1       7.703  32.511  60.600  1.00  0.00     0.007 A 
ENDBRANCH  19  20
ENDBRANCH  18  19
ENDBRANCH  15  18
ENDBRANCH  13  14
ENDBRANCH  12  13
ENDBRANCH   2  12
BRANCH   1  26
HETATM   26  C   UNL     1       6.092  26.844  52.963  1.00  0.00     0.051 A 
HETATM   27  C   UNL     1       5.291  26.176  52.010  1.00  0.00    -0.013 A 
HETATM   28  C   UNL     1       4.960  24.713  52.155  1.00  0.00     0.052 C 
HETATM   29  C   UNL     1       4.852  26.901  50.884  1.00  0.00     0.042 A 
HETATM   30 CL   UNL     1       3.921  26.159  49.629  1.00  0.00    -0.084 Cl
HETATM   31  C   UNL     1       5.154  28.258  50.736  1.00  0.00     0.024 A 
HETATM   32  C   UNL     1       5.912  28.918  51.697  1.00  0.00     0.004 A 
HETATM   33  C   UNL     1       6.381  28.214  52.803  1.00  0.00     0.031 A 
ENDBRANCH   1  26
BRANCH   6  34
HETATM   34  N   UNL     1       8.152  24.815  52.884  1.00  0.00    -0.384 N 
HETATM   35  H   UNL     1       8.591  25.525  52.319  1.00  0.00     0.157 HD
HETATM   36  H   UNL     1       8.156  23.859  52.552  1.00  0.00     0.157 HD
ENDBRANCH   6  34
TORSDOF 8
ENDMDL
