MODEL 1
REMARK VINA RESULT:      -7.4      0.000      0.000
REMARK  6 active torsions:
REMARK  status: ('A' for Active; 'I' for Inactive)
REMARK    1  A    between atoms: C_2  and  O_3 
REMARK    2  A    between atoms: O_3  and  C_4 
REMARK    3  A    between atoms: C_4  and  C_5 
REMARK    4  A    between atoms: C_6  and  O_7 
REMARK    5  A    between atoms: C_12  and  O_13 
REMARK    6  A    between atoms: C_17  and  C_18 
ROOT
HETATM    1  C   UNL     1       5.036  28.096  54.469  1.00  0.00     0.133 C 
HETATM    2  C   UNL     1       5.076  29.462  55.239  1.00  0.00     0.073 C 
HETATM    3  C   UNL     1       3.913  29.520  56.249  1.00  0.00     0.047 C 
HETATM    4  C   UNL     1       6.426  29.718  55.971  1.00  0.00     0.097 C 
HETATM    5  C   UNL     1       6.835  28.493  56.689  1.00  0.00     0.042 A 
HETATM    6  C   UNL     1       6.442  27.203  56.405  1.00  0.00     0.030 A 
HETATM    7  C   UNL     1       7.045  26.455  57.430  1.00  0.00     0.190 A 
HETATM    8  N   UNL     1       7.765  27.187  58.272  1.00  0.00    -0.149 NA
HETATM    9  N   UNL     1       7.634  28.435  57.792  1.00  0.00    -0.279 N 
HETATM   10  H   UNL     1       8.100  29.190  58.286  1.00  0.00     0.189 HD
HETATM   11  C   UNL     1       5.500  26.856  55.294  1.00  0.00     0.074 C 
ENDROOT
BRANCH  11  12
HETATM   12  C   UNL     1       6.150  25.725  54.506  1.00  0.00    -0.048 A 
HETATM   13  C   UNL     1       5.348  24.893  53.706  1.00  0.00     0.011 A 
HETATM   14  C   UNL     1       5.915  23.854  52.965  1.00  0.00     0.043 A 
HETATM   15  C   UNL     1       7.288  23.645  53.010  1.00  0.00     0.116 A 
HETATM   16  F   UNL     1       7.828  22.647  52.298  1.00  0.00    -0.206 F 
HETATM   17  C   UNL     1       8.106  24.456  53.781  1.00  0.00     0.043 A 
HETATM   18  C   UNL     1       7.542  25.496  54.521  1.00  0.00     0.011 A 
ENDBRANCH  11  12
BRANCH   1  19
HETATM   19  C   UNL     1       5.761  28.231  53.146  1.00  0.00     0.267 C 
HETATM   20  O   UNL     1       6.946  28.510  53.024  1.00  0.00    -0.265 OA
BRANCH  19  21
HETATM   21  O   UNL     1       4.883  28.051  52.119  1.00  0.00    -0.316 OA
BRANCH  21  22
HETATM   22  C   UNL     1       5.445  27.798  50.817  1.00  0.00     0.123 C 
HETATM   23  C   UNL     1       4.969  28.862  49.833  1.00  0.00     0.040 C 
HETATM   24  C   UNL     1       4.955  26.420  50.388  1.00  0.00     0.040 C 
ENDBRANCH  21  22
ENDBRANCH  19  21
ENDBRANCH   1  19
BRANCH   2  25
HETATM   25  O   UNL     1       4.825  30.552  54.334  1.00  0.00    -0.389 OA
HETATM   26  H   UNL     1       5.614  30.663  53.767  1.00  0.00     0.210 HD
ENDBRANCH   2  25
BRANCH   7  27
HETATM   27  O   UNL     1       6.994  25.144  57.677  1.00  0.00    -0.343 OA
HETATM   28  H   UNL     1       7.121  24.652  56.852  1.00  0.00     0.219 HD
ENDBRANCH   7  27
TORSDOF 6
ENDMDL
MODEL 2
REMARK VINA RESULT:      -7.3      2.017      4.491
REMARK  6 active torsions:
REMARK  status: ('A' for Active; 'I' for Inactive)
REMARK    1  A    between atoms: C_2  and  O_3 
REMARK    2  A    between atoms: O_3  and  C_4 
REMARK    3  A    between atoms: C_4  and  C_5 
REMARK    4  A    between atoms: C_6  and  O_7 
REMARK    5  A    between atoms: C_12  and  O_13 
REMARK    6  A    between atoms: C_17  and  C_18 
ROOT
HETATM    1  C   UNL     1       7.814  26.436  55.573  1.00  0.00     0.133 C 
HETATM    2  C   UNL     1       7.980  26.918  57.056  1.00  0.00     0.073 C 
HETATM    3  C   UNL     1       8.811  28.216  57.087  1.00  0.00     0.047 C 
HETATM    4  C   UNL     1       6.625  27.140  57.789  1.00  0.00     0.097 C 
HETATM    5  C   UNL     1       5.706  27.887  56.904  1.00  0.00     0.042 A 
HETATM    6  C   UNL     1       5.763  27.957  55.529  1.00  0.00     0.030 A 
HETATM    7  C   UNL     1       4.726  28.852  55.214  1.00  0.00     0.190 A 
HETATM    8  N   UNL     1       4.062  29.295  56.275  1.00  0.00    -0.149 NA
HETATM    9  N   UNL     1       4.670  28.680  57.304  1.00  0.00    -0.279 N 
HETATM   10  H   UNL     1       4.336  28.872  58.243  1.00  0.00     0.189 HD
HETATM   11  C   UNL     1       6.813  27.268  54.713  1.00  0.00     0.074 C 
ENDROOT
BRANCH  11  12
HETATM   12  C   UNL     1       6.084  26.516  53.607  1.00  0.00    -0.048 A 
HETATM   13  C   UNL     1       6.464  26.719  52.269  1.00  0.00     0.011 A 
HETATM   14  C   UNL     1       5.822  26.036  51.233  1.00  0.00     0.043 A 
HETATM   15  C   UNL     1       4.802  25.140  51.527  1.00  0.00     0.116 A 
HETATM   16  F   UNL     1       4.187  24.488  50.531  1.00  0.00    -0.206 F 
HETATM   17  C   UNL     1       4.412  24.910  52.838  1.00  0.00     0.043 A 
HETATM   18  C   UNL     1       5.054  25.590  53.874  1.00  0.00     0.011 A 
ENDBRANCH  11  12
BRANCH   1  19
HETATM   19  C   UNL     1       7.523  24.950  55.546  1.00  0.00     0.267 C 
HETATM   20  O   UNL     1       6.730  24.379  56.284  1.00  0.00    -0.265 OA
BRANCH  19  21
HETATM   21  O   UNL     1       8.315  24.342  54.618  1.00  0.00    -0.316 OA
BRANCH  21  22
HETATM   22  C   UNL     1       7.967  22.995  54.245  1.00  0.00     0.123 C 
HETATM   23  C   UNL     1       9.128  22.056  54.557  1.00  0.00     0.040 C 
HETATM   24  C   UNL     1       7.686  23.013  52.747  1.00  0.00     0.040 C 
ENDBRANCH  21  22
ENDBRANCH  19  21
ENDBRANCH   1  19
BRANCH   2  25
HETATM   25  O   UNL     1       8.761  25.969  57.804  1.00  0.00    -0.389 OA
HETATM   26  H   UNL     1       9.678  26.306  57.858  1.00  0.00     0.210 HD
ENDBRANCH   2  25
BRANCH   7  27
HETATM   27  O   UNL     1       4.327  29.316  54.028  1.00  0.00    -0.343 OA
HETATM   28  H   UNL     1       5.091  29.402  53.438  1.00  0.00     0.219 HD
ENDBRANCH   7  27
TORSDOF 6
ENDMDL
MODEL 3
REMARK VINA RESULT:      -7.2      7.396     10.342
REMARK  6 active torsions:
REMARK  status: ('A' for Active; 'I' for Inactive)
REMARK    1  A    between atoms: C_2  and  O_3 
REMARK    2  A    between atoms: O_3  and  C_4 
REMARK    3  A    between atoms: C_4  and  C_5 
REMARK    4  A    between atoms: C_6  and  O_7 
REMARK    5  A    between atoms: C_12  and  O_13 
REMARK    6  A    between atoms: C_17  and  C_18 
ROOT
HETATM    1  C   UNL     1       4.719  33.485  62.401  1.00  0.00     0.133 C 
HETATM    2  C   UNL     1       3.879  34.116  63.565  1.00  0.00     0.073 C 
HETATM    3  C   UNL     1       4.192  35.621  63.671  1.00  0.00     0.047 C 
HETATM    4  C   UNL     1       2.344  33.905  63.403  1.00  0.00     0.097 C 
HETATM    5  C   UNL     1       1.952  34.203  62.010  1.00  0.00     0.042 A 
HETATM    6  C   UNL     1       2.770  34.175  60.901  1.00  0.00     0.030 A 
HETATM    7  C   UNL     1       1.923  34.617  59.871  1.00  0.00     0.190 A 
HETATM    8  N   UNL     1       0.686  34.883  60.274  1.00  0.00    -0.149 NA
HETATM    9  N   UNL     1       0.720  34.610  61.589  1.00  0.00    -0.279 N 
HETATM   10  H   UNL     1      -0.127  34.749  62.131  1.00  0.00     0.189 HD
HETATM   11  C   UNL     1       4.227  33.837  60.962  1.00  0.00     0.074 C 
ENDROOT
BRANCH  11  12
HETATM   12  C   UNL     1       4.478  32.786  59.887  1.00  0.00    -0.048 A 
HETATM   13  C   UNL     1       5.727  32.744  59.243  1.00  0.00     0.011 A 
HETATM   14  C   UNL     1       5.990  31.787  58.260  1.00  0.00     0.043 A 
HETATM   15  C   UNL     1       5.013  30.860  57.921  1.00  0.00     0.116 A 
HETATM   16  F   UNL     1       5.269  29.944  56.977  1.00  0.00    -0.206 F 
HETATM   17  C   UNL     1       3.776  30.869  58.547  1.00  0.00     0.043 A 
HETATM   18  C   UNL     1       3.511  31.823  59.531  1.00  0.00     0.011 A 
ENDBRANCH  11  12
BRANCH   1  19
HETATM   19  C   UNL     1       4.871  31.995  62.626  1.00  0.00     0.267 C 
HETATM   20  O   UNL     1       3.944  31.197  62.667  1.00  0.00    -0.265 OA
BRANCH  19  21
HETATM   21  O   UNL     1       6.184  31.691  62.831  1.00  0.00    -0.316 OA
BRANCH  21  22
HETATM   22  C   UNL     1       7.130  32.770  62.711  1.00  0.00     0.123 C 
HETATM   23  C   UNL     1       8.235  32.382  61.733  1.00  0.00     0.040 C 
HETATM   24  C   UNL     1       7.708  33.003  64.102  1.00  0.00     0.040 C 
ENDBRANCH  21  22
ENDBRANCH  19  21
ENDBRANCH   1  19
BRANCH   2  25
HETATM   25  O   UNL     1       4.291  33.569  64.830  1.00  0.00    -0.389 OA
HETATM   26  H   UNL     1       3.497  33.482  65.396  1.00  0.00     0.210 HD
ENDBRANCH   2  25
BRANCH   7  27
HETATM   27  O   UNL     1       2.179  34.810  58.575  1.00  0.00    -0.343 OA
HETATM   28  H   UNL     1       2.269  33.954  58.130  1.00  0.00     0.219 HD
ENDBRANCH   7  27
TORSDOF 6
ENDMDL
MODEL 4
REMARK VINA RESULT:      -7.2      2.875      4.906
REMARK  6 active torsions:
REMARK  status: ('A' for Active; 'I' for Inactive)
REMARK    1  A    between atoms: C_2  and  O_3 
REMARK    2  A    between atoms: O_3  and  C_4 
REMARK    3  A    between atoms: C_4  and  C_5 
REMARK    4  A    between atoms: C_6  and  O_7 
REMARK    5  A    between atoms: C_12  and  O_13 
REMARK    6  A    between atoms: C_17  and  C_18 
ROOT
HETATM    1  C   UNL     1       6.869  26.727  53.279  1.00  0.00     0.133 C 
HETATM    2  C   UNL     1       6.805  25.328  52.573  1.00  0.00     0.073 C 
HETATM    3  C   UNL     1       8.205  24.946  52.056  1.00  0.00     0.047 C 
HETATM    4  C   UNL     1       6.253  24.198  53.492  1.00  0.00     0.097 C 
HETATM    5  C   UNL     1       6.896  24.288  54.819  1.00  0.00     0.042 A 
HETATM    6  C   UNL     1       7.476  25.406  55.379  1.00  0.00     0.030 A 
HETATM    7  C   UNL     1       7.999  24.920  56.590  1.00  0.00     0.190 A 
HETATM    8  N   UNL     1       7.762  23.630  56.793  1.00  0.00    -0.149 NA
HETATM    9  N   UNL     1       7.071  23.262  55.701  1.00  0.00    -0.279 N 
HETATM   10  H   UNL     1       6.778  22.293  55.622  1.00  0.00     0.189 HD
HETATM   11  C   UNL     1       7.548  26.731  54.684  1.00  0.00     0.074 C 
ENDROOT
BRANCH  11  12
HETATM   12  C   UNL     1       7.044  27.773  55.675  1.00  0.00    -0.048 A 
HETATM   13  C   UNL     1       7.719  29.000  55.787  1.00  0.00     0.011 A 
HETATM   14  C   UNL     1       7.276  29.979  56.680  1.00  0.00     0.043 A 
HETATM   15  C   UNL     1       6.150  29.743  57.460  1.00  0.00     0.116 A 
HETATM   16  F   UNL     1       5.729  30.683  58.315  1.00  0.00    -0.206 F 
HETATM   17  C   UNL     1       5.457  28.546  57.363  1.00  0.00     0.043 A 
HETATM   18  C   UNL     1       5.897  27.567  56.471  1.00  0.00     0.011 A 
ENDBRANCH  11  12
BRANCH   1  19
HETATM   19  C   UNL     1       5.494  27.363  53.286  1.00  0.00     0.267 C 
HETATM   20  O   UNL     1       4.449  26.766  53.512  1.00  0.00    -0.265 OA
BRANCH  19  21
HETATM   21  O   UNL     1       5.593  28.680  52.947  1.00  0.00    -0.316 OA
BRANCH  21  22
HETATM   22  C   UNL     1       4.371  29.440  52.917  1.00  0.00     0.123 C 
HETATM   23  C   UNL     1       4.385  30.395  51.727  1.00  0.00     0.040 C 
HETATM   24  C   UNL     1       4.307  30.220  54.224  1.00  0.00     0.040 C 
ENDBRANCH  21  22
ENDBRANCH  19  21
ENDBRANCH   1  19
BRANCH   2  25
HETATM   25  O   UNL     1       5.989  25.404  51.391  1.00  0.00    -0.389 OA
HETATM   26  H   UNL     1       6.353  26.106  50.815  1.00  0.00     0.210 HD
ENDBRANCH   2  25
BRANCH   7  27
HETATM   27  O   UNL     1       8.689  25.554  57.540  1.00  0.00    -0.343 OA
HETATM   28  H   UNL     1       9.449  26.007  57.143  1.00  0.00     0.219 HD
ENDBRANCH   7  27
TORSDOF 6
ENDMDL
MODEL 5
REMARK VINA RESULT:      -6.9      1.718      2.553
REMARK  6 active torsions:
REMARK  status: ('A' for Active; 'I' for Inactive)
REMARK    1  A    between atoms: C_2  and  O_3 
REMARK    2  A    between atoms: O_3  and  C_4 
REMARK    3  A    between atoms: C_4  and  C_5 
REMARK    4  A    between atoms: C_6  and  O_7 
REMARK    5  A    between atoms: C_12  and  O_13 
REMARK    6  A    between atoms: C_17  and  C_18 
ROOT
HETATM    1  C   UNL     1       6.358  26.224  53.617  1.00  0.00     0.133 C 
HETATM    2  C   UNL     1       6.291  27.720  54.082  1.00  0.00     0.073 C 
HETATM    3  C   UNL     1       4.965  27.971  54.827  1.00  0.00     0.047 C 
HETATM    4  C   UNL     1       7.491  28.142  54.981  1.00  0.00     0.097 C 
HETATM    5  C   UNL     1       7.731  27.098  55.999  1.00  0.00     0.042 A 
HETATM    6  C   UNL     1       7.364  25.772  55.921  1.00  0.00     0.030 A 
HETATM    7  C   UNL     1       7.751  25.261  57.172  1.00  0.00     0.190 A 
HETATM    8  N   UNL     1       8.322  26.162  57.962  1.00  0.00    -0.149 NA
HETATM    9  N   UNL     1       8.313  27.281  57.219  1.00  0.00    -0.279 N 
HETATM   10  H   UNL     1       8.700  28.129  57.623  1.00  0.00     0.189 HD
HETATM   11  C   UNL     1       6.632  25.189  54.751  1.00  0.00     0.074 C 
ENDROOT
BRANCH  11  12
HETATM   12  C   UNL     1       7.387  23.928  54.347  1.00  0.00    -0.048 A 
HETATM   13  C   UNL     1       8.630  23.649  54.941  1.00  0.00     0.011 A 
HETATM   14  C   UNL     1       9.341  22.497  54.598  1.00  0.00     0.043 A 
HETATM   15  C   UNL     1       8.812  21.610  53.669  1.00  0.00     0.116 A 
HETATM   16  F   UNL     1       9.497  20.507  53.342  1.00  0.00    -0.206 F 
HETATM   17  C   UNL     1       7.582  21.853  53.075  1.00  0.00     0.043 A 
HETATM   18  C   UNL     1       6.869  23.003  53.417  1.00  0.00     0.011 A 
ENDBRANCH  11  12
BRANCH   1  19
HETATM   19  C   UNL     1       7.316  26.091  52.451  1.00  0.00     0.267 C 
HETATM   20  O   UNL     1       8.516  26.329  52.502  1.00  0.00    -0.265 OA
BRANCH  19  21
HETATM   21  O   UNL     1       6.632  25.724  51.331  1.00  0.00    -0.316 OA
BRANCH  21  22
HETATM   22  C   UNL     1       5.204  25.906  51.350  1.00  0.00     0.123 C 
HETATM   23  C   UNL     1       4.511  24.553  51.480  1.00  0.00     0.040 C 
HETATM   24  C   UNL     1       4.829  26.571  50.031  1.00  0.00     0.040 C 
ENDBRANCH  21  22
ENDBRANCH  19  21
ENDBRANCH   1  19
BRANCH   2  25
HETATM   25  O   UNL     1       6.238  28.595  52.941  1.00  0.00    -0.389 OA
HETATM   26  H   UNL     1       7.018  29.184  52.974  1.00  0.00     0.210 HD
ENDBRANCH   2  25
BRANCH   7  27
HETATM   27  O   UNL     1       7.622  24.030  57.670  1.00  0.00    -0.343 OA
HETATM   28  H   UNL     1       7.918  24.020  58.593  1.00  0.00     0.219 HD
ENDBRANCH   7  27
TORSDOF 6
ENDMDL
MODEL 6
REMARK VINA RESULT:      -6.8      3.318      5.387
REMARK  6 active torsions:
REMARK  status: ('A' for Active; 'I' for Inactive)
REMARK    1  A    between atoms: C_2  and  O_3 
REMARK    2  A    between atoms: O_3  and  C_4 
REMARK    3  A    between atoms: C_4  and  C_5 
REMARK    4  A    between atoms: C_6  and  O_7 
REMARK    5  A    between atoms: C_12  and  O_13 
REMARK    6  A    between atoms: C_17  and  C_18 
ROOT
HETATM    1  C   UNL     1       5.289  29.080  52.556  1.00  0.00     0.133 C 
HETATM    2  C   UNL     1       4.255  30.179  52.130  1.00  0.00     0.073 C 
HETATM    3  C   UNL     1       4.911  31.143  51.122  1.00  0.00     0.047 C 
HETATM    4  C   UNL     1       2.945  29.593  51.526  1.00  0.00     0.097 C 
HETATM    5  C   UNL     1       3.284  28.532  50.555  1.00  0.00     0.042 A 
HETATM    6  C   UNL     1       4.449  27.795  50.515  1.00  0.00     0.030 A 
HETATM    7  C   UNL     1       4.285  27.005  49.364  1.00  0.00     0.190 A 
HETATM    8  N   UNL     1       3.128  27.201  48.743  1.00  0.00    -0.149 NA
HETATM    9  N   UNL     1       2.521  28.133  49.497  1.00  0.00    -0.279 N 
HETATM   10  H   UNL     1       1.604  28.459  49.211  1.00  0.00     0.189 HD
HETATM   11  C   UNL     1       5.578  27.988  51.480  1.00  0.00     0.074 C 
ENDROOT
BRANCH  11  12
HETATM   12  C   UNL     1       5.947  26.605  52.003  1.00  0.00    -0.048 A 
HETATM   13  C   UNL     1       7.303  26.257  52.132  1.00  0.00     0.011 A 
HETATM   14  C   UNL     1       7.674  25.001  52.618  1.00  0.00     0.043 A 
HETATM   15  C   UNL     1       6.694  24.088  52.985  1.00  0.00     0.116 A 
HETATM   16  F   UNL     1       7.053  22.883  53.449  1.00  0.00    -0.206 F 
HETATM   17  C   UNL     1       5.348  24.406  52.880  1.00  0.00     0.043 A 
HETATM   18  C   UNL     1       4.976  25.661  52.397  1.00  0.00     0.011 A 
ENDBRANCH  11  12
BRANCH   1  19
HETATM   19  C   UNL     1       4.896  28.498  53.898  1.00  0.00     0.267 C 
HETATM   20  O   UNL     1       3.758  28.179  54.215  1.00  0.00    -0.265 OA
BRANCH  19  21
HETATM   21  O   UNL     1       5.988  28.439  54.712  1.00  0.00    -0.316 OA
BRANCH  21  22
HETATM   22  C   UNL     1       5.912  27.549  55.841  1.00  0.00     0.123 C 
HETATM   23  C   UNL     1       5.825  28.357  57.132  1.00  0.00     0.040 C 
HETATM   24  C   UNL     1       7.184  26.709  55.824  1.00  0.00     0.040 C 
ENDBRANCH  21  22
ENDBRANCH  19  21
ENDBRANCH   1  19
BRANCH   2  25
HETATM   25  O   UNL     1       3.915  31.008  53.256  1.00  0.00    -0.389 OA
HETATM   26  H   UNL     1       3.141  31.552  53.009  1.00  0.00     0.210 HD
ENDBRANCH   2  25
BRANCH   7  27
HETATM   27  O   UNL     1       5.110  26.111  48.815  1.00  0.00    -0.343 OA
HETATM   28  H   UNL     1       6.012  26.260  49.136  1.00  0.00     0.219 HD
ENDBRANCH   7  27
TORSDOF 6
ENDMDL
MODEL 7
REMARK VINA RESULT:      -6.8      2.957      5.405
REMARK  6 active torsions:
REMARK  status: ('A' for Active; 'I' for Inactive)
REMARK    1  A    between atoms: C_2  and  O_3 
REMARK    2  A    between atoms: O_3  and  C_4 
REMARK    3  A    between atoms: C_4  and  C_5 
REMARK    4  A    between atoms: C_6  and  O_7 
REMARK    5  A    between atoms: C_12  and  O_13 
REMARK    6  A    between atoms: C_17  and  C_18 
ROOT
HETATM    1  C   UNL     1       6.429  27.509  56.020  1.00  0.00     0.133 C 
HETATM    2  C   UNL     1       7.368  26.418  56.642  1.00  0.00     0.073 C 
HETATM    3  C   UNL     1       6.548  25.496  57.565  1.00  0.00     0.047 C 
HETATM    4  C   UNL     1       8.117  25.567  55.575  1.00  0.00     0.097 C 
HETATM    5  C   UNL     1       7.167  25.159  54.518  1.00  0.00     0.042 A 
HETATM    6  C   UNL     1       5.982  25.783  54.191  1.00  0.00     0.030 A 
HETATM    7  C   UNL     1       5.447  24.947  53.197  1.00  0.00     0.190 A 
HETATM    8  N   UNL     1       6.218  23.906  52.903  1.00  0.00    -0.149 NA
HETATM    9  N   UNL     1       7.277  24.061  53.716  1.00  0.00    -0.279 N 
HETATM   10  H   UNL     1       8.016  23.366  53.679  1.00  0.00     0.189 HD
HETATM   11  C   UNL     1       5.471  26.999  54.900  1.00  0.00     0.074 C 
ENDROOT
BRANCH  11  12
HETATM   12  C   UNL     1       5.094  28.008  53.822  1.00  0.00    -0.048 A 
HETATM   13  C   UNL     1       3.970  28.830  54.010  1.00  0.00     0.011 A 
HETATM   14  C   UNL     1       3.605  29.771  53.044  1.00  0.00     0.043 A 
HETATM   15  C   UNL     1       4.365  29.904  51.889  1.00  0.00     0.116 A 
HETATM   16  F   UNL     1       4.011  30.806  50.964  1.00  0.00    -0.206 F 
HETATM   17  C   UNL     1       5.486  29.114  51.680  1.00  0.00     0.043 A 
HETATM   18  C   UNL     1       5.854  28.175  52.645  1.00  0.00     0.011 A 
ENDBRANCH  11  12
BRANCH   1  19
HETATM   19  C   UNL     1       7.249  28.710  55.595  1.00  0.00     0.267 C 
HETATM   20  O   UNL     1       8.298  28.653  54.967  1.00  0.00    -0.265 OA
BRANCH  19  21
HETATM   21  O   UNL     1       6.672  29.852  56.066  1.00  0.00    -0.316 OA
BRANCH  21  22
HETATM   22  C   UNL     1       6.120  29.804  57.395  1.00  0.00     0.123 C 
HETATM   23  C   UNL     1       4.803  30.573  57.436  1.00  0.00     0.040 C 
HETATM   24  C   UNL     1       7.143  30.452  58.319  1.00  0.00     0.040 C 
ENDBRANCH  21  22
ENDBRANCH  19  21
ENDBRANCH   1  19
BRANCH   2  25
HETATM   25  O   UNL     1       8.339  27.031  57.510  1.00  0.00    -0.389 OA
HETATM   26  H   UNL     1       8.707  27.811  57.049  1.00  0.00     0.210 HD
ENDBRANCH   2  25
BRANCH   7  27
HETATM   27  O   UNL     1       4.299  25.043  52.524  1.00  0.00    -0.343 OA
HETATM   28  H   UNL     1       3.680  25.605  53.015  1.00  0.00     0.219 HD
ENDBRANCH   7  27
TORSDOF 6
ENDMDL
MODEL 8
REMARK VINA RESULT:      -6.6      3.542      6.470
REMARK  6 active torsions:
REMARK  status: ('A' for Active; 'I' for Inactive)
REMARK    1  A    between atoms: C_2  and  O_3 
REMARK    2  A    between atoms: O_3  and  C_4 
REMARK    3  A    between atoms: C_4  and  C_5 
REMARK    4  A    between atoms: C_6  and  O_7 
REMARK    5  A    between atoms: C_12  and  O_13 
REMARK    6  A    between atoms: C_17  and  C_18 
ROOT
HETATM    1  C   UNL     1       6.105  27.845  56.918  1.00  0.00     0.133 C 
HETATM    2  C   UNL     1       7.119  26.668  56.702  1.00  0.00     0.073 C 
HETATM    3  C   UNL     1       6.486  25.347  57.180  1.00  0.00     0.047 C 
HETATM    4  C   UNL     1       7.592  26.525  55.226  1.00  0.00     0.097 C 
HETATM    5  C   UNL     1       6.425  26.623  54.325  1.00  0.00     0.042 A 
HETATM    6  C   UNL     1       5.218  27.229  54.604  1.00  0.00     0.030 A 
HETATM    7  C   UNL     1       4.455  26.959  53.455  1.00  0.00     0.190 A 
HETATM    8  N   UNL     1       5.109  26.268  52.529  1.00  0.00    -0.149 NA
HETATM    9  N   UNL     1       6.323  26.083  53.076  1.00  0.00    -0.279 N 
HETATM   10  H   UNL     1       7.013  25.560  52.547  1.00  0.00     0.189 HD
HETATM   11  C   UNL     1       4.912  27.885  55.914  1.00  0.00     0.074 C 
ENDROOT
BRANCH  11  12
HETATM   12  C   UNL     1       4.346  29.263  55.592  1.00  0.00    -0.048 A 
HETATM   13  C   UNL     1       3.428  29.855  56.476  1.00  0.00     0.011 A 
HETATM   14  C   UNL     1       2.899  31.121  56.213  1.00  0.00     0.043 A 
HETATM   15  C   UNL     1       3.291  31.808  55.070  1.00  0.00     0.116 A 
HETATM   16  F   UNL     1       2.781  33.021  54.821  1.00  0.00    -0.206 F 
HETATM   17  C   UNL     1       4.203  31.254  54.185  1.00  0.00     0.043 A 
HETATM   18  C   UNL     1       4.734  29.990  54.447  1.00  0.00     0.011 A 
ENDBRANCH  11  12
BRANCH   1  19
HETATM   19  C   UNL     1       6.854  29.159  57.000  1.00  0.00     0.267 C 
HETATM   20  O   UNL     1       7.684  29.542  56.186  1.00  0.00    -0.265 OA
BRANCH  19  21
HETATM   21  O   UNL     1       6.504  29.819  58.140  1.00  0.00    -0.316 OA
BRANCH  21  22
HETATM   22  C   UNL     1       7.355  30.904  58.553  1.00  0.00     0.123 C 
HETATM   23  C   UNL     1       8.294  30.433  59.660  1.00  0.00     0.040 C 
HETATM   24  C   UNL     1       6.440  32.009  59.067  1.00  0.00     0.040 C 
ENDBRANCH  21  22
ENDBRANCH  19  21
ENDBRANCH   1  19
BRANCH   2  25
HETATM   25  O   UNL     1       8.273  26.843  57.543  1.00  0.00    -0.389 OA
HETATM   26  H   UNL     1       8.560  27.776  57.474  1.00  0.00     0.210 HD
ENDBRANCH   2  25
BRANCH   7  27
HETATM   27  O   UNL     1       3.192  27.285  53.171  1.00  0.00    -0.343 OA
HETATM   28  H   UNL     1       2.713  27.476  53.991  1.00  0.00     0.219 HD
ENDBRANCH   7  27
TORSDOF 6
ENDMDL
MODEL 9
REMARK VINA RESULT:      -6.5     10.527     13.237
REMARK  6 active torsions:
REMARK  status: ('A' for Active; 'I' for Inactive)
REMARK    1  A    between atoms: C_2  and  O_3 
REMARK    2  A    between atoms: O_3  and  C_4 
REMARK    3  A    between atoms: C_4  and  C_5 
REMARK    4  A    between atoms: C_6  and  O_7 
REMARK    5  A    between atoms: C_12  and  O_13 
REMARK    6  A    between atoms: C_17  and  C_18 
ROOT
HETATM    1  C   UNL     1       3.964  34.394  63.176  1.00  0.00     0.133 C 
HETATM    2  C   UNL     1       3.949  34.891  61.689  1.00  0.00     0.073 C 
HETATM    3  C   UNL     1       2.681  35.730  61.437  1.00  0.00     0.047 C 
HETATM    4  C   UNL     1       5.213  35.713  61.300  1.00  0.00     0.097 C 
HETATM    5  C   UNL     1       5.508  36.693  62.366  1.00  0.00     0.042 A 
HETATM    6  C   UNL     1       5.118  36.615  63.687  1.00  0.00     0.030 A 
HETATM    7  C   UNL     1       5.583  37.826  64.227  1.00  0.00     0.190 A 
HETATM    8  N   UNL     1       6.220  38.592  63.349  1.00  0.00    -0.149 NA
HETATM    9  N   UNL     1       6.175  37.873  62.215  1.00  0.00    -0.279 N 
HETATM   10  H   UNL     1       6.600  38.265  61.381  1.00  0.00     0.189 HD
HETATM   11  C   UNL     1       4.301  35.487  64.237  1.00  0.00     0.074 C 
ENDROOT
BRANCH  11  12
HETATM   12  C   UNL     1       5.008  35.009  65.499  1.00  0.00    -0.048 A 
HETATM   13  C   UNL     1       4.276  34.877  66.691  1.00  0.00     0.011 A 
HETATM   14  C   UNL     1       4.895  34.432  67.862  1.00  0.00     0.043 A 
HETATM   15  C   UNL     1       6.245  34.106  67.848  1.00  0.00     0.116 A 
HETATM   16  F   UNL     1       6.835  33.680  68.973  1.00  0.00    -0.206 F 
HETATM   17  C   UNL     1       6.991  34.215  66.684  1.00  0.00     0.043 A 
HETATM   18  C   UNL     1       6.375  34.658  65.512  1.00  0.00     0.011 A 
ENDBRANCH  11  12
BRANCH   1  19
HETATM   19  C   UNL     1       4.838  33.163  63.297  1.00  0.00     0.267 C 
HETATM   20  O   UNL     1       4.586  32.194  64.001  1.00  0.00    -0.265 OA
BRANCH  19  21
HETATM   21  O   UNL     1       5.968  33.325  62.552  1.00  0.00    -0.316 OA
BRANCH  21  22
HETATM   22  C   UNL     1       6.816  32.172  62.395  1.00  0.00     0.123 C 
HETATM   23  C   UNL     1       8.091  32.352  63.214  1.00  0.00     0.040 C 
HETATM   24  C   UNL     1       7.148  32.071  60.911  1.00  0.00     0.040 C 
ENDBRANCH  21  22
ENDBRANCH  19  21
ENDBRANCH   1  19
BRANCH   2  25
HETATM   25  O   UNL     1       3.830  33.773  60.790  1.00  0.00    -0.389 OA
HETATM   26  H   UNL     1       4.424  33.931  60.030  1.00  0.00     0.210 HD
ENDBRANCH   2  25
BRANCH   7  27
HETATM   27  O   UNL     1       5.472  38.309  65.466  1.00  0.00    -0.343 OA
HETATM   28  H   UNL     1       6.209  38.911  65.648  1.00  0.00     0.219 HD
ENDBRANCH   7  27
TORSDOF 6
ENDMDL
MODEL 10
REMARK VINA RESULT:      -6.5      2.629      3.709
REMARK  6 active torsions:
REMARK  status: ('A' for Active; 'I' for Inactive)
REMARK    1  A    between atoms: C_2  and  O_3 
REMARK    2  A    between atoms: O_3  and  C_4 
REMARK    3  A    between atoms: C_4  and  C_5 
REMARK    4  A    between atoms: C_6  and  O_7 
REMARK    5  A    between atoms: C_12  and  O_13 
REMARK    6  A    between atoms: C_17  and  C_18 
ROOT
HETATM    1  C   UNL     1       3.924  28.562  51.202  1.00  0.00     0.133 C 
HETATM    2  C   UNL     1       3.233  29.964  51.079  1.00  0.00     0.073 C 
HETATM    3  C   UNL     1       1.707  29.802  51.220  1.00  0.00     0.047 C 
HETATM    4  C   UNL     1       3.753  31.002  52.116  1.00  0.00     0.097 C 
HETATM    5  C   UNL     1       3.827  30.368  53.449  1.00  0.00     0.042 A 
HETATM    6  C   UNL     1       3.932  29.019  53.714  1.00  0.00     0.030 A 
HETATM    7  C   UNL     1       3.877  28.967  55.118  1.00  0.00     0.190 A 
HETATM    8  N   UNL     1       3.767  30.159  55.692  1.00  0.00    -0.149 NA
HETATM    9  N   UNL     1       3.751  31.008  54.651  1.00  0.00    -0.279 N 
HETATM   10  H   UNL     1       3.664  32.001  54.843  1.00  0.00     0.189 HD
HETATM   11  C   UNL     1       3.974  27.972  52.645  1.00  0.00     0.074 C 
ENDROOT
BRANCH  11  12
HETATM   12  C   UNL     1       5.159  27.069  52.965  1.00  0.00    -0.048 A 
HETATM   13  C   UNL     1       5.040  25.681  52.772  1.00  0.00     0.011 A 
HETATM   14  C   UNL     1       6.111  24.828  53.047  1.00  0.00     0.043 A 
HETATM   15  C   UNL     1       7.311  25.355  53.506  1.00  0.00     0.116 A 
HETATM   16  F   UNL     1       8.336  24.533  53.770  1.00  0.00    -0.206 F 
HETATM   17  C   UNL     1       7.463  26.720  53.696  1.00  0.00     0.043 A 
HETATM   18  C   UNL     1       6.395  27.575  53.420  1.00  0.00     0.011 A 
ENDBRANCH  11  12
BRANCH   1  19
HETATM   19  C   UNL     1       5.281  28.597  50.530  1.00  0.00     0.267 C 
HETATM   20  O   UNL     1       6.108  29.488  50.672  1.00  0.00    -0.265 OA
BRANCH  19  21
HETATM   21  O   UNL     1       5.414  27.520  49.705  1.00  0.00    -0.316 OA
BRANCH  21  22
HETATM   22  C   UNL     1       4.554  27.471  48.551  1.00  0.00     0.123 C 
HETATM   23  C   UNL     1       3.998  26.060  48.380  1.00  0.00     0.040 C 
HETATM   24  C   UNL     1       5.409  27.854  47.349  1.00  0.00     0.040 C 
ENDBRANCH  21  22
ENDBRANCH  19  21
ENDBRANCH   1  19
BRANCH   2  25
HETATM   25  O   UNL     1       3.420  30.498  49.756  1.00  0.00    -0.389 OA
HETATM   26  H   UNL     1       2.984  29.895  49.121  1.00  0.00     0.210 HD
ENDBRANCH   2  25
BRANCH   7  27
HETATM   27  O   UNL     1       3.911  27.914  55.937  1.00  0.00    -0.343 OA
HETATM   28  H   UNL     1       3.553  27.137  55.483  1.00  0.00     0.219 HD
ENDBRANCH   7  27
TORSDOF 6
ENDMDL
