MODEL 1
REMARK VINA RESULT:     -10.4      0.000      0.000
REMARK  3 active torsions:
REMARK  status: ('A' for Active; 'I' for Inactive)
REMARK    1  A    between atoms: N_7  and  N_8 
REMARK       I    between atoms: N_8  and  C_9 
REMARK    2  A    between atoms: C_9  and  C_10 
REMARK    3  A    between atoms: C_14  and  C_15 
ROOT
HETATM    1  C   UNL     1       8.662  28.979  56.467  1.00  0.00     0.121 A 
HETATM    2  N   UNL     1       9.164  29.354  55.251  1.00  0.00    -0.272 N 
HETATM    3  H   UNL     1       9.822  30.107  55.072  1.00  0.00     0.189 HD
HETATM    4  N   UNL     1       8.713  28.621  54.220  1.00  0.00    -0.178 NA
HETATM    5  C   UNL     1       7.885  27.731  54.782  1.00  0.00     0.066 A 
HETATM    6  C   UNL     1       7.821  27.921  56.189  1.00  0.00     0.066 A 
ENDROOT
BRANCH   1   7
HETATM    7  C   UNL     1       9.043  29.653  57.685  1.00  0.00     0.289 C 
HETATM    8  N   UNL     1       8.081  29.608  58.680  1.00  0.00    -0.241 N 
HETATM    9  H   UNL     1       7.196  29.131  58.510  1.00  0.00     0.192 HD
HETATM   10  O   UNL     1      10.133  30.209  57.796  1.00  0.00    -0.264 OA
BRANCH   8  11
HETATM   11  N   UNL     1       8.290  30.187  59.901  1.00  0.00    -0.165 NA
HETATM   12  C   UNL     1       7.501  31.169  60.205  1.00  0.00     0.157 A 
HETATM   13  C   UNL     1       7.526  31.936  61.444  1.00  0.00     0.027 A 
HETATM   14  C   UNL     1       6.365  31.767  59.366  1.00  0.00     0.277 A 
HETATM   15  C   UNL     1       8.338  31.831  62.553  1.00  0.00     0.016 A 
HETATM   16  C   UNL     1       6.511  32.887  61.343  1.00  0.00     0.048 A 
HETATM   17  C   UNL     1       8.100  32.731  63.596  1.00  0.00     0.001 A 
HETATM   18  C   UNL     1       7.076  33.696  63.501  1.00  0.00     0.002 A 
HETATM   19  C   UNL     1       6.265  33.782  62.362  1.00  0.00     0.030 A 
HETATM   20  N   UNL     1       5.836  32.785  60.129  1.00  0.00    -0.321 N 
HETATM   21  H   UNL     1       5.066  33.363  59.829  1.00  0.00     0.169 HD
HETATM   22  O   UNL     1       6.042  31.379  58.263  1.00  0.00    -0.266 OA
ENDBRANCH   8  11
ENDBRANCH   1   7
BRANCH   5  23
HETATM   23  C   UNL     1       7.151  26.686  53.963  1.00  0.00     0.007 C 
HETATM   24  C   UNL     1       5.847  27.237  53.317  1.00  0.00     0.020 C 
HETATM   25  C   UNL     1       5.133  26.150  52.494  1.00  0.00    -0.013 C 
HETATM   26  C   UNL     1       4.774  24.972  53.413  1.00  0.00     0.009 C 
HETATM   27  C   UNL     1       6.072  25.660  51.381  1.00  0.00     0.009 C 
HETATM   28  C   UNL     1       6.051  24.388  54.037  1.00  0.00    -0.013 C 
HETATM   29  C   UNL     1       6.760  25.477  54.860  1.00  0.00     0.020 C 
HETATM   30  C   UNL     1       6.989  23.905  52.919  1.00  0.00     0.009 C 
HETATM   31  C   UNL     1       7.353  25.078  51.995  1.00  0.00    -0.013 C 
HETATM   32  C   UNL     1       8.063  26.168  52.816  1.00  0.00     0.020 C 
ENDBRANCH   5  23
TORSDOF 3
ENDMDL
MODEL 2
REMARK VINA RESULT:     -10.2      1.430      2.217
REMARK  3 active torsions:
REMARK  status: ('A' for Active; 'I' for Inactive)
REMARK    1  A    between atoms: N_7  and  N_8 
REMARK       I    between atoms: N_8  and  C_9 
REMARK    2  A    between atoms: C_9  and  C_10 
REMARK    3  A    between atoms: C_14  and  C_15 
ROOT
HETATM    1  C   UNL     1       6.045  29.591  56.710  1.00  0.00     0.121 A 
HETATM    2  N   UNL     1       7.277  29.746  56.136  1.00  0.00    -0.272 N 
HETATM    3  H   UNL     1       7.968  30.454  56.364  1.00  0.00     0.189 HD
HETATM    4  N   UNL     1       7.555  28.844  55.179  1.00  0.00    -0.178 NA
HETATM    5  C   UNL     1       6.464  28.069  55.126  1.00  0.00     0.066 A 
HETATM    6  C   UNL     1       5.492  28.502  56.066  1.00  0.00     0.066 A 
ENDROOT
BRANCH   1   7
HETATM    7  C   UNL     1       5.582  30.466  57.759  1.00  0.00     0.289 C 
HETATM    8  N   UNL     1       6.589  31.184  58.382  1.00  0.00    -0.241 N 
HETATM    9  H   UNL     1       7.558  31.060  58.089  1.00  0.00     0.192 HD
HETATM   10  O   UNL     1       4.391  30.544  58.049  1.00  0.00    -0.264 OA
BRANCH   8  11
HETATM   11  N   UNL     1       6.317  32.069  59.389  1.00  0.00    -0.165 NA
HETATM   12  C   UNL     1       7.015  31.928  60.471  1.00  0.00     0.157 A 
HETATM   13  C   UNL     1       6.910  32.749  61.671  1.00  0.00     0.027 A 
HETATM   14  C   UNL     1       8.107  30.892  60.768  1.00  0.00     0.277 A 
HETATM   15  C   UNL     1       6.098  33.824  61.960  1.00  0.00     0.016 A 
HETATM   16  C   UNL     1       7.842  32.246  62.579  1.00  0.00     0.048 A 
HETATM   17  C   UNL     1       6.245  34.405  63.223  1.00  0.00     0.001 A 
HETATM   18  C   UNL     1       7.185  33.902  64.146  1.00  0.00     0.002 A 
HETATM   19  C   UNL     1       7.999  32.807  63.828  1.00  0.00     0.030 A 
HETATM   20  N   UNL     1       8.538  31.163  62.048  1.00  0.00    -0.321 N 
HETATM   21  H   UNL     1       9.260  30.635  62.515  1.00  0.00     0.169 HD
HETATM   22  O   UNL     1       8.475  30.035  59.992  1.00  0.00    -0.266 OA
ENDBRANCH   8  11
ENDBRANCH   1   7
BRANCH   5  23
HETATM   23  C   UNL     1       6.356  26.899  54.166  1.00  0.00     0.007 C 
HETATM   24  C   UNL     1       5.259  27.111  53.083  1.00  0.00     0.020 C 
HETATM   25  C   UNL     1       5.181  25.906  52.129  1.00  0.00    -0.013 C 
HETATM   26  C   UNL     1       4.845  24.642  52.936  1.00  0.00     0.009 C 
HETATM   27  C   UNL     1       6.538  25.721  51.434  1.00  0.00     0.009 C 
HETATM   28  C   UNL     1       5.934  24.391  53.991  1.00  0.00    -0.013 C 
HETATM   29  C   UNL     1       6.007  25.598  54.943  1.00  0.00     0.020 C 
HETATM   30  C   UNL     1       7.290  24.214  53.291  1.00  0.00     0.009 C 
HETATM   31  C   UNL     1       7.634  25.474  52.482  1.00  0.00    -0.013 C 
HETATM   32  C   UNL     1       7.709  26.682  53.432  1.00  0.00     0.020 C 
ENDBRANCH   5  23
TORSDOF 3
ENDMDL
MODEL 3
REMARK VINA RESULT:     -10.2      1.376      2.202
REMARK  3 active torsions:
REMARK  status: ('A' for Active; 'I' for Inactive)
REMARK    1  A    between atoms: N_7  and  N_8 
REMARK       I    between atoms: N_8  and  C_9 
REMARK    2  A    between atoms: C_9  and  C_10 
REMARK    3  A    between atoms: C_14  and  C_15 
ROOT
HETATM    1  C   UNL     1       8.756  30.005  58.194  1.00  0.00     0.121 A 
HETATM    2  N   UNL     1       9.640  30.061  57.152  1.00  0.00    -0.272 N 
HETATM    3  H   UNL     1      10.474  30.637  57.094  1.00  0.00     0.189 HD
HETATM    4  N   UNL     1       9.331  29.251  56.125  1.00  0.00    -0.178 NA
HETATM    5  C   UNL     1       8.203  28.642  56.511  1.00  0.00     0.066 A 
HETATM    6  C   UNL     1       7.805  29.086  57.800  1.00  0.00     0.066 A 
ENDROOT
BRANCH   1   7
HETATM    7  C   UNL     1       8.934  30.803  59.383  1.00  0.00     0.289 C 
HETATM    8  N   UNL     1       8.031  30.522  60.393  1.00  0.00    -0.241 N 
HETATM    9  H   UNL     1       7.317  29.808  60.253  1.00  0.00     0.192 HD
HETATM   10  O   UNL     1       9.821  31.651  59.459  1.00  0.00    -0.264 OA
BRANCH   8  11
HETATM   11  N   UNL     1       8.072  31.181  61.591  1.00  0.00    -0.165 NA
HETATM   12  C   UNL     1       7.152  32.074  61.778  1.00  0.00     0.157 A 
HETATM   13  C   UNL     1       6.988  32.898  62.970  1.00  0.00     0.027 A 
HETATM   14  C   UNL     1       6.025  32.490  60.825  1.00  0.00     0.277 A 
HETATM   15  C   UNL     1       7.714  32.946  64.140  1.00  0.00     0.016 A 
HETATM   16  C   UNL     1       5.880  33.715  62.739  1.00  0.00     0.048 A 
HETATM   17  C   UNL     1       7.290  33.860  65.109  1.00  0.00     0.001 A 
HETATM   18  C   UNL     1       6.171  34.689  64.882  1.00  0.00     0.002 A 
HETATM   19  C   UNL     1       5.451  34.621  63.683  1.00  0.00     0.030 A 
HETATM   20  N   UNL     1       5.322  33.473  61.486  1.00  0.00    -0.321 N 
HETATM   21  H   UNL     1       4.516  33.939  61.097  1.00  0.00     0.169 HD
HETATM   22  O   UNL     1       5.839  32.013  59.725  1.00  0.00    -0.266 OA
ENDBRANCH   8  11
ENDBRANCH   1   7
BRANCH   5  23
HETATM   23  C   UNL     1       7.502  27.620  55.635  1.00  0.00     0.007 C 
HETATM   24  C   UNL     1       7.849  27.782  54.127  1.00  0.00     0.020 C 
HETATM   25  C   UNL     1       7.122  26.728  53.273  1.00  0.00    -0.013 C 
HETATM   26  C   UNL     1       5.605  26.889  53.455  1.00  0.00     0.009 C 
HETATM   27  C   UNL     1       7.544  25.325  53.733  1.00  0.00     0.009 C 
HETATM   28  C   UNL     1       5.231  26.698  54.933  1.00  0.00    -0.013 C 
HETATM   29  C   UNL     1       5.959  27.754  55.782  1.00  0.00     0.020 C 
HETATM   30  C   UNL     1       5.662  25.295  55.389  1.00  0.00     0.009 C 
HETATM   31  C   UNL     1       7.179  25.126  55.212  1.00  0.00    -0.013 C 
HETATM   32  C   UNL     1       7.909  26.181  56.061  1.00  0.00     0.020 C 
ENDBRANCH   5  23
TORSDOF 3
ENDMDL
MODEL 4
REMARK VINA RESULT:      -9.9      1.583      2.404
REMARK  3 active torsions:
REMARK  status: ('A' for Active; 'I' for Inactive)
REMARK    1  A    between atoms: N_7  and  N_8 
REMARK       I    between atoms: N_8  and  C_9 
REMARK    2  A    between atoms: C_9  and  C_10 
REMARK    3  A    between atoms: C_14  and  C_15 
ROOT
HETATM    1  C   UNL     1       7.513  29.591  57.931  1.00  0.00     0.121 A 
HETATM    2  N   UNL     1       6.704  30.311  57.096  1.00  0.00    -0.272 N 
HETATM    3  H   UNL     1       6.392  31.268  57.229  1.00  0.00     0.189 HD
HETATM    4  N   UNL     1       6.310  29.641  56.000  1.00  0.00    -0.178 NA
HETATM    5  C   UNL     1       6.884  28.438  56.122  1.00  0.00     0.066 A 
HETATM    6  C   UNL     1       7.645  28.361  57.319  1.00  0.00     0.066 A 
ENDROOT
BRANCH   1   7
HETATM    7  C   UNL     1       8.035  30.155  59.153  1.00  0.00     0.289 C 
HETATM    8  N   UNL     1       7.112  30.891  59.875  1.00  0.00    -0.241 N 
HETATM    9  H   UNL     1       6.160  30.999  59.524  1.00  0.00     0.192 HD
HETATM   10  O   UNL     1       9.202  29.977  59.492  1.00  0.00    -0.264 OA
BRANCH   8  11
HETATM   11  N   UNL     1       7.442  31.481  61.064  1.00  0.00    -0.165 NA
HETATM   12  C   UNL     1       6.509  32.178  61.629  1.00  0.00     0.157 A 
HETATM   13  C   UNL     1       6.620  32.893  62.895  1.00  0.00     0.027 A 
HETATM   14  C   UNL     1       5.079  32.431  61.132  1.00  0.00     0.277 A 
HETATM   15  C   UNL     1       7.675  33.011  63.774  1.00  0.00     0.016 A 
HETATM   16  C   UNL     1       5.385  33.503  63.117  1.00  0.00     0.048 A 
HETATM   17  C   UNL     1       7.458  33.778  64.922  1.00  0.00     0.001 A 
HETATM   18  C   UNL     1       6.211  34.398  65.153  1.00  0.00     0.002 A 
HETATM   19  C   UNL     1       5.155  34.264  64.243  1.00  0.00     0.030 A 
HETATM   20  N   UNL     1       4.490  33.230  62.086  1.00  0.00    -0.321 N 
HETATM   21  H   UNL     1       3.538  33.560  62.025  1.00  0.00     0.169 HD
HETATM   22  O   UNL     1       4.618  31.987  60.101  1.00  0.00    -0.266 OA
ENDBRANCH   8  11
ENDBRANCH   1   7
BRANCH   5  23
HETATM   23  C   UNL     1       6.704  27.351  55.078  1.00  0.00     0.007 C 
HETATM   24  C   UNL     1       6.899  25.921  55.660  1.00  0.00     0.020 C 
HETATM   25  C   UNL     1       6.707  24.849  54.573  1.00  0.00    -0.013 C 
HETATM   26  C   UNL     1       7.734  25.075  53.451  1.00  0.00     0.009 C 
HETATM   27  C   UNL     1       5.288  24.963  53.994  1.00  0.00     0.009 C 
HETATM   28  C   UNL     1       7.538  26.469  52.836  1.00  0.00    -0.013 C 
HETATM   29  C   UNL     1       7.733  27.537  53.926  1.00  0.00     0.020 C 
HETATM   30  C   UNL     1       6.115  26.579  52.266  1.00  0.00     0.009 C 
HETATM   31  C   UNL     1       5.082  26.356  53.381  1.00  0.00    -0.013 C 
HETATM   32  C   UNL     1       5.274  27.423  54.471  1.00  0.00     0.020 C 
ENDBRANCH   5  23
TORSDOF 3
ENDMDL
MODEL 5
REMARK VINA RESULT:      -9.6      2.789      9.566
REMARK  3 active torsions:
REMARK  status: ('A' for Active; 'I' for Inactive)
REMARK    1  A    between atoms: N_7  and  N_8 
REMARK       I    between atoms: N_8  and  C_9 
REMARK    2  A    between atoms: C_9  and  C_10 
REMARK    3  A    between atoms: C_14  and  C_15 
ROOT
HETATM    1  C   UNL     1       6.804  28.864  56.764  1.00  0.00     0.121 A 
HETATM    2  N   UNL     1       6.365  30.123  56.460  1.00  0.00    -0.272 N 
HETATM    3  H   UNL     1       5.883  30.410  55.613  1.00  0.00     0.189 HD
HETATM    4  N   UNL     1       6.618  31.039  57.410  1.00  0.00    -0.178 NA
HETATM    5  C   UNL     1       7.246  30.352  58.374  1.00  0.00     0.066 A 
HETATM    6  C   UNL     1       7.386  28.987  58.010  1.00  0.00     0.066 A 
ENDROOT
BRANCH   1   7
HETATM    7  C   UNL     1       6.611  27.755  55.861  1.00  0.00     0.289 C 
HETATM    8  N   UNL     1       7.649  26.839  55.862  1.00  0.00    -0.241 N 
HETATM    9  H   UNL     1       8.458  26.988  56.464  1.00  0.00     0.192 HD
HETATM   10  O   UNL     1       5.602  27.663  55.166  1.00  0.00    -0.264 OA
BRANCH   8  11
HETATM   11  N   UNL     1       7.616  25.723  55.072  1.00  0.00    -0.165 NA
HETATM   12  C   UNL     1       7.864  24.600  55.668  1.00  0.00     0.157 A 
HETATM   13  C   UNL     1       7.882  23.283  55.042  1.00  0.00     0.027 A 
HETATM   14  C   UNL     1       8.193  24.362  57.148  1.00  0.00     0.277 A 
HETATM   15  C   UNL     1       7.654  22.903  53.737  1.00  0.00     0.016 A 
HETATM   16  C   UNL     1       8.192  22.369  56.048  1.00  0.00     0.048 A 
HETATM   17  C   UNL     1       7.746  21.537  53.453  1.00  0.00     0.001 A 
HETATM   18  C   UNL     1       8.059  20.606  54.466  1.00  0.00     0.002 A 
HETATM   19  C   UNL     1       8.287  21.020  55.784  1.00  0.00     0.030 A 
HETATM   20  N   UNL     1       8.373  23.003  57.275  1.00  0.00    -0.321 N 
HETATM   21  H   UNL     1       8.603  22.551  58.147  1.00  0.00     0.169 HD
HETATM   22  O   UNL     1       8.265  25.235  57.987  1.00  0.00    -0.266 OA
ENDBRANCH   8  11
ENDBRANCH   1   7
BRANCH   5  23
HETATM   23  C   UNL     1       7.713  31.013  59.658  1.00  0.00     0.007 C 
HETATM   24  C   UNL     1       8.526  32.315  59.401  1.00  0.00     0.020 C 
HETATM   25  C   UNL     1       8.979  32.955  60.725  1.00  0.00    -0.013 C 
HETATM   26  C   UNL     1       9.862  31.960  61.494  1.00  0.00     0.009 C 
HETATM   27  C   UNL     1       7.743  33.298  61.572  1.00  0.00     0.009 C 
HETATM   28  C   UNL     1       9.069  30.677  61.790  1.00  0.00    -0.013 C 
HETATM   29  C   UNL     1       8.620  30.040  60.464  1.00  0.00     0.020 C 
HETATM   30  C   UNL     1       7.831  31.027  62.630  1.00  0.00     0.009 C 
HETATM   31  C   UNL     1       6.941  32.022  61.868  1.00  0.00    -0.013 C 
HETATM   32  C   UNL     1       6.490  31.386  60.542  1.00  0.00     0.020 C 
ENDBRANCH   5  23
TORSDOF 3
ENDMDL
MODEL 6
REMARK VINA RESULT:      -9.4      2.221      3.121
REMARK  3 active torsions:
REMARK  status: ('A' for Active; 'I' for Inactive)
REMARK    1  A    between atoms: N_7  and  N_8 
REMARK       I    between atoms: N_8  and  C_9 
REMARK    2  A    between atoms: C_9  and  C_10 
REMARK    3  A    between atoms: C_14  and  C_15 
ROOT
HETATM    1  C   UNL     1       6.311  29.916  57.615  1.00  0.00     0.121 A 
HETATM    2  N   UNL     1       5.086  29.326  57.762  1.00  0.00    -0.272 N 
HETATM    3  H   UNL     1       4.367  29.577  58.434  1.00  0.00     0.189 HD
HETATM    4  N   UNL     1       4.855  28.318  56.905  1.00  0.00    -0.178 NA
HETATM    5  C   UNL     1       5.971  28.245  56.168  1.00  0.00     0.066 A 
HETATM    6  C   UNL     1       6.911  29.227  56.581  1.00  0.00     0.066 A 
ENDROOT
BRANCH   1   7
HETATM    7  C   UNL     1       6.725  31.020  58.447  1.00  0.00     0.289 C 
HETATM    8  N   UNL     1       5.726  31.517  59.265  1.00  0.00    -0.241 N 
HETATM    9  H   UNL     1       4.793  31.106  59.237  1.00  0.00     0.192 HD
HETATM   10  O   UNL     1       7.874  31.455  58.408  1.00  0.00    -0.264 OA
BRANCH   8  11
HETATM   11  N   UNL     1       5.958  32.555  60.126  1.00  0.00    -0.165 NA
HETATM   12  C   UNL     1       4.952  32.922  60.855  1.00  0.00     0.157 A 
HETATM   13  C   UNL     1       4.956  33.995  61.842  1.00  0.00     0.027 A 
HETATM   14  C   UNL     1       3.531  32.344  60.873  1.00  0.00     0.277 A 
HETATM   15  C   UNL     1       5.962  34.848  62.243  1.00  0.00     0.016 A 
HETATM   16  C   UNL     1       3.671  34.043  62.382  1.00  0.00     0.048 A 
HETATM   17  C   UNL     1       5.641  35.782  63.232  1.00  0.00     0.001 A 
HETATM   18  C   UNL     1       4.343  35.836  63.782  1.00  0.00     0.002 A 
HETATM   19  C   UNL     1       3.338  34.958  63.357  1.00  0.00     0.030 A 
HETATM   20  N   UNL     1       2.843  33.078  61.813  1.00  0.00    -0.321 N 
HETATM   21  H   UNL     1       1.874  32.919  62.042  1.00  0.00     0.169 HD
HETATM   22  O   UNL     1       3.151  31.425  60.178  1.00  0.00    -0.266 OA
ENDBRANCH   8  11
ENDBRANCH   1   7
BRANCH   5  23
HETATM   23  C   UNL     1       6.136  27.228  55.055  1.00  0.00     0.007 C 
HETATM   24  C   UNL     1       7.480  27.389  54.288  1.00  0.00     0.020 C 
HETATM   25  C   UNL     1       7.611  26.339  53.171  1.00  0.00    -0.013 C 
HETATM   26  C   UNL     1       6.449  26.508  52.179  1.00  0.00     0.009 C 
HETATM   27  C   UNL     1       7.554  24.933  53.787  1.00  0.00     0.009 C 
HETATM   28  C   UNL     1       5.108  26.319  52.906  1.00  0.00    -0.013 C 
HETATM   29  C   UNL     1       4.982  27.371  54.021  1.00  0.00     0.020 C 
HETATM   30  C   UNL     1       5.060  24.913  53.526  1.00  0.00     0.009 C 
HETATM   31  C   UNL     1       6.219  24.736  54.520  1.00  0.00    -0.013 C 
HETATM   32  C   UNL     1       6.093  25.787  55.637  1.00  0.00     0.020 C 
ENDBRANCH   5  23
TORSDOF 3
ENDMDL
MODEL 7
REMARK VINA RESULT:      -9.1      2.435      9.691
REMARK  3 active torsions:
REMARK  status: ('A' for Active; 'I' for Inactive)
REMARK    1  A    between atoms: N_7  and  N_8 
REMARK       I    between atoms: N_8  and  C_9 
REMARK    2  A    between atoms: C_9  and  C_10 
REMARK    3  A    between atoms: C_14  and  C_15 
ROOT
HETATM    1  C   UNL     1       7.261  30.920  59.042  1.00  0.00     0.121 A 
HETATM    2  N   UNL     1       6.598  31.749  58.179  1.00  0.00    -0.272 N 
HETATM    3  H   UNL     1       6.582  31.682  57.166  1.00  0.00     0.189 HD
HETATM    4  N   UNL     1       5.912  32.734  58.782  1.00  0.00    -0.178 NA
HETATM    5  C   UNL     1       6.134  32.543  60.088  1.00  0.00     0.066 A 
HETATM    6  C   UNL     1       6.976  31.418  60.297  1.00  0.00     0.066 A 
ENDROOT
BRANCH   1   7
HETATM    7  C   UNL     1       8.045  29.804  58.570  1.00  0.00     0.289 C 
HETATM    8  N   UNL     1       7.352  28.607  58.524  1.00  0.00    -0.241 N 
HETATM    9  H   UNL     1       6.376  28.572  58.816  1.00  0.00     0.192 HD
HETATM   10  O   UNL     1       9.222  29.940  58.245  1.00  0.00    -0.264 OA
BRANCH   8  11
HETATM   11  N   UNL     1       7.946  27.455  58.087  1.00  0.00    -0.165 NA
HETATM   12  C   UNL     1       7.277  26.767  57.217  1.00  0.00     0.157 A 
HETATM   13  C   UNL     1       7.702  25.514  56.604  1.00  0.00     0.027 A 
HETATM   14  C   UNL     1       5.899  27.078  56.617  1.00  0.00     0.277 A 
HETATM   15  C   UNL     1       8.853  24.775  56.770  1.00  0.00     0.016 A 
HETATM   16  C   UNL     1       6.680  25.129  55.737  1.00  0.00     0.048 A 
HETATM   17  C   UNL     1       8.962  23.600  56.021  1.00  0.00     0.001 A 
HETATM   18  C   UNL     1       7.932  23.204  55.142  1.00  0.00     0.002 A 
HETATM   19  C   UNL     1       6.771  23.973  54.992  1.00  0.00     0.030 A 
HETATM   20  N   UNL     1       5.630  26.044  55.748  1.00  0.00    -0.321 N 
HETATM   21  H   UNL     1       4.783  25.981  55.205  1.00  0.00     0.169 HD
HETATM   22  O   UNL     1       5.232  28.053  56.891  1.00  0.00    -0.266 OA
ENDBRANCH   8  11
ENDBRANCH   1   7
BRANCH   5  23
HETATM   23  C   UNL     1       5.527  33.445  61.147  1.00  0.00     0.007 C 
HETATM   24  C   UNL     1       4.844  34.705  60.542  1.00  0.00     0.020 C 
HETATM   25  C   UNL     1       4.241  35.593  61.645  1.00  0.00    -0.013 C 
HETATM   26  C   UNL     1       5.357  36.042  62.601  1.00  0.00     0.009 C 
HETATM   27  C   UNL     1       3.194  34.786  62.428  1.00  0.00     0.009 C 
HETATM   28  C   UNL     1       6.025  34.814  63.239  1.00  0.00    -0.013 C 
HETATM   29  C   UNL     1       6.628  33.931  62.133  1.00  0.00     0.020 C 
HETATM   30  C   UNL     1       4.971  34.007  64.015  1.00  0.00     0.009 C 
HETATM   31  C   UNL     1       3.852  33.553  63.066  1.00  0.00    -0.013 C 
HETATM   32  C   UNL     1       4.452  32.669  61.960  1.00  0.00     0.020 C 
ENDBRANCH   5  23
TORSDOF 3
ENDMDL
MODEL 8
REMARK VINA RESULT:      -9.1      6.653      9.275
REMARK  3 active torsions:
REMARK  status: ('A' for Active; 'I' for Inactive)
REMARK    1  A    between atoms: N_7  and  N_8 
REMARK       I    between atoms: N_8  and  C_9 
REMARK    2  A    between atoms: C_9  and  C_10 
REMARK    3  A    between atoms: C_14  and  C_15 
ROOT
HETATM    1  C   UNL     1       5.576  26.924  51.502  1.00  0.00     0.121 A 
HETATM    2  N   UNL     1       6.090  27.932  52.270  1.00  0.00    -0.272 N 
HETATM    3  H   UNL     1       6.608  27.830  53.138  1.00  0.00     0.189 HD
HETATM    4  N   UNL     1       5.865  29.163  51.784  1.00  0.00    -0.178 NA
HETATM    5  C   UNL     1       5.177  28.954  50.654  1.00  0.00     0.066 A 
HETATM    6  C   UNL     1       4.971  27.565  50.440  1.00  0.00     0.066 A 
ENDROOT
BRANCH   1   7
HETATM    7  C   UNL     1       5.729  25.537  51.869  1.00  0.00     0.289 C 
HETATM    8  N   UNL     1       7.039  25.154  52.097  1.00  0.00    -0.241 N 
HETATM    9  H   UNL     1       7.793  25.832  51.993  1.00  0.00     0.192 HD
HETATM   10  O   UNL     1       4.759  24.788  51.963  1.00  0.00    -0.264 OA
BRANCH   8  11
HETATM   11  N   UNL     1       7.355  23.875  52.467  1.00  0.00    -0.165 NA
HETATM   12  C   UNL     1       7.599  23.694  53.726  1.00  0.00     0.157 A 
HETATM   13  C   UNL     1       7.951  22.427  54.356  1.00  0.00     0.027 A 
HETATM   14  C   UNL     1       7.584  24.732  54.855  1.00  0.00     0.277 A 
HETATM   15  C   UNL     1       8.106  21.166  53.822  1.00  0.00     0.016 A 
HETATM   16  C   UNL     1       8.127  22.695  55.714  1.00  0.00     0.048 A 
HETATM   17  C   UNL     1       8.451  20.143  54.709  1.00  0.00     0.001 A 
HETATM   18  C   UNL     1       8.630  20.406  56.084  1.00  0.00     0.002 A 
HETATM   19  C   UNL     1       8.467  21.697  56.602  1.00  0.00     0.030 A 
HETATM   20  N   UNL     1       7.911  24.041  56.000  1.00  0.00    -0.321 N 
HETATM   21  H   UNL     1       7.979  24.471  56.910  1.00  0.00     0.169 HD
HETATM   22  O   UNL     1       7.327  25.908  54.708  1.00  0.00    -0.266 OA
ENDBRANCH   8  11
ENDBRANCH   1   7
BRANCH   5  23
HETATM   23  C   UNL     1       4.717  30.098  49.769  1.00  0.00     0.007 C 
HETATM   24  C   UNL     1       3.415  30.773  50.291  1.00  0.00     0.020 C 
HETATM   25  C   UNL     1       2.982  31.928  49.370  1.00  0.00    -0.013 C 
HETATM   26  C   UNL     1       2.727  31.380  47.957  1.00  0.00     0.009 C 
HETATM   27  C   UNL     1       4.101  32.979  49.314  1.00  0.00     0.009 C 
HETATM   28  C   UNL     1       4.009  30.737  47.405  1.00  0.00    -0.013 C 
HETATM   29  C   UNL     1       4.437  29.584  48.328  1.00  0.00     0.020 C 
HETATM   30  C   UNL     1       5.127  31.791  47.358  1.00  0.00     0.009 C 
HETATM   31  C   UNL     1       5.389  32.344  48.768  1.00  0.00    -0.013 C 
HETATM   32  C   UNL     1       5.818  31.192  49.692  1.00  0.00     0.020 C 
ENDBRANCH   5  23
TORSDOF 3
ENDMDL
MODEL 9
REMARK VINA RESULT:      -9.0      2.186      3.539
REMARK  3 active torsions:
REMARK  status: ('A' for Active; 'I' for Inactive)
REMARK    1  A    between atoms: N_7  and  N_8 
REMARK       I    between atoms: N_8  and  C_9 
REMARK    2  A    between atoms: C_9  and  C_10 
REMARK    3  A    between atoms: C_14  and  C_15 
ROOT
HETATM    1  C   UNL     1       4.798  29.765  57.290  1.00  0.00     0.121 A 
HETATM    2  N   UNL     1       5.957  29.253  57.805  1.00  0.00    -0.272 N 
HETATM    3  H   UNL     1       6.425  29.548  58.657  1.00  0.00     0.189 HD
HETATM    4  N   UNL     1       6.492  28.260  57.075  1.00  0.00    -0.178 NA
HETATM    5  C   UNL     1       5.651  28.116  56.043  1.00  0.00     0.066 A 
HETATM    6  C   UNL     1       4.576  29.040  56.136  1.00  0.00     0.066 A 
ENDROOT
BRANCH   1   7
HETATM    7  C   UNL     1       4.084  30.834  57.945  1.00  0.00     0.289 C 
HETATM    8  N   UNL     1       4.671  31.268  59.121  1.00  0.00    -0.241 N 
HETATM    9  H   UNL     1       5.530  30.831  59.453  1.00  0.00     0.192 HD
HETATM   10  O   UNL     1       3.047  31.295  57.474  1.00  0.00    -0.264 OA
BRANCH   8  11
HETATM   11  N   UNL     1       4.126  32.284  59.858  1.00  0.00    -0.165 NA
HETATM   12  C   UNL     1       4.933  32.891  60.669  1.00  0.00     0.157 A 
HETATM   13  C   UNL     1       4.589  34.000  61.550  1.00  0.00     0.027 A 
HETATM   14  C   UNL     1       6.423  32.612  60.912  1.00  0.00     0.277 A 
HETATM   15  C   UNL     1       3.395  34.660  61.744  1.00  0.00     0.016 A 
HETATM   16  C   UNL     1       5.754  34.337  62.240  1.00  0.00     0.048 A 
HETATM   17  C   UNL     1       3.393  35.703  62.675  1.00  0.00     0.001 A 
HETATM   18  C   UNL     1       4.568  36.049  63.376  1.00  0.00     0.002 A 
HETATM   19  C   UNL     1       5.769  35.361  63.162  1.00  0.00     0.030 A 
HETATM   20  N   UNL     1       6.821  33.524  61.864  1.00  0.00    -0.321 N 
HETATM   21  H   UNL     1       7.762  33.577  62.225  1.00  0.00     0.169 HD
HETATM   22  O   UNL     1       7.065  31.751  60.348  1.00  0.00    -0.266 OA
ENDBRANCH   8  11
ENDBRANCH   1   7
BRANCH   5  23
HETATM   23  C   UNL     1       5.878  27.078  54.960  1.00  0.00     0.007 C 
HETATM   24  C   UNL     1       5.709  25.621  55.481  1.00  0.00     0.020 C 
HETATM   25  C   UNL     1       5.945  24.599  54.355  1.00  0.00    -0.013 C 
HETATM   26  C   UNL     1       7.370  24.769  53.806  1.00  0.00     0.009 C 
HETATM   27  C   UNL     1       4.931  24.845  53.227  1.00  0.00     0.009 C 
HETATM   28  C   UNL     1       7.551  26.192  53.253  1.00  0.00    -0.013 C 
HETATM   29  C   UNL     1       7.316  27.210  54.382  1.00  0.00     0.020 C 
HETATM   30  C   UNL     1       6.530  26.435  52.130  1.00  0.00     0.009 C 
HETATM   31  C   UNL     1       5.102  26.267  52.671  1.00  0.00    -0.013 C 
HETATM   32  C   UNL     1       4.864  27.285  53.800  1.00  0.00     0.020 C 
ENDBRANCH   5  23
TORSDOF 3
ENDMDL
MODEL 10
REMARK VINA RESULT:      -8.9      3.098      4.368
REMARK  3 active torsions:
REMARK  status: ('A' for Active; 'I' for Inactive)
REMARK    1  A    between atoms: N_7  and  N_8 
REMARK       I    between atoms: N_8  and  C_9 
REMARK    2  A    between atoms: C_9  and  C_10 
REMARK    3  A    between atoms: C_14  and  C_15 
ROOT
HETATM    1  C   UNL     1       5.916  28.127  53.877  1.00  0.00     0.121 A 
HETATM    2  N   UNL     1       4.555  28.167  54.012  1.00  0.00    -0.272 N 
HETATM    3  H   UNL     1       4.033  28.231  54.881  1.00  0.00     0.189 HD
HETATM    4  N   UNL     1       3.885  28.116  52.849  1.00  0.00    -0.178 NA
HETATM    5  C   UNL     1       4.843  28.040  51.917  1.00  0.00     0.066 A 
HETATM    6  C   UNL     1       6.131  28.042  52.516  1.00  0.00     0.066 A 
ENDROOT
BRANCH   1   7
HETATM    7  C   UNL     1       6.793  28.178  55.021  1.00  0.00     0.289 C 
HETATM    8  N   UNL     1       6.898  29.431  55.598  1.00  0.00    -0.241 N 
HETATM    9  H   UNL     1       6.382  30.218  55.203  1.00  0.00     0.192 HD
HETATM   10  O   UNL     1       7.382  27.176  55.422  1.00  0.00    -0.264 OA
BRANCH   8  11
HETATM   11  N   UNL     1       7.679  29.648  56.699  1.00  0.00    -0.165 NA
HETATM   12  C   UNL     1       7.143  30.350  57.646  1.00  0.00     0.157 A 
HETATM   13  C   UNL     1       7.773  30.708  58.911  1.00  0.00     0.027 A 
HETATM   14  C   UNL     1       5.742  30.975  57.687  1.00  0.00     0.277 A 
HETATM   15  C   UNL     1       9.023  30.413  59.410  1.00  0.00     0.016 A 
HETATM   16  C   UNL     1       6.840  31.465  59.620  1.00  0.00     0.048 A 
HETATM   17  C   UNL     1       9.330  30.910  60.680  1.00  0.00     0.001 A 
HETATM   18  C   UNL     1       8.391  31.676  61.403  1.00  0.00     0.002 A 
HETATM   19  C   UNL     1       7.127  31.963  60.873  1.00  0.00     0.030 A 
HETATM   20  N   UNL     1       5.657  31.618  58.902  1.00  0.00    -0.321 N 
HETATM   21  H   UNL     1       4.840  32.124  59.208  1.00  0.00     0.169 HD
HETATM   22  O   UNL     1       4.919  30.885  56.800  1.00  0.00    -0.266 OA
ENDBRANCH   8  11
ENDBRANCH   1   7
BRANCH   5  23
HETATM   23  C   UNL     1       4.520  27.970  50.436  1.00  0.00     0.007 C 
HETATM   24  C   UNL     1       5.460  28.862  49.574  1.00  0.00     0.020 C 
HETATM   25  C   UNL     1       5.103  28.763  48.080  1.00  0.00    -0.013 C 
HETATM   26  C   UNL     1       3.651  29.225  47.875  1.00  0.00     0.009 C 
HETATM   27  C   UNL     1       5.242  27.303  47.622  1.00  0.00     0.009 C 
HETATM   28  C   UNL     1       2.699  28.336  48.690  1.00  0.00    -0.013 C 
HETATM   29  C   UNL     1       3.059  28.439  50.182  1.00  0.00     0.020 C 
HETATM   30  C   UNL     1       2.848  26.876  48.232  1.00  0.00     0.009 C 
HETATM   31  C   UNL     1       4.297  26.406  48.435  1.00  0.00    -0.013 C 
HETATM   32  C   UNL     1       4.658  26.508  49.926  1.00  0.00     0.020 C 
ENDBRANCH   5  23
TORSDOF 3
ENDMDL
