MODEL 1
REMARK VINA RESULT:      -7.4      0.000      0.000
REMARK  3 active torsions:
REMARK  status: ('A' for Active; 'I' for Inactive)
REMARK    1  A    between atoms: C_2  and  C_3 
REMARK    2  A    between atoms: C_9  and  C_10 
REMARK    3  A    between atoms: C_21  and  N_22 
ROOT
HETATM    1  C   UNL     1       4.924  26.880  52.496  1.00  0.00     0.066 A 
HETATM    2  N   UNL     1       5.133  26.957  51.171  1.00  0.00    -0.177 NA
HETATM    3  N   UNL     1       6.062  26.018  50.919  1.00  0.00    -0.256 N 
HETATM    4  H   UNL     1       6.378  25.883  49.964  1.00  0.00     0.191 HD
HETATM    5  C   UNL     1       6.454  25.358  52.037  1.00  0.00     0.175 A 
HETATM    6  C   UNL     1       5.746  25.885  53.088  1.00  0.00     0.035 A 
HETATM    7  C   UNL     1       5.939  25.328  54.458  1.00  0.00     0.104 A 
HETATM    8  C   UNL     1       7.044  24.271  54.449  1.00  0.00     0.067 A 
HETATM    9  C   UNL     1       7.480  23.725  55.799  1.00  0.00     0.020 C 
HETATM   10  N   UNL     1       7.842  23.272  56.919  1.00  0.00    -0.096 N 
HETATM   11  C   UNL     1       7.675  23.853  53.319  1.00  0.00     0.139 A 
HETATM   12  O   UNL     1       7.360  24.386  52.057  1.00  0.00    -0.279 OA
ENDROOT
BRANCH   7  13
HETATM   13  C   UNL     1       6.239  26.504  55.377  1.00  0.00    -0.043 A 
HETATM   14  C   UNL     1       7.385  27.286  55.141  1.00  0.00     0.033 A 
HETATM   15  C   UNL     1       7.687  28.390  55.950  1.00  0.00     0.056 A 
HETATM   16 CL   UNL     1       9.123  29.277  55.589  1.00  0.00    -0.083 Cl
HETATM   17  C   UNL     1       6.837  28.732  57.004  1.00  0.00     0.055 A 
HETATM   18 CL   UNL     1       7.143  30.076  58.044  1.00  0.00    -0.083 Cl
HETATM   19  C   UNL     1       5.691  27.970  57.244  1.00  0.00     0.026 A 
HETATM   20  C   UNL     1       5.392  26.868  56.438  1.00  0.00     0.010 A 
ENDBRANCH   7  13
BRANCH  11  21
HETATM   21  N   UNL     1       8.676  22.911  53.263  1.00  0.00    -0.282 NA
HETATM   22  H   UNL     1       9.041  22.590  54.156  1.00  0.00     0.126 HD
HETATM   23  H   UNL     1       9.405  23.160  52.598  1.00  0.00     0.126 HD
ENDBRANCH  11  21
BRANCH   1  24
HETATM   24  C   UNL     1       3.924  27.788  53.133  1.00  0.00     0.057 C 
HETATM   25  C   UNL     1       4.516  29.140  53.495  1.00  0.00     0.011 C 
ENDBRANCH   1  24
TORSDOF 3
ENDMDL
MODEL 2
REMARK VINA RESULT:      -7.4      1.955      2.830
REMARK  3 active torsions:
REMARK  status: ('A' for Active; 'I' for Inactive)
REMARK    1  A    between atoms: C_2  and  C_3 
REMARK    2  A    between atoms: C_9  and  C_10 
REMARK    3  A    between atoms: C_21  and  N_22 
ROOT
HETATM    1  C   UNL     1       4.499  28.337  55.122  1.00  0.00     0.066 A 
HETATM    2  N   UNL     1       3.803  28.256  53.975  1.00  0.00    -0.177 NA
HETATM    3  N   UNL     1       4.157  27.069  53.448  1.00  0.00    -0.256 N 
HETATM    4  H   UNL     1       3.744  26.781  52.567  1.00  0.00     0.191 HD
HETATM    5  C   UNL     1       5.057  26.405  54.214  1.00  0.00     0.175 A 
HETATM    6  C   UNL     1       5.313  27.190  55.311  1.00  0.00     0.035 A 
HETATM    7  C   UNL     1       6.249  26.699  56.364  1.00  0.00     0.104 A 
HETATM    8  C   UNL     1       6.869  25.367  55.942  1.00  0.00     0.067 A 
HETATM    9  C   UNL     1       7.972  24.814  56.830  1.00  0.00     0.020 C 
HETATM   10  N   UNL     1       8.888  24.356  57.566  1.00  0.00    -0.096 N 
HETATM   11  C   UNL     1       6.524  24.703  54.806  1.00  0.00     0.139 A 
HETATM   12  O   UNL     1       5.565  25.214  53.915  1.00  0.00    -0.279 OA
ENDROOT
BRANCH   7  13
HETATM   13  C   UNL     1       7.278  27.798  56.590  1.00  0.00    -0.043 A 
HETATM   14  C   UNL     1       7.384  28.388  57.864  1.00  0.00     0.033 A 
HETATM   15  C   UNL     1       8.331  29.388  58.120  1.00  0.00     0.056 A 
HETATM   16 CL   UNL     1       8.373  30.062  59.710  1.00  0.00    -0.083 Cl
HETATM   17  C   UNL     1       9.195  29.804  57.105  1.00  0.00     0.055 A 
HETATM   18 CL   UNL     1      10.387  31.031  57.345  1.00  0.00    -0.083 Cl
HETATM   19  C   UNL     1       9.108  29.220  55.839  1.00  0.00     0.026 A 
HETATM   20  C   UNL     1       8.160  28.224  55.583  1.00  0.00     0.010 A 
ENDBRANCH   7  13
BRANCH  11  21
HETATM   21  N   UNL     1       7.058  23.508  54.384  1.00  0.00    -0.282 NA
HETATM   22  H   UNL     1       7.173  23.396  53.380  1.00  0.00     0.126 HD
HETATM   23  H   UNL     1       6.614  22.707  54.827  1.00  0.00     0.126 HD
ENDBRANCH  11  21
BRANCH   1  24
HETATM   24  C   UNL     1       4.337  29.541  55.990  1.00  0.00     0.057 C 
HETATM   25  C   UNL     1       5.242  30.687  55.567  1.00  0.00     0.011 C 
ENDBRANCH   1  24
TORSDOF 3
ENDMDL
MODEL 3
REMARK VINA RESULT:      -7.0      4.645      6.241
REMARK  3 active torsions:
REMARK  status: ('A' for Active; 'I' for Inactive)
REMARK    1  A    between atoms: C_2  and  C_3 
REMARK    2  A    between atoms: C_9  and  C_10 
REMARK    3  A    between atoms: C_21  and  N_22 
ROOT
HETATM    1  C   UNL     1       4.817  29.867  57.030  1.00  0.00     0.066 A 
HETATM    2  N   UNL     1       4.032  30.518  57.906  1.00  0.00    -0.177 NA
HETATM    3  N   UNL     1       4.892  31.155  58.721  1.00  0.00    -0.256 N 
HETATM    4  H   UNL     1       4.523  31.729  59.472  1.00  0.00     0.191 HD
HETATM    5  C   UNL     1       6.188  30.922  58.399  1.00  0.00     0.175 A 
HETATM    6  C   UNL     1       6.191  30.088  57.309  1.00  0.00     0.035 A 
HETATM    7  C   UNL     1       7.489  29.681  56.697  1.00  0.00     0.104 A 
HETATM    8  C   UNL     1       8.656  30.224  57.522  1.00  0.00     0.067 A 
HETATM    9  C   UNL     1      10.048  29.758  57.127  1.00  0.00     0.020 C 
HETATM   10  N   UNL     1      11.203  29.371  56.801  1.00  0.00    -0.096 N 
HETATM   11  C   UNL     1       8.500  31.039  58.600  1.00  0.00     0.139 A 
HETATM   12  O   UNL     1       7.228  31.433  59.049  1.00  0.00    -0.279 OA
ENDROOT
BRANCH   7  13
HETATM   13  C   UNL     1       7.477  28.161  56.600  1.00  0.00    -0.043 A 
HETATM   14  C   UNL     1       7.530  27.554  55.331  1.00  0.00     0.033 A 
HETATM   15  C   UNL     1       7.542  26.160  55.197  1.00  0.00     0.056 A 
HETATM   16 CL   UNL     1       7.593  25.510  53.598  1.00  0.00    -0.083 Cl
HETATM   17  C   UNL     1       7.510  25.351  56.336  1.00  0.00     0.055 A 
HETATM   18 CL   UNL     1       7.520  23.626  56.250  1.00  0.00    -0.083 Cl
HETATM   19  C   UNL     1       7.467  25.941  57.602  1.00  0.00     0.026 A 
HETATM   20  C   UNL     1       7.452  27.332  57.734  1.00  0.00     0.010 A 
ENDBRANCH   7  13
BRANCH  11  21
HETATM   21  N   UNL     1       9.517  31.546  59.373  1.00  0.00    -0.282 NA
HETATM   22  H   UNL     1       9.364  32.471  59.768  1.00  0.00     0.126 HD
HETATM   23  H   UNL     1      10.428  31.446  58.931  1.00  0.00     0.126 HD
ENDBRANCH  11  21
BRANCH   1  24
HETATM   24  C   UNL     1       4.185  29.050  55.951  1.00  0.00     0.057 C 
HETATM   25  C   UNL     1       4.391  29.653  54.571  1.00  0.00     0.011 C 
ENDBRANCH   1  24
TORSDOF 3
ENDMDL
MODEL 4
REMARK VINA RESULT:      -6.8      3.181      5.640
REMARK  3 active torsions:
REMARK  status: ('A' for Active; 'I' for Inactive)
REMARK    1  A    between atoms: C_2  and  C_3 
REMARK    2  A    between atoms: C_9  and  C_10 
REMARK    3  A    between atoms: C_21  and  N_22 
ROOT
HETATM    1  C   UNL     1       7.787  23.920  55.807  1.00  0.00     0.066 A 
HETATM    2  N   UNL     1       9.032  23.772  56.291  1.00  0.00    -0.177 NA
HETATM    3  N   UNL     1       9.247  24.883  57.019  1.00  0.00    -0.256 N 
HETATM    4  H   UNL     1      10.135  24.993  57.496  1.00  0.00     0.191 HD
HETATM    5  C   UNL     1       8.188  25.730  57.003  1.00  0.00     0.175 A 
HETATM    6  C   UNL     1       7.216  25.151  56.226  1.00  0.00     0.035 A 
HETATM    7  C   UNL     1       5.906  25.841  56.051  1.00  0.00     0.104 A 
HETATM    8  C   UNL     1       5.933  27.209  56.734  1.00  0.00     0.067 A 
HETATM    9  C   UNL     1       4.730  28.111  56.506  1.00  0.00     0.020 C 
HETATM   10  N   UNL     1       3.733  28.859  56.317  1.00  0.00    -0.096 N 
HETATM   11  C   UNL     1       6.984  27.662  57.468  1.00  0.00     0.139 A 
HETATM   12  O   UNL     1       8.148  26.895  57.641  1.00  0.00    -0.279 OA
ENDROOT
BRANCH   7  13
HETATM   13  C   UNL     1       5.642  25.920  54.554  1.00  0.00    -0.043 A 
HETATM   14  C   UNL     1       5.925  27.117  53.869  1.00  0.00     0.033 A 
HETATM   15  C   UNL     1       5.717  27.225  52.488  1.00  0.00     0.056 A 
HETATM   16 CL   UNL     1       6.079  28.739  51.740  1.00  0.00    -0.083 Cl
HETATM   17  C   UNL     1       5.230  26.130  51.770  1.00  0.00     0.055 A 
HETATM   18 CL   UNL     1       4.946  26.189  50.067  1.00  0.00    -0.083 Cl
HETATM   19  C   UNL     1       4.954  24.934  52.435  1.00  0.00     0.026 A 
HETATM   20  C   UNL     1       5.159  24.827  53.814  1.00  0.00     0.010 A 
ENDBRANCH   7  13
BRANCH  11  21
HETATM   21  N   UNL     1       7.055  28.885  58.094  1.00  0.00    -0.282 NA
HETATM   22  H   UNL     1       7.963  29.344  58.083  1.00  0.00     0.126 HD
HETATM   23  H   UNL     1       6.622  28.875  59.014  1.00  0.00     0.126 HD
ENDBRANCH  11  21
BRANCH   1  24
HETATM   24  C   UNL     1       7.204  22.846  54.949  1.00  0.00     0.057 C 
HETATM   25  C   UNL     1       8.062  22.547  53.730  1.00  0.00     0.011 C 
ENDBRANCH   1  24
TORSDOF 3
ENDMDL
MODEL 5
REMARK VINA RESULT:      -6.8      3.565      4.858
REMARK  3 active torsions:
REMARK  status: ('A' for Active; 'I' for Inactive)
REMARK    1  A    between atoms: C_2  and  C_3 
REMARK    2  A    between atoms: C_9  and  C_10 
REMARK    3  A    between atoms: C_21  and  N_22 
ROOT
HETATM    1  C   UNL     1       4.756  27.382  52.953  1.00  0.00     0.066 A 
HETATM    2  N   UNL     1       3.551  27.969  52.857  1.00  0.00    -0.177 NA
HETATM    3  N   UNL     1       3.574  28.943  53.784  1.00  0.00    -0.256 N 
HETATM    4  H   UNL     1       2.759  29.537  53.893  1.00  0.00     0.191 HD
HETATM    5  C   UNL     1       4.744  28.985  54.468  1.00  0.00     0.175 A 
HETATM    6  C   UNL     1       5.543  27.988  53.967  1.00  0.00     0.035 A 
HETATM    7  C   UNL     1       6.923  27.812  54.504  1.00  0.00     0.104 A 
HETATM    8  C   UNL     1       7.167  28.776  55.666  1.00  0.00     0.067 A 
HETATM    9  C   UNL     1       8.468  28.607  56.433  1.00  0.00     0.020 C 
HETATM   10  N   UNL     1       9.547  28.468  57.070  1.00  0.00    -0.096 N 
HETATM   11  C   UNL     1       6.266  29.713  56.065  1.00  0.00     0.139 A 
HETATM   12  O   UNL     1       5.018  29.854  55.436  1.00  0.00    -0.279 OA
ENDROOT
BRANCH   7  13
HETATM   13  C   UNL     1       7.063  26.348  54.897  1.00  0.00    -0.043 A 
HETATM   14  C   UNL     1       7.722  25.461  54.024  1.00  0.00     0.033 A 
HETATM   15  C   UNL     1       7.890  24.111  54.356  1.00  0.00     0.056 A 
HETATM   16 CL   UNL     1       8.698  23.100  53.213  1.00  0.00    -0.083 Cl
HETATM   17  C   UNL     1       7.408  23.630  55.576  1.00  0.00     0.055 A 
HETATM   18 CL   UNL     1       7.576  21.978  56.054  1.00  0.00    -0.083 Cl
HETATM   19  C   UNL     1       6.761  24.500  56.456  1.00  0.00     0.026 A 
HETATM   20  C   UNL     1       6.591  25.847  56.122  1.00  0.00     0.010 A 
ENDBRANCH   7  13
BRANCH  11  21
HETATM   21  N   UNL     1       6.439  30.596  57.106  1.00  0.00    -0.282 NA
HETATM   22  H   UNL     1       6.140  31.553  56.938  1.00  0.00     0.126 HD
HETATM   23  H   UNL     1       7.368  30.533  57.517  1.00  0.00     0.126 HD
ENDBRANCH  11  21
BRANCH   1  24
HETATM   24  C   UNL     1       5.089  26.245  52.044  1.00  0.00     0.057 C 
HETATM   25  C   UNL     1       4.626  24.906  52.595  1.00  0.00     0.011 C 
ENDBRANCH   1  24
TORSDOF 3
ENDMDL
MODEL 6
REMARK VINA RESULT:      -6.7      9.907     12.488
REMARK  3 active torsions:
REMARK  status: ('A' for Active; 'I' for Inactive)
REMARK    1  A    between atoms: C_2  and  C_3 
REMARK    2  A    between atoms: C_9  and  C_10 
REMARK    3  A    between atoms: C_21  and  N_22 
ROOT
HETATM    1  C   UNL     1       6.465  32.260  61.802  1.00  0.00     0.066 A 
HETATM    2  N   UNL     1       7.775  31.966  61.729  1.00  0.00    -0.177 NA
HETATM    3  N   UNL     1       8.272  32.337  62.923  1.00  0.00    -0.256 N 
HETATM    4  H   UNL     1       9.260  32.200  63.107  1.00  0.00     0.191 HD
HETATM    5  C   UNL     1       7.327  32.862  63.742  1.00  0.00     0.175 A 
HETATM    6  C   UNL     1       6.138  32.837  63.057  1.00  0.00     0.035 A 
HETATM    7  C   UNL     1       4.895  33.323  63.723  1.00  0.00     0.104 A 
HETATM    8  C   UNL     1       5.223  33.895  65.103  1.00  0.00     0.067 A 
HETATM    9  C   UNL     1       4.090  34.584  65.845  1.00  0.00     0.020 C 
HETATM   10  N   UNL     1       3.150  35.157  66.460  1.00  0.00    -0.096 N 
HETATM   11  C   UNL     1       6.466  33.862  65.654  1.00  0.00     0.139 A 
HETATM   12  O   UNL     1       7.561  33.304  64.973  1.00  0.00    -0.279 OA
ENDROOT
BRANCH   7  13
HETATM   13  C   UNL     1       4.258  34.340  62.787  1.00  0.00    -0.043 A 
HETATM   14  C   UNL     1       2.941  34.129  62.335  1.00  0.00     0.033 A 
HETATM   15  C   UNL     1       2.310  35.050  61.490  1.00  0.00     0.056 A 
HETATM   16 CL   UNL     1       0.700  34.693  60.978  1.00  0.00    -0.083 Cl
HETATM   17  C   UNL     1       2.987  36.205  61.091  1.00  0.00     0.055 A 
HETATM   18 CL   UNL     1       2.276  37.384  60.048  1.00  0.00    -0.083 Cl
HETATM   19  C   UNL     1       4.290  36.433  61.539  1.00  0.00     0.026 A 
HETATM   20  C   UNL     1       4.920  35.511  62.380  1.00  0.00     0.010 A 
ENDBRANCH   7  13
BRANCH  11  21
HETATM   21  N   UNL     1       6.808  34.367  66.887  1.00  0.00    -0.282 NA
HETATM   22  H   UNL     1       6.201  35.092  67.260  1.00  0.00     0.126 HD
HETATM   23  H   UNL     1       7.796  34.602  66.949  1.00  0.00     0.126 HD
ENDBRANCH  11  21
BRANCH   1  24
HETATM   24  C   UNL     1       5.584  31.963  60.634  1.00  0.00     0.057 C 
HETATM   25  C   UNL     1       5.596  33.077  59.600  1.00  0.00     0.011 C 
ENDBRANCH   1  24
TORSDOF 3
ENDMDL
MODEL 7
REMARK VINA RESULT:      -6.6     10.265     12.764
REMARK  3 active torsions:
REMARK  status: ('A' for Active; 'I' for Inactive)
REMARK    1  A    between atoms: C_2  and  C_3 
REMARK    2  A    between atoms: C_9  and  C_10 
REMARK    3  A    between atoms: C_21  and  N_22 
ROOT
HETATM    1  C   UNL     1       6.451  32.902  61.639  1.00  0.00     0.066 A 
HETATM    2  N   UNL     1       7.661  32.319  61.584  1.00  0.00    -0.177 NA
HETATM    3  N   UNL     1       8.122  32.378  62.847  1.00  0.00    -0.256 N 
HETATM    4  H   UNL     1       9.034  31.984  63.056  1.00  0.00     0.191 HD
HETATM    5  C   UNL     1       7.253  32.985  63.693  1.00  0.00     0.175 A 
HETATM    6  C   UNL     1       6.154  33.346  62.954  1.00  0.00     0.035 A 
HETATM    7  C   UNL     1       5.000  34.009  63.628  1.00  0.00     0.104 A 
HETATM    8  C   UNL     1       5.327  34.273  65.099  1.00  0.00     0.067 A 
HETATM    9  C   UNL     1       4.319  35.094  65.886  1.00  0.00     0.020 C 
HETATM   10  N   UNL     1       3.483  35.776  66.539  1.00  0.00    -0.096 N 
HETATM   11  C   UNL     1       6.477  33.864  65.698  1.00  0.00     0.139 A 
HETATM   12  O   UNL     1       7.472  33.169  64.990  1.00  0.00    -0.279 OA
ENDROOT
BRANCH   7  13
HETATM   13  C   UNL     1       4.696  35.277  62.842  1.00  0.00    -0.043 A 
HETATM   14  C   UNL     1       5.717  36.225  62.645  1.00  0.00     0.033 A 
HETATM   15  C   UNL     1       5.485  37.395  61.910  1.00  0.00     0.056 A 
HETATM   16 CL   UNL     1       6.797  38.504  61.736  1.00  0.00    -0.083 Cl
HETATM   17  C   UNL     1       4.226  37.627  61.352  1.00  0.00     0.055 A 
HETATM   18 CL   UNL     1       3.864  39.046  60.436  1.00  0.00    -0.083 Cl
HETATM   19  C   UNL     1       3.205  36.690  61.532  1.00  0.00     0.026 A 
HETATM   20  C   UNL     1       3.437  35.524  62.268  1.00  0.00     0.010 A 
ENDBRANCH   7  13
BRANCH  11  21
HETATM   21  N   UNL     1       6.815  34.083  67.013  1.00  0.00    -0.282 NA
HETATM   22  H   UNL     1       7.452  34.856  67.191  1.00  0.00     0.126 HD
HETATM   23  H   UNL     1       7.081  33.226  67.493  1.00  0.00     0.126 HD
ENDBRANCH  11  21
BRANCH   1  24
HETATM   24  C   UNL     1       5.632  33.001  60.394  1.00  0.00     0.057 C 
HETATM   25  C   UNL     1       4.279  32.323  60.535  1.00  0.00     0.011 C 
ENDBRANCH   1  24
TORSDOF 3
ENDMDL
MODEL 8
REMARK VINA RESULT:      -6.6      7.274      9.672
REMARK  3 active torsions:
REMARK  status: ('A' for Active; 'I' for Inactive)
REMARK    1  A    between atoms: C_2  and  C_3 
REMARK    2  A    between atoms: C_9  and  C_10 
REMARK    3  A    between atoms: C_21  and  N_22 
ROOT
HETATM    1  C   UNL     1       7.967  31.553  59.917  1.00  0.00     0.066 A 
HETATM    2  N   UNL     1       8.365  30.394  59.364  1.00  0.00    -0.177 NA
HETATM    3  N   UNL     1       7.354  30.043  58.548  1.00  0.00    -0.256 N 
HETATM    4  H   UNL     1       7.433  29.189  58.007  1.00  0.00     0.191 HD
HETATM    5  C   UNL     1       6.329  30.931  58.575  1.00  0.00     0.175 A 
HETATM    6  C   UNL     1       6.679  31.928  59.452  1.00  0.00     0.035 A 
HETATM    7  C   UNL     1       5.754  33.079  59.664  1.00  0.00     0.104 A 
HETATM    8  C   UNL     1       4.454  32.863  58.889  1.00  0.00     0.067 A 
HETATM    9  C   UNL     1       3.338  33.866  59.132  1.00  0.00     0.020 C 
HETATM   10  N   UNL     1       2.412  34.698  59.334  1.00  0.00    -0.096 N 
HETATM   11  C   UNL     1       4.241  31.808  58.058  1.00  0.00     0.139 A 
HETATM   12  O   UNL     1       5.214  30.814  57.862  1.00  0.00    -0.279 OA
ENDROOT
BRANCH   7  13
HETATM   13  C   UNL     1       5.545  33.208  61.167  1.00  0.00    -0.043 A 
HETATM   14  C   UNL     1       5.741  34.459  61.783  1.00  0.00     0.033 A 
HETATM   15  C   UNL     1       5.539  34.627  63.158  1.00  0.00     0.056 A 
HETATM   16 CL   UNL     1       5.822  36.196  63.823  1.00  0.00    -0.083 Cl
HETATM   17  C   UNL     1       5.126  33.544  63.938  1.00  0.00     0.055 A 
HETATM   18 CL   UNL     1       4.859  33.673  65.639  1.00  0.00    -0.083 Cl
HETATM   19  C   UNL     1       4.918  32.299  63.339  1.00  0.00     0.026 A 
HETATM   20  C   UNL     1       5.122  32.132  61.966  1.00  0.00     0.010 A 
ENDBRANCH   7  13
BRANCH  11  21
HETATM   21  N   UNL     1       3.088  31.571  57.346  1.00  0.00    -0.282 NA
HETATM   22  H   UNL     1       3.203  31.125  56.439  1.00  0.00     0.126 HD
HETATM   23  H   UNL     1       2.476  32.383  57.318  1.00  0.00     0.126 HD
ENDBRANCH  11  21
BRANCH   1  24
HETATM   24  C   UNL     1       8.868  32.248  60.884  1.00  0.00     0.057 C 
HETATM   25  C   UNL     1       8.726  31.712  62.298  1.00  0.00     0.011 C 
ENDBRANCH   1  24
TORSDOF 3
ENDMDL
MODEL 9
REMARK VINA RESULT:      -6.3      9.079     11.708
REMARK  3 active torsions:
REMARK  status: ('A' for Active; 'I' for Inactive)
REMARK    1  A    between atoms: C_2  and  C_3 
REMARK    2  A    between atoms: C_9  and  C_10 
REMARK    3  A    between atoms: C_21  and  N_22 
ROOT
HETATM    1  C   UNL     1       6.106  34.865  64.268  1.00  0.00     0.066 A 
HETATM    2  N   UNL     1       6.611  34.395  65.421  1.00  0.00    -0.177 NA
HETATM    3  N   UNL     1       7.230  33.251  65.078  1.00  0.00    -0.256 N 
HETATM    4  H   UNL     1       7.702  32.713  65.797  1.00  0.00     0.191 HD
HETATM    5  C   UNL     1       7.124  32.977  63.754  1.00  0.00     0.175 A 
HETATM    6  C   UNL     1       6.399  33.994  63.186  1.00  0.00     0.035 A 
HETATM    7  C   UNL     1       6.148  33.986  61.715  1.00  0.00     0.104 A 
HETATM    8  C   UNL     1       6.696  32.701  61.092  1.00  0.00     0.067 A 
HETATM    9  C   UNL     1       6.372  32.461  59.626  1.00  0.00     0.020 C 
HETATM   10  N   UNL     1       6.104  32.262  58.410  1.00  0.00    -0.096 N 
HETATM   11  C   UNL     1       7.391  31.764  61.790  1.00  0.00     0.139 A 
HETATM   12  O   UNL     1       7.647  31.907  63.164  1.00  0.00    -0.279 OA
ENDROOT
BRANCH   7  13
HETATM   13  C   UNL     1       4.648  34.158  61.520  1.00  0.00    -0.043 A 
HETATM   14  C   UNL     1       4.174  35.246  60.763  1.00  0.00     0.033 A 
HETATM   15  C   UNL     1       2.803  35.430  60.542  1.00  0.00     0.056 A 
HETATM   16 CL   UNL     1       2.319  36.804  59.614  1.00  0.00    -0.083 Cl
HETATM   17  C   UNL     1       1.885  34.518  61.069  1.00  0.00     0.055 A 
HETATM   18 CL   UNL     1       0.181  34.680  60.840  1.00  0.00    -0.083 Cl
HETATM   19  C   UNL     1       2.342  33.429  61.814  1.00  0.00     0.026 A 
HETATM   20  C   UNL     1       3.710  33.248  62.037  1.00  0.00     0.010 A 
ENDBRANCH   7  13
BRANCH  11  21
HETATM   21  N   UNL     1       7.897  30.594  61.273  1.00  0.00    -0.282 NA
HETATM   22  H   UNL     1       8.041  29.836  61.935  1.00  0.00     0.126 HD
HETATM   23  H   UNL     1       8.697  30.753  60.666  1.00  0.00     0.126 HD
ENDBRANCH  11  21
BRANCH   1  24
HETATM   24  C   UNL     1       5.350  36.153  64.272  1.00  0.00     0.057 C 
HETATM   25  C   UNL     1       3.889  35.968  64.648  1.00  0.00     0.011 C 
ENDBRANCH   1  24
TORSDOF 3
ENDMDL
MODEL 10
REMARK VINA RESULT:      -6.2      3.905      5.929
REMARK  3 active torsions:
REMARK  status: ('A' for Active; 'I' for Inactive)
REMARK    1  A    between atoms: C_2  and  C_3 
REMARK    2  A    between atoms: C_9  and  C_10 
REMARK    3  A    between atoms: C_21  and  N_22 
ROOT
HETATM    1  C   UNL     1       5.613  25.596  54.057  1.00  0.00     0.066 A 
HETATM    2  N   UNL     1       6.650  24.861  54.494  1.00  0.00    -0.177 NA
HETATM    3  N   UNL     1       7.289  25.663  55.365  1.00  0.00    -0.256 N 
HETATM    4  H   UNL     1       8.116  25.314  55.839  1.00  0.00     0.191 HD
HETATM    5  C   UNL     1       6.700  26.879  55.485  1.00  0.00     0.175 A 
HETATM    6  C   UNL     1       5.609  26.885  54.652  1.00  0.00     0.035 A 
HETATM    7  C   UNL     1       4.732  28.090  54.596  1.00  0.00     0.104 A 
HETATM    8  C   UNL     1       5.314  29.208  55.461  1.00  0.00     0.067 A 
HETATM    9  C   UNL     1       4.628  30.562  55.381  1.00  0.00     0.020 C 
HETATM   10  N   UNL     1       4.059  31.686  55.315  1.00  0.00    -0.096 N 
HETATM   11  C   UNL     1       6.424  29.061  56.234  1.00  0.00     0.139 A 
HETATM   12  O   UNL     1       7.136  27.850  56.279  1.00  0.00    -0.279 OA
ENDROOT
BRANCH   7  13
HETATM   13  C   UNL     1       4.596  28.472  53.129  1.00  0.00    -0.043 A 
HETATM   14  C   UNL     1       3.311  28.570  52.561  1.00  0.00     0.033 A 
HETATM   15  C   UNL     1       3.140  28.940  51.221  1.00  0.00     0.056 A 
HETATM   16 CL   UNL     1       1.526  29.017  50.612  1.00  0.00    -0.083 Cl
HETATM   17  C   UNL     1       4.255  29.227  50.430  1.00  0.00     0.055 A 
HETATM   18 CL   UNL     1       4.124  29.687  48.771  1.00  0.00    -0.083 Cl
HETATM   19  C   UNL     1       5.536  29.143  50.984  1.00  0.00     0.026 A 
HETATM   20  C   UNL     1       5.705  28.772  52.321  1.00  0.00     0.010 A 
ENDBRANCH   7  13
BRANCH  11  21
HETATM   21  N   UNL     1       6.985  30.038  57.022  1.00  0.00    -0.282 NA
HETATM   22  H   UNL     1       6.633  30.982  56.887  1.00  0.00     0.126 HD
HETATM   23  H   UNL     1       8.001  29.988  57.036  1.00  0.00     0.126 HD
ENDBRANCH  11  21
BRANCH   1  24
HETATM   24  C   UNL     1       4.664  25.003  53.067  1.00  0.00     0.057 C 
HETATM   25  C   UNL     1       5.123  25.202  51.632  1.00  0.00     0.011 C 
ENDBRANCH   1  24
TORSDOF 3
ENDMDL
