MODEL 1
REMARK VINA RESULT:      -8.7      0.000      0.000
REMARK  6 active torsions:
REMARK  status: ('A' for Active; 'I' for Inactive)
REMARK    1  A    between atoms: C_2  and  N_3 
REMARK    2  A    between atoms: N_3  and  C_5 
REMARK    3  A    between atoms: N_3  and  C_26 
REMARK    4  A    between atoms: C_5  and  C_6 
REMARK    5  A    between atoms: C_8  and  N_9 
REMARK       I    between atoms: N_9  and  C_10 
REMARK    6  A    between atoms: C_10  and  C_11 
ROOT
HETATM    1  N   UNL     1       6.371  32.681  62.626  1.00  0.00    -0.322 N 
HETATM    2  C   UNL     1       5.288  32.115  63.282  1.00  0.00     0.277 C 
HETATM    3  O   UNL     1       5.020  30.917  63.317  1.00  0.00    -0.266 OA
HETATM    4  H   UNL     1       6.417  33.694  62.730  1.00  0.00     0.169 HD
ENDROOT
BRANCH   1   5
HETATM    5  C   UNL     1       7.325  32.044  61.818  1.00  0.00     0.035 A 
HETATM    6  C   UNL     1       7.053  31.594  60.525  1.00  0.00     0.038 A 
HETATM    7  C   UNL     1       8.059  31.053  59.706  1.00  0.00    -0.030 A 
HETATM    8  C   UNL     1       9.344  30.896  60.237  1.00  0.00     0.009 A 
HETATM    9  C   UNL     1       9.618  31.308  61.543  1.00  0.00     0.003 A 
HETATM   10  C   UNL     1       8.617  31.890  62.325  1.00  0.00     0.029 A 
BRANCH   7  11
HETATM   11  C   UNL     1       7.738  30.688  58.280  1.00  0.00     0.273 C 
BRANCH  11  12
HETATM   12  N   UNL     1       8.303  29.356  57.790  1.00  0.00    -0.068 N 
HETATM   13  H   UNL     1       8.924  29.030  58.540  1.00  0.00     0.280 HD
BRANCH  12  14
HETATM   14  C   UNL     1       9.169  29.469  56.548  1.00  0.00     0.231 C 
HETATM   15  C   UNL     1      10.632  29.644  56.912  1.00  0.00     0.034 C 
ENDBRANCH  12  14
BRANCH  12  16
HETATM   16  C   UNL     1       7.265  28.257  57.614  1.00  0.00     0.231 C 
HETATM   17  C   UNL     1       7.919  26.896  57.452  1.00  0.00     0.034 C 
ENDBRANCH  12  16
ENDBRANCH  11  12
ENDBRANCH   7  11
ENDBRANCH   1   5
BRANCH   2  18
HETATM   18  C   UNL     1       4.442  33.131  63.930  1.00  0.00     0.157 A 
HETATM   19  N   UNL     1       3.267  33.513  63.382  1.00  0.00    -0.168 NA
HETATM   20  N   UNL     1       2.769  34.389  64.277  1.00  0.00    -0.277 N 
HETATM   21  H   UNL     1       1.865  34.809  64.093  1.00  0.00     0.189 HD
HETATM   22  C   UNL     1       3.576  34.610  65.359  1.00  0.00     0.063 A 
HETATM   23  C   UNL     1       4.693  33.810  65.158  1.00  0.00     0.029 A 
HETATM   24  C   UNL     1       3.422  35.436  66.476  1.00  0.00     0.032 A 
HETATM   25  C   UNL     1       5.730  33.837  66.111  1.00  0.00     0.023 A 
HETATM   26  C   UNL     1       5.610  34.662  67.243  1.00  0.00    -0.061 A 
HETATM   27  C   UNL     1       4.466  35.451  67.410  1.00  0.00     0.009 A 
HETATM   28  C   UNL     1       6.739  34.739  68.230  1.00  0.00     0.048 C 
ENDBRANCH   2  18
TORSDOF 6
ENDMDL
MODEL 2
REMARK VINA RESULT:      -8.6     10.729     13.378
REMARK  6 active torsions:
REMARK  status: ('A' for Active; 'I' for Inactive)
REMARK    1  A    between atoms: C_2  and  N_3 
REMARK    2  A    between atoms: N_3  and  C_5 
REMARK    3  A    between atoms: N_3  and  C_26 
REMARK    4  A    between atoms: C_5  and  C_6 
REMARK    5  A    between atoms: C_8  and  N_9 
REMARK       I    between atoms: N_9  and  C_10 
REMARK    6  A    between atoms: C_10  and  C_11 
ROOT
HETATM    1  N   UNL     1       5.989  25.647  54.094  1.00  0.00    -0.322 N 
HETATM    2  C   UNL     1       7.215  25.850  54.708  1.00  0.00     0.277 C 
HETATM    3  O   UNL     1       7.946  26.823  54.541  1.00  0.00    -0.266 OA
HETATM    4  H   UNL     1       5.538  24.778  54.379  1.00  0.00     0.169 HD
ENDROOT
BRANCH   1   5
HETATM    5  C   UNL     1       5.364  26.440  53.120  1.00  0.00     0.035 A 
HETATM    6  C   UNL     1       5.361  26.119  51.761  1.00  0.00     0.038 A 
HETATM    7  C   UNL     1       4.641  26.880  50.825  1.00  0.00    -0.030 A 
HETATM    8  C   UNL     1       3.974  28.029  51.266  1.00  0.00     0.009 A 
HETATM    9  C   UNL     1       4.002  28.381  52.617  1.00  0.00     0.003 A 
HETATM   10  C   UNL     1       4.683  27.583  53.540  1.00  0.00     0.029 A 
BRANCH   7  11
HETATM   11  C   UNL     1       4.578  26.426  49.390  1.00  0.00     0.273 C 
BRANCH  11  12
HETATM   12  N   UNL     1       3.508  27.092  48.526  1.00  0.00    -0.068 N 
HETATM   13  H   UNL     1       2.899  27.592  49.183  1.00  0.00     0.280 HD
BRANCH  12  14
HETATM   14  C   UNL     1       2.614  26.115  47.785  1.00  0.00     0.231 C 
HETATM   15  C   UNL     1       3.029  24.679  48.050  1.00  0.00     0.034 C 
ENDBRANCH  12  14
BRANCH  12  16
HETATM   16  C   UNL     1       4.037  28.154  47.573  1.00  0.00     0.231 C 
HETATM   17  C   UNL     1       5.516  27.958  47.289  1.00  0.00     0.034 C 
ENDBRANCH  12  16
ENDBRANCH  11  12
ENDBRANCH   7  11
ENDBRANCH   1   5
BRANCH   2  18
HETATM   18  C   UNL     1       7.585  24.729  55.588  1.00  0.00     0.157 A 
HETATM   19  N   UNL     1       7.720  24.905  56.921  1.00  0.00    -0.168 NA
HETATM   20  N   UNL     1       7.996  23.668  57.378  1.00  0.00    -0.277 N 
HETATM   21  H   UNL     1       8.126  23.536  58.376  1.00  0.00     0.189 HD
HETATM   22  C   UNL     1       8.071  22.710  56.405  1.00  0.00     0.063 A 
HETATM   23  C   UNL     1       7.820  23.375  55.212  1.00  0.00     0.029 A 
HETATM   24  C   UNL     1       8.339  21.340  56.472  1.00  0.00     0.032 A 
HETATM   25  C   UNL     1       7.849  22.644  54.007  1.00  0.00     0.023 A 
HETATM   26  C   UNL     1       8.122  21.266  54.038  1.00  0.00    -0.061 A 
HETATM   27  C   UNL     1       8.366  20.634  55.263  1.00  0.00     0.009 A 
HETATM   28  C   UNL     1       8.213  20.497  52.752  1.00  0.00     0.048 C 
ENDBRANCH   2  18
TORSDOF 6
ENDMDL
MODEL 3
REMARK VINA RESULT:      -8.6      3.608     10.389
REMARK  6 active torsions:
REMARK  status: ('A' for Active; 'I' for Inactive)
REMARK    1  A    between atoms: C_2  and  N_3 
REMARK    2  A    between atoms: N_3  and  C_5 
REMARK    3  A    between atoms: N_3  and  C_26 
REMARK    4  A    between atoms: C_5  and  C_6 
REMARK    5  A    between atoms: C_8  and  N_9 
REMARK       I    between atoms: N_9  and  C_10 
REMARK    6  A    between atoms: C_10  and  C_11 
ROOT
HETATM    1  N   UNL     1       7.593  28.873  56.699  1.00  0.00    -0.322 N 
HETATM    2  C   UNL     1       7.369  27.544  57.023  1.00  0.00     0.277 C 
HETATM    3  O   UNL     1       7.740  26.987  58.053  1.00  0.00    -0.266 OA
HETATM    4  H   UNL     1       7.192  29.138  55.800  1.00  0.00     0.169 HD
ENDROOT
BRANCH   1   5
HETATM    5  C   UNL     1       8.335  29.827  57.411  1.00  0.00     0.035 A 
HETATM    6  C   UNL     1       7.768  30.688  58.353  1.00  0.00     0.038 A 
HETATM    7  C   UNL     1       8.555  31.562  59.121  1.00  0.00    -0.030 A 
HETATM    8  C   UNL     1       9.932  31.616  58.876  1.00  0.00     0.009 A 
HETATM    9  C   UNL     1      10.504  30.786  57.909  1.00  0.00     0.003 A 
HETATM   10  C   UNL     1       9.712  29.888  57.190  1.00  0.00     0.029 A 
BRANCH   7  11
HETATM   11  C   UNL     1       7.908  32.388  60.202  1.00  0.00     0.273 C 
BRANCH  11  12
HETATM   12  N   UNL     1       7.107  31.612  61.246  1.00  0.00    -0.068 N 
HETATM   13  H   UNL     1       6.889  30.710  60.807  1.00  0.00     0.280 HD
BRANCH  12  14
HETATM   14  C   UNL     1       5.771  32.242  61.596  1.00  0.00     0.231 C 
HETATM   15  C   UNL     1       5.239  33.077  60.446  1.00  0.00     0.034 C 
ENDBRANCH  12  14
BRANCH  12  16
HETATM   16  C   UNL     1       7.881  31.273  62.512  1.00  0.00     0.231 C 
HETATM   17  C   UNL     1       7.994  32.474  63.433  1.00  0.00     0.034 C 
ENDBRANCH  12  16
ENDBRANCH  11  12
ENDBRANCH   7  11
ENDBRANCH   1   5
BRANCH   2  18
HETATM   18  C   UNL     1       6.643  26.830  55.960  1.00  0.00     0.157 A 
HETATM   19  N   UNL     1       5.501  27.330  55.439  1.00  0.00    -0.168 NA
HETATM   20  N   UNL     1       5.178  26.446  54.474  1.00  0.00    -0.277 N 
HETATM   21  H   UNL     1       4.349  26.617  53.917  1.00  0.00     0.189 HD
HETATM   22  C   UNL     1       6.041  25.390  54.364  1.00  0.00     0.063 A 
HETATM   23  C   UNL     1       7.010  25.602  55.336  1.00  0.00     0.029 A 
HETATM   24  C   UNL     1       6.047  24.284  53.511  1.00  0.00     0.032 A 
HETATM   25  C   UNL     1       8.043  24.655  55.485  1.00  0.00     0.023 A 
HETATM   26  C   UNL     1       8.075  23.527  54.647  1.00  0.00    -0.061 A 
HETATM   27  C   UNL     1       7.080  23.353  53.677  1.00  0.00     0.009 A 
HETATM   28  C   UNL     1       9.138  22.485  54.843  1.00  0.00     0.048 C 
ENDBRANCH   2  18
TORSDOF 6
ENDMDL
MODEL 4
REMARK VINA RESULT:      -8.6      3.514     10.648
REMARK  6 active torsions:
REMARK  status: ('A' for Active; 'I' for Inactive)
REMARK    1  A    between atoms: C_2  and  N_3 
REMARK    2  A    between atoms: N_3  and  C_5 
REMARK    3  A    between atoms: N_3  and  C_26 
REMARK    4  A    between atoms: C_5  and  C_6 
REMARK    5  A    between atoms: C_8  and  N_9 
REMARK       I    between atoms: N_9  and  C_10 
REMARK    6  A    between atoms: C_10  and  C_11 
ROOT
HETATM    1  N   UNL     1       8.082  28.499  56.437  1.00  0.00    -0.322 N 
HETATM    2  C   UNL     1       7.901  27.172  56.794  1.00  0.00     0.277 C 
HETATM    3  O   UNL     1       8.044  26.709  57.922  1.00  0.00    -0.266 OA
HETATM    4  H   UNL     1       7.902  28.676  55.449  1.00  0.00     0.169 HD
ENDROOT
BRANCH   1   5
HETATM    5  C   UNL     1       8.529  29.561  57.238  1.00  0.00     0.035 A 
HETATM    6  C   UNL     1       7.713  30.217  58.161  1.00  0.00     0.038 A 
HETATM    7  C   UNL     1       8.219  31.207  59.020  1.00  0.00    -0.030 A 
HETATM    8  C   UNL     1       9.559  31.590  58.886  1.00  0.00     0.009 A 
HETATM    9  C   UNL     1      10.375  30.966  57.940  1.00  0.00     0.003 A 
HETATM   10  C   UNL     1       9.865  29.949  57.129  1.00  0.00     0.029 A 
BRANCH   7  11
HETATM   11  C   UNL     1       7.324  31.805  60.074  1.00  0.00     0.273 C 
BRANCH  11  12
HETATM   12  N   UNL     1       7.963  32.029  61.443  1.00  0.00    -0.068 N 
HETATM   13  H   UNL     1       8.916  32.358  61.249  1.00  0.00     0.280 HD
BRANCH  12  14
HETATM   14  C   UNL     1       8.117  30.765  62.270  1.00  0.00     0.231 C 
HETATM   15  C   UNL     1       9.525  30.208  62.166  1.00  0.00     0.034 C 
ENDBRANCH  12  14
BRANCH  12  16
HETATM   16  C   UNL     1       7.312  33.128  62.271  1.00  0.00     0.231 C 
HETATM   17  C   UNL     1       7.679  33.008  63.739  1.00  0.00     0.034 C 
ENDBRANCH  12  16
ENDBRANCH  11  12
ENDBRANCH   7  11
ENDBRANCH   1   5
BRANCH   2  18
HETATM   18  C   UNL     1       7.538  26.334  55.639  1.00  0.00     0.157 A 
HETATM   19  N   UNL     1       7.034  26.882  54.510  1.00  0.00    -0.168 NA
HETATM   20  N   UNL     1       6.891  25.829  53.682  1.00  0.00    -0.277 N 
HETATM   21  H   UNL     1       6.537  25.992  52.746  1.00  0.00     0.189 HD
HETATM   22  C   UNL     1       7.250  24.627  54.229  1.00  0.00     0.063 A 
HETATM   23  C   UNL     1       7.668  24.920  55.521  1.00  0.00     0.029 A 
HETATM   24  C   UNL     1       7.239  23.332  53.707  1.00  0.00     0.032 A 
HETATM   25  C   UNL     1       8.087  23.864  56.355  1.00  0.00     0.023 A 
HETATM   26  C   UNL     1       8.082  22.548  55.864  1.00  0.00    -0.061 A 
HETATM   27  C   UNL     1       7.656  22.297  54.554  1.00  0.00     0.009 A 
HETATM   28  C   UNL     1       8.470  21.414  56.769  1.00  0.00     0.048 C 
ENDBRANCH   2  18
TORSDOF 6
ENDMDL
MODEL 5
REMARK VINA RESULT:      -8.6      5.449     11.553
REMARK  6 active torsions:
REMARK  status: ('A' for Active; 'I' for Inactive)
REMARK    1  A    between atoms: C_2  and  N_3 
REMARK    2  A    between atoms: N_3  and  C_5 
REMARK    3  A    between atoms: N_3  and  C_26 
REMARK    4  A    between atoms: C_5  and  C_6 
REMARK    5  A    between atoms: C_8  and  N_9 
REMARK       I    between atoms: N_9  and  C_10 
REMARK    6  A    between atoms: C_10  and  C_11 
ROOT
HETATM    1  N   UNL     1       6.484  27.091  55.420  1.00  0.00    -0.322 N 
HETATM    2  C   UNL     1       6.101  25.772  55.603  1.00  0.00     0.277 C 
HETATM    3  O   UNL     1       5.501  25.330  56.579  1.00  0.00    -0.266 OA
HETATM    4  H   UNL     1       6.964  27.250  54.535  1.00  0.00     0.169 HD
ENDROOT
BRANCH   1   5
HETATM    5  C   UNL     1       6.347  28.166  56.312  1.00  0.00     0.035 A 
HETATM    6  C   UNL     1       7.318  28.502  57.257  1.00  0.00     0.038 A 
HETATM    7  C   UNL     1       7.195  29.645  58.065  1.00  0.00    -0.030 A 
HETATM    8  C   UNL     1       6.032  30.416  57.964  1.00  0.00     0.009 A 
HETATM    9  C   UNL     1       5.037  30.068  57.048  1.00  0.00     0.003 A 
HETATM   10  C   UNL     1       5.200  28.956  56.218  1.00  0.00     0.029 A 
BRANCH   7  11
HETATM   11  C   UNL     1       8.322  30.025  58.990  1.00  0.00     0.273 C 
BRANCH  11  12
HETATM   12  N   UNL     1       8.857  31.448  58.841  1.00  0.00    -0.068 N 
HETATM   13  H   UNL     1       8.270  31.886  58.121  1.00  0.00     0.280 HD
BRANCH  12  14
HETATM   14  C   UNL     1      10.282  31.524  58.323  1.00  0.00     0.231 C 
HETATM   15  C   UNL     1      10.645  30.283  57.528  1.00  0.00     0.034 C 
ENDBRANCH  12  14
BRANCH  12  16
HETATM   16  C   UNL     1       8.696  32.316  60.080  1.00  0.00     0.231 C 
HETATM   17  C   UNL     1       9.579  31.832  61.216  1.00  0.00     0.034 C 
ENDBRANCH  12  16
ENDBRANCH  11  12
ENDBRANCH   7  11
ENDBRANCH   1   5
BRANCH   2  18
HETATM   18  C   UNL     1       6.527  24.913  54.485  1.00  0.00     0.157 A 
HETATM   19  N   UNL     1       6.432  25.336  53.205  1.00  0.00    -0.168 NA
HETATM   20  N   UNL     1       6.965  24.322  52.495  1.00  0.00    -0.277 N 
HETATM   21  H   UNL     1       7.023  24.413  51.487  1.00  0.00     0.189 HD
HETATM   22  C   UNL     1       7.374  23.257  53.251  1.00  0.00     0.063 A 
HETATM   23  C   UNL     1       7.089  23.605  54.564  1.00  0.00     0.029 A 
HETATM   24  C   UNL     1       7.956  22.038  52.895  1.00  0.00     0.032 A 
HETATM   25  C   UNL     1       7.383  22.685  55.591  1.00  0.00     0.023 A 
HETATM   26  C   UNL     1       7.963  21.447  55.267  1.00  0.00    -0.061 A 
HETATM   27  C   UNL     1       8.238  21.137  53.929  1.00  0.00     0.009 A 
HETATM   28  C   UNL     1       8.222  20.440  56.351  1.00  0.00     0.048 C 
ENDBRANCH   2  18
TORSDOF 6
ENDMDL
MODEL 6
REMARK VINA RESULT:      -8.4      9.949     13.495
REMARK  6 active torsions:
REMARK  status: ('A' for Active; 'I' for Inactive)
REMARK    1  A    between atoms: C_2  and  N_3 
REMARK    2  A    between atoms: N_3  and  C_5 
REMARK    3  A    between atoms: N_3  and  C_26 
REMARK    4  A    between atoms: C_5  and  C_6 
REMARK    5  A    between atoms: C_8  and  N_9 
REMARK       I    between atoms: N_9  and  C_10 
REMARK    6  A    between atoms: C_10  and  C_11 
ROOT
HETATM    1  N   UNL     1       6.720  26.999  53.085  1.00  0.00    -0.322 N 
HETATM    2  C   UNL     1       5.424  27.207  52.641  1.00  0.00     0.277 C 
HETATM    3  O   UNL     1       4.405  26.802  53.195  1.00  0.00    -0.266 OA
HETATM    4  H   UNL     1       7.423  27.428  52.485  1.00  0.00     0.169 HD
ENDROOT
BRANCH   1   5
HETATM    5  C   UNL     1       7.150  26.239  54.184  1.00  0.00     0.035 A 
HETATM    6  C   UNL     1       7.626  24.931  54.069  1.00  0.00     0.038 A 
HETATM    7  C   UNL     1       8.143  24.235  55.174  1.00  0.00    -0.030 A 
HETATM    8  C   UNL     1       8.106  24.850  56.431  1.00  0.00     0.009 A 
HETATM    9  C   UNL     1       7.597  26.143  56.564  1.00  0.00     0.003 A 
HETATM   10  C   UNL     1       7.133  26.838  55.444  1.00  0.00     0.029 A 
BRANCH   7  11
HETATM   11  C   UNL     1       8.748  22.870  54.975  1.00  0.00     0.273 C 
BRANCH  11  12
HETATM   12  N   UNL     1       7.763  21.740  54.682  1.00  0.00    -0.068 N 
HETATM   13  H   UNL     1       6.835  22.126  54.893  1.00  0.00     0.280 HD
BRANCH  12  14
HETATM   14  C   UNL     1       7.926  20.526  55.579  1.00  0.00     0.231 C 
HETATM   15  C   UNL     1       8.342  20.932  56.982  1.00  0.00     0.034 C 
ENDBRANCH  12  14
BRANCH  12  16
HETATM   16  C   UNL     1       7.705  21.315  53.222  1.00  0.00     0.231 C 
HETATM   17  C   UNL     1       8.774  20.287  52.899  1.00  0.00     0.034 C 
ENDBRANCH  12  16
ENDBRANCH  11  12
ENDBRANCH   7  11
ENDBRANCH   1   5
BRANCH   2  18
HETATM   18  C   UNL     1       5.387  27.962  51.378  1.00  0.00     0.157 A 
HETATM   19  N   UNL     1       5.872  29.222  51.305  1.00  0.00    -0.168 NA
HETATM   20  N   UNL     1       5.721  29.544  50.005  1.00  0.00    -0.277 N 
HETATM   21  H   UNL     1       6.036  30.456  49.692  1.00  0.00     0.189 HD
HETATM   22  C   UNL     1       5.140  28.568  49.244  1.00  0.00     0.063 A 
HETATM   23  C   UNL     1       4.893  27.517  50.118  1.00  0.00     0.029 A 
HETATM   24  C   UNL     1       4.811  28.523  47.887  1.00  0.00     0.032 A 
HETATM   25  C   UNL     1       4.270  26.354  49.623  1.00  0.00     0.023 A 
HETATM   26  C   UNL     1       3.920  26.278  48.265  1.00  0.00    -0.061 A 
HETATM   27  C   UNL     1       4.190  27.360  47.417  1.00  0.00     0.009 A 
HETATM   28  C   UNL     1       3.201  25.066  47.747  1.00  0.00     0.048 C 
ENDBRANCH   2  18
TORSDOF 6
ENDMDL
MODEL 7
REMARK VINA RESULT:      -8.0      3.075      5.289
REMARK  6 active torsions:
REMARK  status: ('A' for Active; 'I' for Inactive)
REMARK    1  A    between atoms: C_2  and  N_3 
REMARK    2  A    between atoms: N_3  and  C_5 
REMARK    3  A    between atoms: N_3  and  C_26 
REMARK    4  A    between atoms: C_5  and  C_6 
REMARK    5  A    between atoms: C_8  and  N_9 
REMARK       I    between atoms: N_9  and  C_10 
REMARK    6  A    between atoms: C_10  and  C_11 
ROOT
HETATM    1  N   UNL     1       7.865  29.923  59.232  1.00  0.00    -0.322 N 
HETATM    2  C   UNL     1       7.650  31.238  59.616  1.00  0.00     0.277 C 
HETATM    3  O   UNL     1       7.353  32.162  58.865  1.00  0.00    -0.266 OA
HETATM    4  H   UNL     1       8.092  29.309  60.014  1.00  0.00     0.169 HD
ENDROOT
BRANCH   1   5
HETATM    5  C   UNL     1       7.869  29.387  57.935  1.00  0.00     0.035 A 
HETATM    6  C   UNL     1       6.818  28.625  57.420  1.00  0.00     0.038 A 
HETATM    7  C   UNL     1       6.809  28.190  56.084  1.00  0.00    -0.030 A 
HETATM    8  C   UNL     1       7.920  28.468  55.280  1.00  0.00     0.009 A 
HETATM    9  C   UNL     1       8.994  29.196  55.797  1.00  0.00     0.003 A 
HETATM   10  C   UNL     1       8.963  29.663  57.113  1.00  0.00     0.029 A 
BRANCH   7  11
HETATM   11  C   UNL     1       5.600  27.469  55.547  1.00  0.00     0.273 C 
BRANCH  11  12
HETATM   12  N   UNL     1       5.881  26.355  54.540  1.00  0.00    -0.068 N 
HETATM   13  H   UNL     1       6.799  26.576  54.137  1.00  0.00     0.280 HD
BRANCH  12  14
HETATM   14  C   UNL     1       4.911  26.316  53.373  1.00  0.00     0.231 C 
HETATM   15  C   UNL     1       4.911  24.953  52.703  1.00  0.00     0.034 C 
ENDBRANCH  12  14
BRANCH  12  16
HETATM   16  C   UNL     1       6.028  24.971  55.154  1.00  0.00     0.231 C 
HETATM   17  C   UNL     1       7.486  24.614  55.376  1.00  0.00     0.034 C 
ENDBRANCH  12  16
ENDBRANCH  11  12
ENDBRANCH   7  11
ENDBRANCH   1   5
BRANCH   2  18
HETATM   18  C   UNL     1       7.851  31.430  61.062  1.00  0.00     0.157 A 
HETATM   19  N   UNL     1       8.633  30.590  61.775  1.00  0.00    -0.168 NA
HETATM   20  N   UNL     1       8.618  31.119  63.015  1.00  0.00    -0.277 N 
HETATM   21  H   UNL     1       9.159  30.665  63.743  1.00  0.00     0.189 HD
HETATM   22  C   UNL     1       7.846  32.241  63.141  1.00  0.00     0.063 A 
HETATM   23  C   UNL     1       7.314  32.468  61.879  1.00  0.00     0.029 A 
HETATM   24  C   UNL     1       7.572  33.058  64.241  1.00  0.00     0.032 A 
HETATM   25  C   UNL     1       6.445  33.562  61.693  1.00  0.00     0.023 A 
HETATM   26  C   UNL     1       6.143  34.399  62.780  1.00  0.00    -0.061 A 
HETATM   27  C   UNL     1       6.704  34.138  64.036  1.00  0.00     0.009 A 
HETATM   28  C   UNL     1       5.171  35.529  62.601  1.00  0.00     0.048 C 
ENDBRANCH   2  18
TORSDOF 6
ENDMDL
MODEL 8
REMARK VINA RESULT:      -7.9      3.091      5.286
REMARK  6 active torsions:
REMARK  status: ('A' for Active; 'I' for Inactive)
REMARK    1  A    between atoms: C_2  and  N_3 
REMARK    2  A    between atoms: N_3  and  C_5 
REMARK    3  A    between atoms: N_3  and  C_26 
REMARK    4  A    between atoms: C_5  and  C_6 
REMARK    5  A    between atoms: C_8  and  N_9 
REMARK       I    between atoms: N_9  and  C_10 
REMARK    6  A    between atoms: C_10  and  C_11 
ROOT
HETATM    1  N   UNL     1       7.658  29.990  59.163  1.00  0.00    -0.322 N 
HETATM    2  C   UNL     1       7.531  31.311  59.564  1.00  0.00     0.277 C 
HETATM    3  O   UNL     1       7.269  32.259  58.829  1.00  0.00    -0.266 OA
HETATM    4  H   UNL     1       7.868  29.356  59.933  1.00  0.00     0.169 HD
ENDROOT
BRANCH   1   5
HETATM    5  C   UNL     1       7.596  29.468  57.862  1.00  0.00     0.035 A 
HETATM    6  C   UNL     1       6.433  28.925  57.311  1.00  0.00     0.038 A 
HETATM    7  C   UNL     1       6.379  28.505  55.972  1.00  0.00    -0.030 A 
HETATM    8  C   UNL     1       7.547  28.566  55.202  1.00  0.00     0.009 A 
HETATM    9  C   UNL     1       8.725  29.071  55.754  1.00  0.00     0.003 A 
HETATM   10  C   UNL     1       8.746  29.531  57.074  1.00  0.00     0.029 A 
BRANCH   7  11
HETATM   11  C   UNL     1       5.071  28.032  55.394  1.00  0.00     0.273 C 
BRANCH  11  12
HETATM   12  N   UNL     1       4.990  26.546  55.051  1.00  0.00    -0.068 N 
HETATM   13  H   UNL     1       4.001  26.293  55.164  1.00  0.00     0.280 HD
BRANCH  12  14
HETATM   14  C   UNL     1       5.763  25.648  55.999  1.00  0.00     0.231 C 
HETATM   15  C   UNL     1       4.928  25.281  57.213  1.00  0.00     0.034 C 
ENDBRANCH  12  14
BRANCH  12  16
HETATM   16  C   UNL     1       5.334  26.212  53.606  1.00  0.00     0.231 C 
HETATM   17  C   UNL     1       4.659  27.169  52.640  1.00  0.00     0.034 C 
ENDBRANCH  12  16
ENDBRANCH  11  12
ENDBRANCH   7  11
ENDBRANCH   1   5
BRANCH   2  18
HETATM   18  C   UNL     1       7.780  31.477  61.005  1.00  0.00     0.157 A 
HETATM   19  N   UNL     1       8.584  30.623  61.677  1.00  0.00    -0.168 NA
HETATM   20  N   UNL     1       8.612  31.129  62.926  1.00  0.00    -0.277 N 
HETATM   21  H   UNL     1       9.176  30.661  63.627  1.00  0.00     0.189 HD
HETATM   22  C   UNL     1       7.847  32.250  63.099  1.00  0.00     0.063 A 
HETATM   23  C   UNL     1       7.273  32.500  61.859  1.00  0.00     0.029 A 
HETATM   24  C   UNL     1       7.611  33.047  64.222  1.00  0.00     0.032 A 
HETATM   25  C   UNL     1       6.400  33.598  61.722  1.00  0.00     0.023 A 
HETATM   26  C   UNL     1       6.136  34.416  62.834  1.00  0.00    -0.061 A 
HETATM   27  C   UNL     1       6.738  34.131  64.066  1.00  0.00     0.009 A 
HETATM   28  C   UNL     1       5.161  35.551  62.708  1.00  0.00     0.048 C 
ENDBRANCH   2  18
TORSDOF 6
ENDMDL
MODEL 9
REMARK VINA RESULT:      -7.8      9.031     12.521
REMARK  6 active torsions:
REMARK  status: ('A' for Active; 'I' for Inactive)
REMARK    1  A    between atoms: C_2  and  N_3 
REMARK    2  A    between atoms: N_3  and  C_5 
REMARK    3  A    between atoms: N_3  and  C_26 
REMARK    4  A    between atoms: C_5  and  C_6 
REMARK    5  A    between atoms: C_8  and  N_9 
REMARK       I    between atoms: N_9  and  C_10 
REMARK    6  A    between atoms: C_10  and  C_11 
ROOT
HETATM    1  N   UNL     1       6.191  26.270  55.703  1.00  0.00    -0.322 N 
HETATM    2  C   UNL     1       7.264  25.630  55.103  1.00  0.00     0.277 C 
HETATM    3  O   UNL     1       7.790  25.957  54.042  1.00  0.00    -0.266 OA
HETATM    4  H   UNL     1       5.914  25.844  56.587  1.00  0.00     0.169 HD
ENDROOT
BRANCH   1   5
HETATM    5  C   UNL     1       5.439  27.349  55.213  1.00  0.00     0.035 A 
HETATM    6  C   UNL     1       4.936  27.400  53.911  1.00  0.00     0.038 A 
HETATM    7  C   UNL     1       4.102  28.447  53.484  1.00  0.00    -0.030 A 
HETATM    8  C   UNL     1       3.837  29.498  54.370  1.00  0.00     0.009 A 
HETATM    9  C   UNL     1       4.367  29.476  55.662  1.00  0.00     0.003 A 
HETATM   10  C   UNL     1       5.154  28.401  56.084  1.00  0.00     0.029 A 
BRANCH   7  11
HETATM   11  C   UNL     1       3.494  28.397  52.107  1.00  0.00     0.273 C 
BRANCH  11  12
HETATM   12  N   UNL     1       4.338  28.994  50.983  1.00  0.00    -0.068 N 
HETATM   13  H   UNL     1       4.912  29.719  51.428  1.00  0.00     0.280 HD
BRANCH  12  14
HETATM   14  C   UNL     1       3.531  29.699  49.908  1.00  0.00     0.231 C 
HETATM   15  C   UNL     1       2.426  30.545  50.517  1.00  0.00     0.034 C 
ENDBRANCH  12  14
BRANCH  12  16
HETATM   16  C   UNL     1       5.327  28.024  50.352  1.00  0.00     0.231 C 
HETATM   17  C   UNL     1       4.627  26.789  49.814  1.00  0.00     0.034 C 
ENDBRANCH  12  16
ENDBRANCH  11  12
ENDBRANCH   7  11
ENDBRANCH   1   5
BRANCH   2  18
HETATM   18  C   UNL     1       7.710  24.458  55.875  1.00  0.00     0.157 A 
HETATM   19  N   UNL     1       7.939  24.544  57.204  1.00  0.00    -0.168 NA
HETATM   20  N   UNL     1       8.262  23.283  57.553  1.00  0.00    -0.277 N 
HETATM   21  H   UNL     1       8.465  23.086  58.527  1.00  0.00     0.189 HD
HETATM   22  C   UNL     1       8.278  22.395  56.512  1.00  0.00     0.063 A 
HETATM   23  C   UNL     1       7.933  23.136  55.389  1.00  0.00     0.029 A 
HETATM   24  C   UNL     1       8.566  21.029  56.464  1.00  0.00     0.032 A 
HETATM   25  C   UNL     1       7.884  22.491  54.137  1.00  0.00     0.023 A 
HETATM   26  C   UNL     1       8.175  21.119  54.053  1.00  0.00    -0.061 A 
HETATM   27  C   UNL     1       8.515  20.408  55.210  1.00  0.00     0.009 A 
HETATM   28  C   UNL     1       8.183  20.441  52.713  1.00  0.00     0.048 C 
ENDBRANCH   2  18
TORSDOF 6
ENDMDL
MODEL 10
REMARK VINA RESULT:      -7.7      3.586      6.208
REMARK  6 active torsions:
REMARK  status: ('A' for Active; 'I' for Inactive)
REMARK    1  A    between atoms: C_2  and  N_3 
REMARK    2  A    between atoms: N_3  and  C_5 
REMARK    3  A    between atoms: N_3  and  C_26 
REMARK    4  A    between atoms: C_5  and  C_6 
REMARK    5  A    between atoms: C_8  and  N_9 
REMARK       I    between atoms: N_9  and  C_10 
REMARK    6  A    between atoms: C_10  and  C_11 
ROOT
HETATM    1  N   UNL     1       6.894  29.371  58.326  1.00  0.00    -0.322 N 
HETATM    2  C   UNL     1       7.176  30.707  58.566  1.00  0.00     0.277 C 
HETATM    3  O   UNL     1       6.943  31.636  57.798  1.00  0.00    -0.266 OA
HETATM    4  H   UNL     1       7.158  28.761  59.098  1.00  0.00     0.169 HD
ENDROOT
BRANCH   1   5
HETATM    5  C   UNL     1       6.370  28.791  57.161  1.00  0.00     0.035 A 
HETATM    6  C   UNL     1       7.089  27.900  56.362  1.00  0.00     0.038 A 
HETATM    7  C   UNL     1       6.500  27.259  55.259  1.00  0.00    -0.030 A 
HETATM    8  C   UNL     1       5.182  27.586  54.917  1.00  0.00     0.009 A 
HETATM    9  C   UNL     1       4.467  28.505  55.688  1.00  0.00     0.003 A 
HETATM   10  C   UNL     1       5.054  29.094  56.810  1.00  0.00     0.029 A 
BRANCH   7  11
HETATM   11  C   UNL     1       7.283  26.222  54.497  1.00  0.00     0.273 C 
BRANCH  11  12
HETATM   12  N   UNL     1       6.713  24.805  54.519  1.00  0.00    -0.068 N 
HETATM   13  H   UNL     1       5.694  24.922  54.575  1.00  0.00     0.280 HD
BRANCH  12  14
HETATM   14  C   UNL     1       7.109  23.996  55.741  1.00  0.00     0.231 C 
HETATM   15  C   UNL     1       8.587  24.156  56.050  1.00  0.00     0.034 C 
ENDBRANCH  12  14
BRANCH  12  16
HETATM   16  C   UNL     1       6.962  24.004  53.249  1.00  0.00     0.231 C 
HETATM   17  C   UNL     1       7.514  24.881  52.139  1.00  0.00     0.034 C 
ENDBRANCH  12  16
ENDBRANCH  11  12
ENDBRANCH   7  11
ENDBRANCH   1   5
BRANCH   2  18
HETATM   18  C   UNL     1       7.835  30.907  59.868  1.00  0.00     0.157 A 
HETATM   19  N   UNL     1       8.969  30.243  60.184  1.00  0.00    -0.168 NA
HETATM   20  N   UNL     1       9.292  30.727  61.400  1.00  0.00    -0.277 N 
HETATM   21  H   UNL     1      10.135  30.387  61.850  1.00  0.00     0.189 HD
HETATM   22  C   UNL     1       8.410  31.650  61.893  1.00  0.00     0.063 A 
HETATM   23  C   UNL     1       7.431  31.782  60.917  1.00  0.00     0.029 A 
HETATM   24  C   UNL     1       8.390  32.361  63.095  1.00  0.00     0.032 A 
HETATM   25  C   UNL     1       6.355  32.663  61.149  1.00  0.00     0.023 A 
HETATM   26  C   UNL     1       6.300  33.389  62.350  1.00  0.00    -0.061 A 
HETATM   27  C   UNL     1       7.310  33.229  63.306  1.00  0.00     0.009 A 
HETATM   28  C   UNL     1       5.125  34.282  62.627  1.00  0.00     0.048 C 
ENDBRANCH   2  18
TORSDOF 6
ENDMDL
