MODEL 1
REMARK VINA RESULT:      -9.3      0.000      0.000
REMARK  3 active torsions:
REMARK  status: ('A' for Active; 'I' for Inactive)
REMARK    1  A    between atoms: C_5  and  C_6 
REMARK    2  A    between atoms: C_8  and  N_9 
REMARK       I    between atoms: N_9  and  C_10 
REMARK    3  A    between atoms: C_10  and  C_11 
ROOT
HETATM    1  C   UNL     1       6.692  24.974  54.510  1.00  0.00     0.010 A 
HETATM    2  C   UNL     1       7.380  25.931  55.265  1.00  0.00     0.044 A 
HETATM    3  C   UNL     1       6.929  27.250  55.329  1.00  0.00     0.035 A 
HETATM    4  C   UNL     1       5.783  27.604  54.608  1.00  0.00     0.029 A 
HETATM    5  C   UNL     1       5.101  26.655  53.841  1.00  0.00     0.003 A 
HETATM    6  C   UNL     1       5.550  25.336  53.794  1.00  0.00     0.015 A 
ENDROOT
BRANCH   3   7
HETATM    7  N   UNL     1       7.544  28.250  56.110  1.00  0.00    -0.323 N 
HETATM    8  C   UNL     1       7.855  28.201  57.453  1.00  0.00     0.259 C 
HETATM    9  O   UNL     1       7.725  27.199  58.158  1.00  0.00    -0.267 OA
HETATM   10  H   UNL     1       7.729  29.129  55.633  1.00  0.00     0.169 HD
BRANCH   8  11
HETATM   11  C   UNL     1       8.409  29.472  58.039  1.00  0.00     0.070 A 
HETATM   12  C   UNL     1       9.761  30.091  57.772  1.00  0.00     0.116 A 
HETATM   13  S   UNL     1      10.984  29.497  56.784  1.00  0.00    -0.059 SA
HETATM   14  N   UNL     1      10.020  31.289  58.413  1.00  0.00    -0.356 N 
HETATM   15  C   UNL     1       9.142  31.924  59.250  1.00  0.00     0.089 A 
HETATM   16  H   UNL     1      10.923  31.720  58.235  1.00  0.00     0.166 HD
HETATM   17  C   UNL     1       7.944  31.387  59.494  1.00  0.00     0.018 A 
HETATM   18  C   UNL     1       7.579  30.139  58.869  1.00  0.00     0.022 A 
ENDBRANCH   8  11
ENDBRANCH   3   7
BRANCH   1  19
HETATM   19  C   UNL     1       7.182  23.558  54.508  1.00  0.00     0.116 A 
HETATM   20  N   UNL     1       7.541  22.814  53.451  1.00  0.00    -0.344 N 
HETATM   21  C   UNL     1       7.900  21.525  53.820  1.00  0.00     0.029 A 
HETATM   22  H   UNL     1       7.519  23.150  52.495  1.00  0.00     0.167 HD
HETATM   23  C   UNL     1       8.300  20.492  52.849  1.00  0.00     0.070 C 
HETATM   24  C   UNL     1       7.787  21.489  55.196  1.00  0.00     0.029 A 
HETATM   25  N   UNL     1       7.348  22.749  55.565  1.00  0.00    -0.344 N 
HETATM   26  C   UNL     1       8.034  20.411  56.169  1.00  0.00     0.070 C 
HETATM   27  H   UNL     1       7.167  23.035  56.524  1.00  0.00     0.167 HD
ENDBRANCH   1  19
TORSDOF 3
ENDMDL
MODEL 2
REMARK VINA RESULT:      -9.0      2.450      8.748
REMARK  3 active torsions:
REMARK  status: ('A' for Active; 'I' for Inactive)
REMARK    1  A    between atoms: C_5  and  C_6 
REMARK    2  A    between atoms: C_8  and  N_9 
REMARK       I    between atoms: N_9  and  C_10 
REMARK    3  A    between atoms: C_10  and  C_11 
ROOT
HETATM    1  C   UNL     1       8.767  30.573  58.995  1.00  0.00     0.010 A 
HETATM    2  C   UNL     1       8.182  29.489  58.331  1.00  0.00     0.044 A 
HETATM    3  C   UNL     1       8.837  28.863  57.270  1.00  0.00     0.035 A 
HETATM    4  C   UNL     1      10.086  29.351  56.869  1.00  0.00     0.029 A 
HETATM    5  C   UNL     1      10.667  30.443  57.520  1.00  0.00     0.003 A 
HETATM    6  C   UNL     1      10.013  31.054  58.588  1.00  0.00     0.015 A 
ENDROOT
BRANCH   3   7
HETATM    7  N   UNL     1       8.329  27.735  56.592  1.00  0.00    -0.323 N 
HETATM    8  C   UNL     1       7.992  26.509  57.127  1.00  0.00     0.259 C 
HETATM    9  O   UNL     1       7.992  26.255  58.332  1.00  0.00    -0.267 OA
HETATM   10  H   UNL     1       8.255  27.826  55.582  1.00  0.00     0.169 HD
BRANCH   8  11
HETATM   11  C   UNL     1       7.578  25.458  56.131  1.00  0.00     0.070 A 
HETATM   12  C   UNL     1       6.504  25.568  55.075  1.00  0.00     0.116 A 
HETATM   13  S   UNL     1       5.492  26.875  54.774  1.00  0.00    -0.059 SA
HETATM   14  N   UNL     1       6.339  24.464  54.257  1.00  0.00    -0.356 N 
HETATM   15  C   UNL     1       7.076  23.314  54.351  1.00  0.00     0.089 A 
HETATM   16  H   UNL     1       5.625  24.529  53.536  1.00  0.00     0.166 HD
HETATM   17  C   UNL     1       8.027  23.204  55.282  1.00  0.00     0.018 A 
HETATM   18  C   UNL     1       8.278  24.304  56.182  1.00  0.00     0.022 A 
ENDBRANCH   8  11
ENDBRANCH   3   7
BRANCH   1  19
HETATM   19  C   UNL     1       8.051  31.185  60.161  1.00  0.00     0.116 A 
HETATM   20  N   UNL     1       6.755  31.519  60.246  1.00  0.00    -0.344 N 
HETATM   21  C   UNL     1       6.449  32.109  61.465  1.00  0.00     0.029 A 
HETATM   22  H   UNL     1       6.089  31.381  59.494  1.00  0.00     0.167 HD
HETATM   23  C   UNL     1       5.103  32.603  61.804  1.00  0.00     0.070 C 
HETATM   24  C   UNL     1       7.628  32.105  62.184  1.00  0.00     0.029 A 
HETATM   25  N   UNL     1       8.571  31.533  61.347  1.00  0.00    -0.344 N 
HETATM   26  C   UNL     1       7.947  32.585  63.540  1.00  0.00     0.070 C 
HETATM   27  H   UNL     1       9.547  31.392  61.595  1.00  0.00     0.167 HD
ENDBRANCH   1  19
TORSDOF 3
ENDMDL
MODEL 3
REMARK VINA RESULT:      -8.9      1.849      1.998
REMARK  3 active torsions:
REMARK  status: ('A' for Active; 'I' for Inactive)
REMARK    1  A    between atoms: C_5  and  C_6 
REMARK    2  A    between atoms: C_8  and  N_9 
REMARK       I    between atoms: N_9  and  C_10 
REMARK    3  A    between atoms: C_10  and  C_11 
ROOT
HETATM    1  C   UNL     1       6.395  24.720  54.234  1.00  0.00     0.010 A 
HETATM    2  C   UNL     1       6.691  25.682  55.206  1.00  0.00     0.044 A 
HETATM    3  C   UNL     1       6.067  26.930  55.190  1.00  0.00     0.035 A 
HETATM    4  C   UNL     1       5.150  27.210  54.171  1.00  0.00     0.029 A 
HETATM    5  C   UNL     1       4.861  26.257  53.190  1.00  0.00     0.003 A 
HETATM    6  C   UNL     1       5.478  25.007  53.220  1.00  0.00     0.015 A 
ENDROOT
BRANCH   3   7
HETATM    7  N   UNL     1       6.282  27.924  56.167  1.00  0.00    -0.323 N 
HETATM    8  C   UNL     1       7.317  28.833  56.235  1.00  0.00     0.259 C 
HETATM    9  O   UNL     1       8.173  28.975  55.360  1.00  0.00    -0.267 OA
HETATM   10  H   UNL     1       5.621  27.929  56.941  1.00  0.00     0.169 HD
BRANCH   8  11
HETATM   11  C   UNL     1       7.339  29.703  57.463  1.00  0.00     0.070 A 
HETATM   12  C   UNL     1       6.294  30.703  57.897  1.00  0.00     0.116 A 
HETATM   13  S   UNL     1       4.870  31.110  57.102  1.00  0.00    -0.059 SA
HETATM   14  N   UNL     1       6.535  31.357  59.092  1.00  0.00    -0.356 N 
HETATM   15  C   UNL     1       7.636  31.150  59.879  1.00  0.00     0.089 A 
HETATM   16  H   UNL     1       5.834  32.026  59.400  1.00  0.00     0.166 HD
HETATM   17  C   UNL     1       8.568  30.269  59.505  1.00  0.00     0.018 A 
HETATM   18  C   UNL     1       8.405  29.534  58.274  1.00  0.00     0.022 A 
ENDBRANCH   8  11
ENDBRANCH   3   7
BRANCH   1  19
HETATM   19  C   UNL     1       7.051  23.375  54.315  1.00  0.00     0.116 A 
HETATM   20  N   UNL     1       7.501  22.618  53.305  1.00  0.00    -0.344 N 
HETATM   21  C   UNL     1       8.011  21.406  53.750  1.00  0.00     0.029 A 
HETATM   22  H   UNL     1       7.445  22.891  52.330  1.00  0.00     0.167 HD
HETATM   23  C   UNL     1       8.536  20.372  52.842  1.00  0.00     0.070 C 
HETATM   24  C   UNL     1       7.895  21.439  55.126  1.00  0.00     0.029 A 
HETATM   25  N   UNL     1       7.306  22.657  55.419  1.00  0.00    -0.344 N 
HETATM   26  C   UNL     1       8.264  20.458  56.161  1.00  0.00     0.070 C 
HETATM   27  H   UNL     1       7.087  22.976  56.359  1.00  0.00     0.167 HD
ENDBRANCH   1  19
TORSDOF 3
ENDMDL
MODEL 4
REMARK VINA RESULT:      -8.8      8.198     13.930
REMARK  3 active torsions:
REMARK  status: ('A' for Active; 'I' for Inactive)
REMARK    1  A    between atoms: C_5  and  C_6 
REMARK    2  A    between atoms: C_8  and  N_9 
REMARK       I    between atoms: N_9  and  C_10 
REMARK    3  A    between atoms: C_10  and  C_11 
ROOT
HETATM    1  C   UNL     1       5.506  34.789  67.109  1.00  0.00     0.010 A 
HETATM    2  C   UNL     1       6.169  34.070  66.106  1.00  0.00     0.044 A 
HETATM    3  C   UNL     1       5.731  34.122  64.782  1.00  0.00     0.035 A 
HETATM    4  C   UNL     1       4.604  34.894  64.477  1.00  0.00     0.029 A 
HETATM    5  C   UNL     1       3.931  35.601  65.477  1.00  0.00     0.003 A 
HETATM    6  C   UNL     1       4.383  35.556  66.795  1.00  0.00     0.015 A 
ENDROOT
BRANCH   3   7
HETATM    7  N   UNL     1       6.381  33.465  63.717  1.00  0.00    -0.323 N 
HETATM    8  C   UNL     1       6.065  32.244  63.159  1.00  0.00     0.259 C 
HETATM    9  O   UNL     1       5.070  31.582  63.458  1.00  0.00    -0.267 OA
HETATM   10  H   UNL     1       7.214  33.927  63.359  1.00  0.00     0.169 HD
BRANCH   8  11
HETATM   11  C   UNL     1       7.015  31.748  62.101  1.00  0.00     0.070 A 
HETATM   12  C   UNL     1       6.874  31.886  60.604  1.00  0.00     0.116 A 
HETATM   13  S   UNL     1       5.612  32.600  59.755  1.00  0.00    -0.059 SA
HETATM   14  N   UNL     1       7.908  31.370  59.844  1.00  0.00    -0.356 N 
HETATM   15  C   UNL     1       9.019  30.760  60.363  1.00  0.00     0.089 A 
HETATM   16  H   UNL     1       7.830  31.465  58.835  1.00  0.00     0.166 HD
HETATM   17  C   UNL     1       9.155  30.630  61.685  1.00  0.00     0.018 A 
HETATM   18  C   UNL     1       8.130  31.141  62.563  1.00  0.00     0.022 A 
ENDBRANCH   8  11
ENDBRANCH   3   7
BRANCH   1  19
HETATM   19  C   UNL     1       6.038  34.744  68.509  1.00  0.00     0.116 A 
HETATM   20  N   UNL     1       5.346  34.825  69.654  1.00  0.00    -0.344 N 
HETATM   21  C   UNL     1       6.175  34.795  70.767  1.00  0.00     0.029 A 
HETATM   22  H   UNL     1       4.338  34.928  69.694  1.00  0.00     0.167 HD
HETATM   23  C   UNL     1       5.673  34.907  72.147  1.00  0.00     0.070 C 
HETATM   24  C   UNL     1       7.456  34.651  70.270  1.00  0.00     0.029 A 
HETATM   25  N   UNL     1       7.318  34.625  68.893  1.00  0.00    -0.344 N 
HETATM   26  C   UNL     1       8.760  34.552  70.947  1.00  0.00     0.070 C 
HETATM   27  H   UNL     1       8.093  34.530  68.241  1.00  0.00     0.167 HD
ENDBRANCH   1  19
TORSDOF 3
ENDMDL
MODEL 5
REMARK VINA RESULT:      -8.8      5.053      7.848
REMARK  3 active torsions:
REMARK  status: ('A' for Active; 'I' for Inactive)
REMARK    1  A    between atoms: C_5  and  C_6 
REMARK    2  A    between atoms: C_8  and  N_9 
REMARK       I    between atoms: N_9  and  C_10 
REMARK    3  A    between atoms: C_10  and  C_11 
ROOT
HETATM    1  C   UNL     1       6.710  24.858  53.402  1.00  0.00     0.010 A 
HETATM    2  C   UNL     1       5.767  24.957  52.373  1.00  0.00     0.044 A 
HETATM    3  C   UNL     1       5.279  26.200  51.968  1.00  0.00     0.035 A 
HETATM    4  C   UNL     1       5.739  27.348  52.622  1.00  0.00     0.029 A 
HETATM    5  C   UNL     1       6.670  27.253  53.660  1.00  0.00     0.003 A 
HETATM    6  C   UNL     1       7.163  26.009  54.050  1.00  0.00     0.015 A 
ENDROOT
BRANCH   3   7
HETATM    7  N   UNL     1       4.369  26.374  50.905  1.00  0.00    -0.323 N 
HETATM    8  C   UNL     1       4.503  27.192  49.802  1.00  0.00     0.259 C 
HETATM    9  O   UNL     1       5.523  27.827  49.531  1.00  0.00    -0.267 OA
HETATM   10  H   UNL     1       3.486  25.878  50.997  1.00  0.00     0.169 HD
BRANCH   8  11
HETATM   11  C   UNL     1       3.308  27.252  48.888  1.00  0.00     0.070 A 
HETATM   12  C   UNL     1       2.130  28.192  48.981  1.00  0.00     0.116 A 
HETATM   13  S   UNL     1       1.852  29.377  50.141  1.00  0.00    -0.059 SA
HETATM   14  N   UNL     1       1.171  28.067  47.993  1.00  0.00    -0.356 N 
HETATM   15  C   UNL     1       1.232  27.164  46.965  1.00  0.00     0.089 A 
HETATM   16  H   UNL     1       0.377  28.700  48.039  1.00  0.00     0.166 HD
HETATM   17  C   UNL     1       2.268  26.326  46.873  1.00  0.00     0.018 A 
HETATM   18  C   UNL     1       3.323  26.382  47.856  1.00  0.00     0.022 A 
ENDBRANCH   8  11
ENDBRANCH   3   7
BRANCH   1  19
HETATM   19  C   UNL     1       7.244  23.508  53.774  1.00  0.00     0.116 A 
HETATM   20  N   UNL     1       7.758  22.575  52.959  1.00  0.00    -0.344 N 
HETATM   21  C   UNL     1       8.111  21.422  53.646  1.00  0.00     0.029 A 
HETATM   22  H   UNL     1       7.847  22.693  51.956  1.00  0.00     0.167 HD
HETATM   23  C   UNL     1       8.665  20.229  52.984  1.00  0.00     0.070 C 
HETATM   24  C   UNL     1       7.826  21.680  54.973  1.00  0.00     0.029 A 
HETATM   25  N   UNL     1       7.301  22.960  54.997  1.00  0.00    -0.344 N 
HETATM   26  C   UNL     1       7.983  20.856  56.184  1.00  0.00     0.070 C 
HETATM   27  H   UNL     1       6.990  23.437  55.840  1.00  0.00     0.167 HD
ENDBRANCH   1  19
TORSDOF 3
ENDMDL
MODEL 6
REMARK VINA RESULT:      -8.8      3.514      5.726
REMARK  3 active torsions:
REMARK  status: ('A' for Active; 'I' for Inactive)
REMARK    1  A    between atoms: C_5  and  C_6 
REMARK    2  A    between atoms: C_8  and  N_9 
REMARK       I    between atoms: N_9  and  C_10 
REMARK    3  A    between atoms: C_10  and  C_11 
ROOT
HETATM    1  C   UNL     1       8.598  28.717  57.346  1.00  0.00     0.010 A 
HETATM    2  C   UNL     1       7.945  29.195  58.489  1.00  0.00     0.044 A 
HETATM    3  C   UNL     1       8.496  30.231  59.245  1.00  0.00     0.035 A 
HETATM    4  C   UNL     1       9.725  30.771  58.850  1.00  0.00     0.029 A 
HETATM    5  C   UNL     1      10.387  30.287  57.719  1.00  0.00     0.003 A 
HETATM    6  C   UNL     1       9.823  29.262  56.960  1.00  0.00     0.015 A 
ENDROOT
BRANCH   3   7
HETATM    7  N   UNL     1       7.868  30.794  60.375  1.00  0.00    -0.323 N 
HETATM    8  C   UNL     1       7.127  31.956  60.439  1.00  0.00     0.259 C 
HETATM    9  O   UNL     1       6.816  32.633  59.458  1.00  0.00    -0.267 OA
HETATM   10  H   UNL     1       8.029  30.309  61.255  1.00  0.00     0.169 HD
BRANCH   8  11
HETATM   11  C   UNL     1       6.673  32.363  61.815  1.00  0.00     0.070 A 
HETATM   12  C   UNL     1       5.253  32.488  62.312  1.00  0.00     0.116 A 
HETATM   13  S   UNL     1       3.836  32.233  61.444  1.00  0.00    -0.059 SA
HETATM   14  N   UNL     1       5.101  32.849  63.639  1.00  0.00    -0.356 N 
HETATM   15  C   UNL     1       6.139  33.091  64.499  1.00  0.00     0.089 A 
HETATM   16  H   UNL     1       4.149  32.928  63.988  1.00  0.00     0.166 HD
HETATM   17  C   UNL     1       7.399  32.985  64.071  1.00  0.00     0.018 A 
HETATM   18  C   UNL     1       7.661  32.609  62.702  1.00  0.00     0.022 A 
ENDBRANCH   8  11
ENDBRANCH   3   7
BRANCH   1  19
HETATM   19  C   UNL     1       7.948  27.637  56.535  1.00  0.00     0.116 A 
HETATM   20  N   UNL     1       7.197  27.777  55.433  1.00  0.00    -0.344 N 
HETATM   21  C   UNL     1       6.720  26.558  54.972  1.00  0.00     0.029 A 
HETATM   22  H   UNL     1       6.982  28.673  55.011  1.00  0.00     0.167 HD
HETATM   23  C   UNL     1       5.838  26.432  53.798  1.00  0.00     0.070 C 
HETATM   24  C   UNL     1       7.241  25.608  55.827  1.00  0.00     0.029 A 
HETATM   25  N   UNL     1       7.980  26.315  56.760  1.00  0.00    -0.344 N 
HETATM   26  C   UNL     1       7.104  24.142  55.859  1.00  0.00     0.070 C 
HETATM   27  H   UNL     1       8.489  25.889  57.530  1.00  0.00     0.167 HD
ENDBRANCH   1  19
TORSDOF 3
ENDMDL
MODEL 7
REMARK VINA RESULT:      -8.6      2.522      8.212
REMARK  3 active torsions:
REMARK  status: ('A' for Active; 'I' for Inactive)
REMARK    1  A    between atoms: C_5  and  C_6 
REMARK    2  A    between atoms: C_8  and  N_9 
REMARK       I    between atoms: N_9  and  C_10 
REMARK    3  A    between atoms: C_10  and  C_11 
ROOT
HETATM    1  C   UNL     1       6.960  27.912  57.327  1.00  0.00     0.010 A 
HETATM    2  C   UNL     1       7.491  26.672  56.953  1.00  0.00     0.044 A 
HETATM    3  C   UNL     1       6.690  25.707  56.341  1.00  0.00     0.035 A 
HETATM    4  C   UNL     1       5.338  25.994  56.124  1.00  0.00     0.029 A 
HETATM    5  C   UNL     1       4.800  27.226  56.509  1.00  0.00     0.003 A 
HETATM    6  C   UNL     1       5.610  28.191  57.107  1.00  0.00     0.015 A 
ENDROOT
BRANCH   3   7
HETATM    7  N   UNL     1       7.173  24.459  55.894  1.00  0.00    -0.323 N 
HETATM    8  C   UNL     1       7.710  24.154  54.660  1.00  0.00     0.259 C 
HETATM    9  O   UNL     1       7.945  24.985  53.783  1.00  0.00    -0.267 OA
HETATM   10  H   UNL     1       7.058  23.685  56.544  1.00  0.00     0.169 HD
BRANCH   8  11
HETATM   11  C   UNL     1       8.036  22.701  54.435  1.00  0.00     0.070 A 
HETATM   12  C   UNL     1       8.334  21.656  55.483  1.00  0.00     0.116 A 
HETATM   13  S   UNL     1       8.403  21.864  57.149  1.00  0.00    -0.059 SA
HETATM   14  N   UNL     1       8.572  20.376  55.016  1.00  0.00    -0.356 N 
HETATM   15  C   UNL     1       8.552  20.018  53.695  1.00  0.00     0.089 A 
HETATM   16  H   UNL     1       8.765  19.661  55.713  1.00  0.00     0.166 HD
HETATM   17  C   UNL     1       8.291  20.934  52.759  1.00  0.00     0.018 A 
HETATM   18  C   UNL     1       8.025  22.298  53.147  1.00  0.00     0.022 A 
ENDBRANCH   8  11
ENDBRANCH   3   7
BRANCH   1  19
HETATM   19  C   UNL     1       7.866  28.938  57.936  1.00  0.00     0.116 A 
HETATM   20  N   UNL     1       7.745  29.535  59.131  1.00  0.00    -0.344 N 
HETATM   21  C   UNL     1       8.746  30.472  59.348  1.00  0.00     0.029 A 
HETATM   22  H   UNL     1       6.991  29.342  59.781  1.00  0.00     0.167 HD
HETATM   23  C   UNL     1       8.825  31.297  60.566  1.00  0.00     0.070 C 
HETATM   24  C   UNL     1       9.550  30.420  58.227  1.00  0.00     0.029 A 
HETATM   25  N   UNL     1       8.972  29.473  57.400  1.00  0.00    -0.344 N 
HETATM   26  C   UNL     1      10.769  31.165  57.864  1.00  0.00     0.070 C 
HETATM   27  H   UNL     1       9.337  29.209  56.488  1.00  0.00     0.167 HD
ENDBRANCH   1  19
TORSDOF 3
ENDMDL
MODEL 8
REMARK VINA RESULT:      -8.6      4.445      8.065
REMARK  3 active torsions:
REMARK  status: ('A' for Active; 'I' for Inactive)
REMARK    1  A    between atoms: C_5  and  C_6 
REMARK    2  A    between atoms: C_8  and  N_9 
REMARK       I    between atoms: N_9  and  C_10 
REMARK    3  A    between atoms: C_10  and  C_11 
ROOT
HETATM    1  C   UNL     1       4.660  27.407  51.681  1.00  0.00     0.010 A 
HETATM    2  C   UNL     1       5.376  26.248  52.004  1.00  0.00     0.044 A 
HETATM    3  C   UNL     1       5.656  25.929  53.333  1.00  0.00     0.035 A 
HETATM    4  C   UNL     1       5.223  26.799  54.340  1.00  0.00     0.029 A 
HETATM    5  C   UNL     1       4.521  27.965  54.020  1.00  0.00     0.003 A 
HETATM    6  C   UNL     1       4.232  28.270  52.691  1.00  0.00     0.015 A 
ENDROOT
BRANCH   3   7
HETATM    7  N   UNL     1       6.326  24.753  53.731  1.00  0.00    -0.323 N 
HETATM    8  C   UNL     1       7.542  24.280  53.281  1.00  0.00     0.259 C 
HETATM    9  O   UNL     1       8.285  24.897  52.518  1.00  0.00    -0.267 OA
HETATM   10  H   UNL     1       5.822  24.160  54.386  1.00  0.00     0.169 HD
BRANCH   8  11
HETATM   11  C   UNL     1       7.951  22.932  53.811  1.00  0.00     0.070 A 
HETATM   12  C   UNL     1       8.407  22.597  55.211  1.00  0.00     0.116 A 
HETATM   13  S   UNL     1       8.598  23.650  56.507  1.00  0.00    -0.059 SA
HETATM   14  N   UNL     1       8.697  21.266  55.456  1.00  0.00    -0.356 N 
HETATM   15  C   UNL     1       8.593  20.268  54.524  1.00  0.00     0.089 A 
HETATM   16  H   UNL     1       8.996  21.027  56.397  1.00  0.00     0.166 HD
HETATM   17  C   UNL     1       8.192  20.552  53.283  1.00  0.00     0.018 A 
HETATM   18  C   UNL     1       7.863  21.912  52.930  1.00  0.00     0.022 A 
ENDBRANCH   8  11
ENDBRANCH   3   7
BRANCH   1  19
HETATM   19  C   UNL     1       4.338  27.687  50.245  1.00  0.00     0.116 A 
HETATM   20  N   UNL     1       4.818  28.672  49.472  1.00  0.00    -0.344 N 
HETATM   21  C   UNL     1       4.261  28.654  48.201  1.00  0.00     0.029 A 
HETATM   22  H   UNL     1       5.484  29.365  49.795  1.00  0.00     0.167 HD
HETATM   23  C   UNL     1       4.587  29.651  47.166  1.00  0.00     0.070 C 
HETATM   24  C   UNL     1       3.412  27.566  48.184  1.00  0.00     0.029 A 
HETATM   25  N   UNL     1       3.495  27.012  49.450  1.00  0.00    -0.344 N 
HETATM   26  C   UNL     1       2.544  27.019  47.126  1.00  0.00     0.070 C 
HETATM   27  H   UNL     1       2.977  26.190  49.751  1.00  0.00     0.167 HD
ENDBRANCH   1  19
TORSDOF 3
ENDMDL
MODEL 9
REMARK VINA RESULT:      -8.4      5.681      9.156
REMARK  3 active torsions:
REMARK  status: ('A' for Active; 'I' for Inactive)
REMARK    1  A    between atoms: C_5  and  C_6 
REMARK    2  A    between atoms: C_8  and  N_9 
REMARK       I    between atoms: N_9  and  C_10 
REMARK    3  A    between atoms: C_10  and  C_11 
ROOT
HETATM    1  C   UNL     1       7.736  31.276  59.983  1.00  0.00     0.010 A 
HETATM    2  C   UNL     1       6.873  31.909  60.885  1.00  0.00     0.044 A 
HETATM    3  C   UNL     1       7.338  32.363  62.120  1.00  0.00     0.035 A 
HETATM    4  C   UNL     1       8.682  32.158  62.449  1.00  0.00     0.029 A 
HETATM    5  C   UNL     1       9.544  31.513  61.558  1.00  0.00     0.003 A 
HETATM    6  C   UNL     1       9.076  31.075  60.320  1.00  0.00     0.015 A 
ENDROOT
BRANCH   3   7
HETATM    7  N   UNL     1       6.536  33.054  63.052  1.00  0.00    -0.323 N 
HETATM    8  C   UNL     1       5.374  32.617  63.655  1.00  0.00     0.259 C 
HETATM    9  O   UNL     1       4.917  31.479  63.534  1.00  0.00    -0.267 OA
HETATM   10  H   UNL     1       6.823  34.007  63.259  1.00  0.00     0.169 HD
BRANCH   8  11
HETATM   11  C   UNL     1       4.674  33.625  64.526  1.00  0.00     0.070 A 
HETATM   12  C   UNL     1       3.411  34.390  64.210  1.00  0.00     0.116 A 
HETATM   13  S   UNL     1       2.497  34.324  62.802  1.00  0.00    -0.059 SA
HETATM   14  N   UNL     1       2.950  35.241  65.199  1.00  0.00    -0.356 N 
HETATM   15  C   UNL     1       3.560  35.419  66.412  1.00  0.00     0.089 A 
HETATM   16  H   UNL     1       2.095  35.754  65.003  1.00  0.00     0.166 HD
HETATM   17  C   UNL     1       4.678  34.749  66.703  1.00  0.00     0.018 A 
HETATM   18  C   UNL     1       5.236  33.834  65.736  1.00  0.00     0.022 A 
ENDBRANCH   8  11
ENDBRANCH   3   7
BRANCH   1  19
HETATM   19  C   UNL     1       7.208  30.848  58.648  1.00  0.00     0.116 A 
HETATM   20  N   UNL     1       7.680  29.880  57.849  1.00  0.00    -0.344 N 
HETATM   21  C   UNL     1       6.967  29.791  56.663  1.00  0.00     0.029 A 
HETATM   22  H   UNL     1       8.484  29.306  58.078  1.00  0.00     0.167 HD
HETATM   23  C   UNL     1       7.302  28.835  55.592  1.00  0.00     0.070 C 
HETATM   24  C   UNL     1       5.971  30.743  56.757  1.00  0.00     0.029 A 
HETATM   25  N   UNL     1       6.162  31.357  57.982  1.00  0.00    -0.344 N 
HETATM   26  C   UNL     1       4.897  31.128  55.825  1.00  0.00     0.070 C 
HETATM   27  H   UNL     1       5.581  32.111  58.342  1.00  0.00     0.167 HD
ENDBRANCH   1  19
TORSDOF 3
ENDMDL
MODEL 10
REMARK VINA RESULT:      -8.4      2.330      8.145
REMARK  3 active torsions:
REMARK  status: ('A' for Active; 'I' for Inactive)
REMARK    1  A    between atoms: C_5  and  C_6 
REMARK    2  A    between atoms: C_8  and  N_9 
REMARK       I    between atoms: N_9  and  C_10 
REMARK    3  A    between atoms: C_10  and  C_11 
ROOT
HETATM    1  C   UNL     1       6.671  29.945  57.545  1.00  0.00     0.010 A 
HETATM    2  C   UNL     1       7.138  28.695  57.122  1.00  0.00     0.044 A 
HETATM    3  C   UNL     1       6.721  28.151  55.907  1.00  0.00     0.035 A 
HETATM    4  C   UNL     1       5.812  28.872  55.124  1.00  0.00     0.029 A 
HETATM    5  C   UNL     1       5.332  30.114  55.550  1.00  0.00     0.003 A 
HETATM    6  C   UNL     1       5.765  30.658  56.759  1.00  0.00     0.015 A 
ENDROOT
BRANCH   3   7
HETATM    7  N   UNL     1       7.190  26.923  55.397  1.00  0.00    -0.323 N 
HETATM    8  C   UNL     1       6.517  25.720  55.340  1.00  0.00     0.259 C 
HETATM    9  O   UNL     1       5.332  25.573  55.642  1.00  0.00    -0.267 OA
HETATM   10  H   UNL     1       8.159  26.917  55.088  1.00  0.00     0.169 HD
BRANCH   8  11
HETATM   11  C   UNL     1       7.322  24.548  54.842  1.00  0.00     0.070 A 
HETATM   12  C   UNL     1       8.340  23.742  55.612  1.00  0.00     0.116 A 
HETATM   13  S   UNL     1       8.843  23.973  57.199  1.00  0.00    -0.059 SA
HETATM   14  N   UNL     1       8.922  22.687  54.933  1.00  0.00    -0.356 N 
HETATM   15  C   UNL     1       8.631  22.345  53.640  1.00  0.00     0.089 A 
HETATM   16  H   UNL     1       9.602  22.130  55.444  1.00  0.00     0.166 HD
HETATM   17  C   UNL     1       7.734  23.051  52.947  1.00  0.00     0.018 A 
HETATM   18  C   UNL     1       7.069  24.170  53.570  1.00  0.00     0.022 A 
ENDBRANCH   8  11
ENDBRANCH   3   7
BRANCH   1  19
HETATM   19  C   UNL     1       7.182  30.515  58.834  1.00  0.00     0.116 A 
HETATM   20  N   UNL     1       8.174  30.045  59.604  1.00  0.00    -0.344 N 
HETATM   21  C   UNL     1       8.344  30.804  60.754  1.00  0.00     0.029 A 
HETATM   22  H   UNL     1       8.711  29.214  59.383  1.00  0.00     0.167 HD
HETATM   23  C   UNL     1       9.341  30.482  61.790  1.00  0.00     0.070 C 
HETATM   24  C   UNL     1       7.419  31.825  60.663  1.00  0.00     0.029 A 
HETATM   25  N   UNL     1       6.738  31.604  59.479  1.00  0.00    -0.344 N 
HETATM   26  C   UNL     1       7.113  32.949  61.565  1.00  0.00     0.070 C 
HETATM   27  H   UNL     1       5.985  32.193  59.131  1.00  0.00     0.167 HD
ENDBRANCH   1  19
TORSDOF 3
ENDMDL
