MODEL 1
REMARK VINA RESULT:      -8.6      0.000      0.000
REMARK  5 active torsions:
REMARK  status: ('A' for Active; 'I' for Inactive)
REMARK    1  A    between atoms: O_2  and  C_3 
REMARK    2  A    between atoms: C_4  and  C_5 
REMARK    3  A    between atoms: C_5  and  N_6 
REMARK    4  A    between atoms: N_6  and  N_7 
REMARK    5  A    between atoms: N_7  and  C_8 
ROOT
HETATM    1  C   UNL     1       7.009  25.640  55.756  1.00  0.00     0.169 C 
HETATM    2  S   UNL     1       7.377  26.385  54.263  1.00  0.00    -0.009 SA
HETATM    3  C   UNL     1       7.389  25.024  53.182  1.00  0.00     0.229 C 
HETATM    4  O   UNL     1       7.275  25.202  51.978  1.00  0.00    -0.279 OA
HETATM    5  C   UNL     1       7.576  23.670  53.720  1.00  0.00     0.048 A 
HETATM    6  C   UNL     1       7.395  23.406  55.079  1.00  0.00     0.049 A 
HETATM    7  C   UNL     1       7.912  22.636  52.830  1.00  0.00     0.018 A 
HETATM    8  C   UNL     1       8.084  21.336  53.300  1.00  0.00     0.001 A 
HETATM    9  C   UNL     1       7.912  21.061  54.652  1.00  0.00     0.002 A 
HETATM   10  C   UNL     1       7.563  22.089  55.532  1.00  0.00     0.030 A 
HETATM   11  N   UNL     1       7.053  24.347  55.994  1.00  0.00    -0.335 N 
HETATM   12  H   UNL     1       6.844  24.085  56.954  1.00  0.00     0.168 HD
ENDROOT
BRANCH   1  13
HETATM   13  N   UNL     1       6.689  26.451  56.757  1.00  0.00    -0.257 N 
HETATM   14  H   UNL     1       5.697  26.693  56.781  1.00  0.00     0.191 HD
BRANCH  13  15
HETATM   15  N   UNL     1       7.596  26.945  57.727  1.00  0.00    -0.184 NA
BRANCH  15  16
HETATM   16  C   UNL     1       7.478  28.229  57.880  1.00  0.00     0.153 C 
BRANCH  16  17
HETATM   17  C   UNL     1       8.636  29.135  57.759  1.00  0.00     0.016 A 
HETATM   18  C   UNL     1       8.671  30.314  58.522  1.00  0.00     0.080 A 
HETATM   19  C   UNL     1       9.790  31.146  58.417  1.00  0.00     0.037 A 
HETATM   20  C   UNL     1      10.845  30.810  57.562  1.00  0.00     0.003 A 
HETATM   21  C   UNL     1      10.795  29.642  56.802  1.00  0.00     0.001 A 
HETATM   22  C   UNL     1       9.688  28.802  56.897  1.00  0.00     0.016 A 
BRANCH  18  23
HETATM   23  O   UNL     1       7.582  30.567  59.313  1.00  0.00    -0.355 OA
HETATM   24  C   UNL     1       7.294  31.932  59.603  1.00  0.00     0.210 C 
ENDBRANCH  18  23
ENDBRANCH  16  17
ENDBRANCH  15  16
ENDBRANCH  13  15
ENDBRANCH   1  13
TORSDOF 5
ENDMDL
MODEL 2
REMARK VINA RESULT:      -8.4      2.265      2.871
REMARK  5 active torsions:
REMARK  status: ('A' for Active; 'I' for Inactive)
REMARK    1  A    between atoms: O_2  and  C_3 
REMARK    2  A    between atoms: C_4  and  C_5 
REMARK    3  A    between atoms: C_5  and  N_6 
REMARK    4  A    between atoms: N_6  and  N_7 
REMARK    5  A    between atoms: N_7  and  C_8 
ROOT
HETATM    1  C   UNL     1       7.176  25.009  54.755  1.00  0.00     0.169 C 
HETATM    2  S   UNL     1       7.173  24.699  56.435  1.00  0.00    -0.009 SA
HETATM    3  C   UNL     1       7.980  23.162  56.513  1.00  0.00     0.229 C 
HETATM    4  O   UNL     1       8.467  22.783  57.568  1.00  0.00    -0.279 OA
HETATM    5  C   UNL     1       8.035  22.309  55.319  1.00  0.00     0.048 A 
HETATM    6  C   UNL     1       7.775  22.832  54.050  1.00  0.00     0.049 A 
HETATM    7  C   UNL     1       8.387  20.958  55.475  1.00  0.00     0.018 A 
HETATM    8  C   UNL     1       8.465  20.120  54.365  1.00  0.00     0.001 A 
HETATM    9  C   UNL     1       8.203  20.628  53.097  1.00  0.00     0.002 A 
HETATM   10  C   UNL     1       7.869  21.976  52.942  1.00  0.00     0.030 A 
HETATM   11  N   UNL     1       7.449  24.128  53.817  1.00  0.00    -0.335 N 
HETATM   12  H   UNL     1       7.360  24.478  52.867  1.00  0.00     0.168 HD
ENDROOT
BRANCH   1  13
HETATM   13  N   UNL     1       6.838  26.237  54.381  1.00  0.00    -0.257 N 
HETATM   14  H   UNL     1       5.860  26.464  54.572  1.00  0.00     0.191 HD
BRANCH  13  15
HETATM   15  N   UNL     1       7.713  27.178  53.786  1.00  0.00    -0.184 NA
BRANCH  15  16
HETATM   16  C   UNL     1       7.553  28.364  54.291  1.00  0.00     0.153 C 
BRANCH  16  17
HETATM   17  C   UNL     1       8.354  28.836  55.436  1.00  0.00     0.016 A 
HETATM   18  C   UNL     1       7.814  28.766  56.731  1.00  0.00     0.080 A 
HETATM   19  C   UNL     1       8.599  29.190  57.807  1.00  0.00     0.037 A 
HETATM   20  C   UNL     1       9.891  29.682  57.592  1.00  0.00     0.003 A 
HETATM   21  C   UNL     1      10.413  29.757  56.302  1.00  0.00     0.001 A 
HETATM   22  C   UNL     1       9.644  29.336  55.218  1.00  0.00     0.016 A 
BRANCH  18  23
HETATM   23  O   UNL     1       6.534  28.290  56.838  1.00  0.00    -0.355 OA
HETATM   24  C   UNL     1       5.548  29.188  57.342  1.00  0.00     0.210 C 
ENDBRANCH  18  23
ENDBRANCH  16  17
ENDBRANCH  15  16
ENDBRANCH  13  15
ENDBRANCH   1  13
TORSDOF 5
ENDMDL
MODEL 3
REMARK VINA RESULT:      -8.3      4.477      7.200
REMARK  5 active torsions:
REMARK  status: ('A' for Active; 'I' for Inactive)
REMARK    1  A    between atoms: O_2  and  C_3 
REMARK    2  A    between atoms: C_4  and  C_5 
REMARK    3  A    between atoms: C_5  and  N_6 
REMARK    4  A    between atoms: N_6  and  N_7 
REMARK    5  A    between atoms: N_7  and  C_8 
ROOT
HETATM    1  C   UNL     1       5.040  26.795  52.497  1.00  0.00     0.169 C 
HETATM    2  S   UNL     1       5.905  28.263  52.622  1.00  0.00    -0.009 SA
HETATM    3  C   UNL     1       5.644  28.962  51.052  1.00  0.00     0.229 C 
HETATM    4  O   UNL     1       5.819  30.160  50.882  1.00  0.00    -0.279 OA
HETATM    5  C   UNL     1       5.255  28.101  49.928  1.00  0.00     0.048 A 
HETATM    6  C   UNL     1       4.752  26.817  50.149  1.00  0.00     0.049 A 
HETATM    7  C   UNL     1       5.370  28.608  48.623  1.00  0.00     0.018 A 
HETATM    8  C   UNL     1       4.997  27.826  47.532  1.00  0.00     0.001 A 
HETATM    9  C   UNL     1       4.500  26.544  47.739  1.00  0.00     0.002 A 
HETATM   10  C   UNL     1       4.372  26.048  49.038  1.00  0.00     0.030 A 
HETATM   11  N   UNL     1       4.594  26.266  51.378  1.00  0.00    -0.335 N 
HETATM   12  H   UNL     1       4.137  25.364  51.488  1.00  0.00     0.168 HD
ENDROOT
BRANCH   1  13
HETATM   13  N   UNL     1       4.843  26.128  53.628  1.00  0.00    -0.257 N 
HETATM   14  H   UNL     1       4.352  26.674  54.340  1.00  0.00     0.191 HD
BRANCH  13  15
HETATM   15  N   UNL     1       5.241  24.790  53.864  1.00  0.00    -0.184 NA
BRANCH  15  16
HETATM   16  C   UNL     1       6.472  24.724  54.273  1.00  0.00     0.153 C 
BRANCH  16  17
HETATM   17  C   UNL     1       7.221  23.453  54.277  1.00  0.00     0.016 A 
HETATM   18  C   UNL     1       7.725  22.954  55.489  1.00  0.00     0.080 A 
HETATM   19  C   UNL     1       8.408  21.734  55.478  1.00  0.00     0.037 A 
HETATM   20  C   UNL     1       8.589  21.034  54.281  1.00  0.00     0.003 A 
HETATM   21  C   UNL     1       8.094  21.544  53.082  1.00  0.00     0.001 A 
HETATM   22  C   UNL     1       7.410  22.758  53.076  1.00  0.00     0.016 A 
BRANCH  18  23
HETATM   23  O   UNL     1       7.516  23.721  56.605  1.00  0.00    -0.355 OA
HETATM   24  C   UNL     1       8.669  24.250  57.254  1.00  0.00     0.210 C 
ENDBRANCH  18  23
ENDBRANCH  16  17
ENDBRANCH  15  16
ENDBRANCH  13  15
ENDBRANCH   1  13
TORSDOF 5
ENDMDL
MODEL 4
REMARK VINA RESULT:      -8.2      1.971      7.349
REMARK  5 active torsions:
REMARK  status: ('A' for Active; 'I' for Inactive)
REMARK    1  A    between atoms: O_2  and  C_3 
REMARK    2  A    between atoms: C_4  and  C_5 
REMARK    3  A    between atoms: C_5  and  N_6 
REMARK    4  A    between atoms: N_6  and  N_7 
REMARK    5  A    between atoms: N_7  and  C_8 
ROOT
HETATM    1  C   UNL     1       7.310  28.224  54.715  1.00  0.00     0.169 C 
HETATM    2  S   UNL     1       6.035  28.254  55.851  1.00  0.00    -0.009 SA
HETATM    3  C   UNL     1       6.617  29.413  57.008  1.00  0.00     0.229 C 
HETATM    4  O   UNL     1       5.835  29.951  57.777  1.00  0.00    -0.279 OA
HETATM    5  C   UNL     1       8.054  29.708  57.080  1.00  0.00     0.048 A 
HETATM    6  C   UNL     1       8.912  29.360  56.034  1.00  0.00     0.049 A 
HETATM    7  C   UNL     1       8.544  30.379  58.213  1.00  0.00     0.018 A 
HETATM    8  C   UNL     1       9.899  30.689  58.312  1.00  0.00     0.001 A 
HETATM    9  C   UNL     1      10.764  30.344  57.280  1.00  0.00     0.002 A 
HETATM   10  C   UNL     1      10.271  29.691  56.148  1.00  0.00     0.030 A 
HETATM   11  N   UNL     1       8.510  28.730  54.903  1.00  0.00    -0.335 N 
HETATM   12  H   UNL     1       9.158  28.582  54.133  1.00  0.00     0.168 HD
ENDROOT
BRANCH   1  13
HETATM   13  N   UNL     1       7.065  27.603  53.568  1.00  0.00    -0.257 N 
HETATM   14  H   UNL     1       6.438  28.124  52.951  1.00  0.00     0.191 HD
BRANCH  13  15
HETATM   15  N   UNL     1       7.606  26.350  53.188  1.00  0.00    -0.184 NA
BRANCH  15  16
HETATM   16  C   UNL     1       6.761  25.385  53.389  1.00  0.00     0.153 C 
BRANCH  16  17
HETATM   17  C   UNL     1       7.206  24.028  53.760  1.00  0.00     0.016 A 
HETATM   18  C   UNL     1       7.137  23.624  55.104  1.00  0.00     0.080 A 
HETATM   19  C   UNL     1       7.535  22.324  55.433  1.00  0.00     0.037 A 
HETATM   20  C   UNL     1       7.999  21.453  54.441  1.00  0.00     0.003 A 
HETATM   21  C   UNL     1       8.072  21.869  53.113  1.00  0.00     0.001 A 
HETATM   22  C   UNL     1       7.678  23.159  52.768  1.00  0.00     0.016 A 
BRANCH  18  23
HETATM   23  O   UNL     1       6.690  24.554  56.004  1.00  0.00    -0.355 OA
HETATM   24  C   UNL     1       7.618  25.003  56.988  1.00  0.00     0.210 C 
ENDBRANCH  18  23
ENDBRANCH  16  17
ENDBRANCH  15  16
ENDBRANCH  13  15
ENDBRANCH   1  13
TORSDOF 5
ENDMDL
MODEL 5
REMARK VINA RESULT:      -8.0      1.509      2.323
REMARK  5 active torsions:
REMARK  status: ('A' for Active; 'I' for Inactive)
REMARK    1  A    between atoms: O_2  and  C_3 
REMARK    2  A    between atoms: C_4  and  C_5 
REMARK    3  A    between atoms: C_5  and  N_6 
REMARK    4  A    between atoms: N_6  and  N_7 
REMARK    5  A    between atoms: N_7  and  C_8 
ROOT
HETATM    1  C   UNL     1       7.145  25.049  55.989  1.00  0.00     0.169 C 
HETATM    2  S   UNL     1       7.323  25.786  54.459  1.00  0.00    -0.009 SA
HETATM    3  C   UNL     1       7.271  24.412  53.396  1.00  0.00     0.229 C 
HETATM    4  O   UNL     1       7.023  24.569  52.209  1.00  0.00    -0.279 OA
HETATM    5  C   UNL     1       7.565  23.073  53.923  1.00  0.00     0.048 A 
HETATM    6  C   UNL     1       7.541  22.821  55.297  1.00  0.00     0.049 A 
HETATM    7  C   UNL     1       7.843  22.039  53.013  1.00  0.00     0.018 A 
HETATM    8  C   UNL     1       8.113  20.753  53.475  1.00  0.00     0.001 A 
HETATM    9  C   UNL     1       8.096  20.491  54.840  1.00  0.00     0.002 A 
HETATM   10  C   UNL     1       7.805  21.517  55.742  1.00  0.00     0.030 A 
HETATM   11  N   UNL     1       7.263  23.762  56.234  1.00  0.00    -0.335 N 
HETATM   12  H   UNL     1       7.168  23.506  57.214  1.00  0.00     0.168 HD
ENDROOT
BRANCH   1  13
HETATM   13  N   UNL     1       6.904  25.861  57.011  1.00  0.00    -0.257 N 
HETATM   14  H   UNL     1       5.909  25.979  57.209  1.00  0.00     0.191 HD
BRANCH  13  15
HETATM   15  N   UNL     1       7.895  26.510  57.787  1.00  0.00    -0.184 NA
BRANCH  15  16
HETATM   16  C   UNL     1       8.244  27.646  57.263  1.00  0.00     0.153 C 
BRANCH  16  17
HETATM   17  C   UNL     1       7.688  28.926  57.742  1.00  0.00     0.016 A 
HETATM   18  C   UNL     1       6.434  29.352  57.273  1.00  0.00     0.080 A 
HETATM   19  C   UNL     1       5.910  30.553  57.761  1.00  0.00     0.037 A 
HETATM   20  C   UNL     1       6.628  31.315  58.689  1.00  0.00     0.003 A 
HETATM   21  C   UNL     1       7.876  30.887  59.139  1.00  0.00     0.001 A 
HETATM   22  C   UNL     1       8.411  29.692  58.665  1.00  0.00     0.016 A 
BRANCH  18  23
HETATM   23  O   UNL     1       5.818  28.549  56.350  1.00  0.00    -0.355 OA
HETATM   24  C   UNL     1       5.525  29.127  55.080  1.00  0.00     0.210 C 
ENDBRANCH  18  23
ENDBRANCH  16  17
ENDBRANCH  15  16
ENDBRANCH  13  15
ENDBRANCH   1  13
TORSDOF 5
ENDMDL
MODEL 6
REMARK VINA RESULT:      -7.9      2.077      3.024
REMARK  5 active torsions:
REMARK  status: ('A' for Active; 'I' for Inactive)
REMARK    1  A    between atoms: O_2  and  C_3 
REMARK    2  A    between atoms: C_4  and  C_5 
REMARK    3  A    between atoms: C_5  and  N_6 
REMARK    4  A    between atoms: N_6  and  N_7 
REMARK    5  A    between atoms: N_7  and  C_8 
ROOT
HETATM    1  C   UNL     1       7.400  25.177  54.976  1.00  0.00     0.169 C 
HETATM    2  S   UNL     1       7.363  24.731  56.625  1.00  0.00    -0.009 SA
HETATM    3  C   UNL     1       8.026  23.126  56.572  1.00  0.00     0.229 C 
HETATM    4  O   UNL     1       8.474  22.619  57.590  1.00  0.00    -0.279 OA
HETATM    5  C   UNL     1       8.008  22.372  55.312  1.00  0.00     0.048 A 
HETATM    6  C   UNL     1       7.800  23.019  54.092  1.00  0.00     0.049 A 
HETATM    7  C   UNL     1       8.235  20.987  55.355  1.00  0.00     0.018 A 
HETATM    8  C   UNL     1       8.238  20.240  54.179  1.00  0.00     0.001 A 
HETATM    9  C   UNL     1       8.028  20.872  52.959  1.00  0.00     0.002 A 
HETATM   10  C   UNL     1       7.818  22.252  52.917  1.00  0.00     0.030 A 
HETATM   11  N   UNL     1       7.593  24.354  53.968  1.00  0.00    -0.335 N 
HETATM   12  H   UNL     1       7.540  24.788  53.050  1.00  0.00     0.168 HD
ENDROOT
BRANCH   1  13
HETATM   13  N   UNL     1       7.176  26.457  54.705  1.00  0.00    -0.257 N 
HETATM   14  H   UNL     1       7.293  26.689  53.716  1.00  0.00     0.191 HD
BRANCH  13  15
HETATM   15  N   UNL     1       6.797  27.437  55.655  1.00  0.00    -0.184 NA
BRANCH  15  16
HETATM   16  C   UNL     1       7.682  28.383  55.744  1.00  0.00     0.153 C 
BRANCH  16  17
HETATM   17  C   UNL     1       7.648  29.378  56.832  1.00  0.00     0.016 A 
HETATM   18  C   UNL     1       8.829  29.675  57.532  1.00  0.00     0.080 A 
HETATM   19  C   UNL     1       8.784  30.643  58.541  1.00  0.00     0.037 A 
HETATM   20  C   UNL     1       7.584  31.292  58.846  1.00  0.00     0.003 A 
HETATM   21  C   UNL     1       6.416  30.983  58.151  1.00  0.00     0.001 A 
HETATM   22  C   UNL     1       6.444  30.022  57.143  1.00  0.00     0.016 A 
BRANCH  18  23
HETATM   23  O   UNL     1       9.949  28.971  57.175  1.00  0.00    -0.355 OA
HETATM   24  C   UNL     1      11.147  29.717  56.973  1.00  0.00     0.210 C 
ENDBRANCH  18  23
ENDBRANCH  16  17
ENDBRANCH  15  16
ENDBRANCH  13  15
ENDBRANCH   1  13
TORSDOF 5
ENDMDL
MODEL 7
REMARK VINA RESULT:      -7.9      5.131      7.447
REMARK  5 active torsions:
REMARK  status: ('A' for Active; 'I' for Inactive)
REMARK    1  A    between atoms: O_2  and  C_3 
REMARK    2  A    between atoms: C_4  and  C_5 
REMARK    3  A    between atoms: C_5  and  N_6 
REMARK    4  A    between atoms: N_6  and  N_7 
REMARK    5  A    between atoms: N_7  and  C_8 
ROOT
HETATM    1  C   UNL     1       6.797  24.432  52.907  1.00  0.00     0.169 C 
HETATM    2  S   UNL     1       6.228  24.926  54.440  1.00  0.00    -0.009 SA
HETATM    3  C   UNL     1       7.050  23.819  55.497  1.00  0.00     0.229 C 
HETATM    4  O   UNL     1       7.162  24.081  56.686  1.00  0.00    -0.279 OA
HETATM    5  C   UNL     1       7.572  22.554  54.962  1.00  0.00     0.048 A 
HETATM    6  C   UNL     1       7.739  22.371  53.588  1.00  0.00     0.049 A 
HETATM    7  C   UNL     1       7.931  21.541  55.866  1.00  0.00     0.018 A 
HETATM    8  C   UNL     1       8.442  20.332  55.398  1.00  0.00     0.001 A 
HETATM    9  C   UNL     1       8.608  20.136  54.032  1.00  0.00     0.002 A 
HETATM   10  C   UNL     1       8.265  21.151  53.136  1.00  0.00     0.030 A 
HETATM   11  N   UNL     1       7.434  23.308  52.656  1.00  0.00    -0.335 N 
HETATM   12  H   UNL     1       7.660  23.159  51.676  1.00  0.00     0.168 HD
ENDROOT
BRANCH   1  13
HETATM   13  N   UNL     1       6.535  25.244  51.890  1.00  0.00    -0.257 N 
HETATM   14  H   UNL     1       7.375  25.615  51.441  1.00  0.00     0.191 HD
BRANCH  13  15
HETATM   15  N   UNL     1       5.239  25.579  51.428  1.00  0.00    -0.184 NA
BRANCH  15  16
HETATM   16  C   UNL     1       5.231  26.728  50.823  1.00  0.00     0.153 C 
BRANCH  16  17
HETATM   17  C   UNL     1       4.458  26.949  49.586  1.00  0.00     0.016 A 
HETATM   18  C   UNL     1       4.218  28.263  49.149  1.00  0.00     0.080 A 
HETATM   19  C   UNL     1       3.509  28.453  47.959  1.00  0.00     0.037 A 
HETATM   20  C   UNL     1       3.045  27.354  47.228  1.00  0.00     0.003 A 
HETATM   21  C   UNL     1       3.281  26.056  47.676  1.00  0.00     0.001 A 
HETATM   22  C   UNL     1       3.987  25.849  48.859  1.00  0.00     0.016 A 
BRANCH  18  23
HETATM   23  O   UNL     1       4.693  29.272  49.944  1.00  0.00    -0.355 OA
HETATM   24  C   UNL     1       5.593  30.201  49.344  1.00  0.00     0.210 C 
ENDBRANCH  18  23
ENDBRANCH  16  17
ENDBRANCH  15  16
ENDBRANCH  13  15
ENDBRANCH   1  13
TORSDOF 5
ENDMDL
MODEL 8
REMARK VINA RESULT:      -7.8      2.343      3.400
REMARK  5 active torsions:
REMARK  status: ('A' for Active; 'I' for Inactive)
REMARK    1  A    between atoms: O_2  and  C_3 
REMARK    2  A    between atoms: C_4  and  C_5 
REMARK    3  A    between atoms: C_5  and  N_6 
REMARK    4  A    between atoms: N_6  and  N_7 
REMARK    5  A    between atoms: N_7  and  C_8 
ROOT
HETATM    1  C   UNL     1       7.298  27.074  56.845  1.00  0.00     0.169 C 
HETATM    2  S   UNL     1       7.308  25.615  57.733  1.00  0.00    -0.009 SA
HETATM    3  C   UNL     1       7.883  24.482  56.546  1.00  0.00     0.229 C 
HETATM    4  O   UNL     1       8.347  23.409  56.904  1.00  0.00    -0.279 OA
HETATM    5  C   UNL     1       7.771  24.806  55.118  1.00  0.00     0.048 A 
HETATM    6  C   UNL     1       7.546  26.118  54.695  1.00  0.00     0.049 A 
HETATM    7  C   UNL     1       7.927  23.771  54.182  1.00  0.00     0.018 A 
HETATM    8  C   UNL     1       7.842  24.041  52.818  1.00  0.00     0.001 A 
HETATM    9  C   UNL     1       7.613  25.343  52.384  1.00  0.00     0.002 A 
HETATM   10  C   UNL     1       7.474  26.373  53.317  1.00  0.00     0.030 A 
HETATM   11  N   UNL     1       7.405  27.172  55.538  1.00  0.00    -0.335 N 
HETATM   12  H   UNL     1       7.335  28.119  55.176  1.00  0.00     0.168 HD
ENDROOT
BRANCH   1  13
HETATM   13  N   UNL     1       7.130  28.190  57.545  1.00  0.00    -0.257 N 
HETATM   14  H   UNL     1       6.171  28.544  57.519  1.00  0.00     0.191 HD
BRANCH  13  15
HETATM   15  N   UNL     1       8.143  28.850  58.281  1.00  0.00    -0.184 NA
BRANCH  15  16
HETATM   16  C   UNL     1       7.915  30.125  58.369  1.00  0.00     0.153 C 
BRANCH  16  17
HETATM   17  C   UNL     1       8.151  30.872  59.619  1.00  0.00     0.016 A 
HETATM   18  C   UNL     1       7.444  32.064  59.854  1.00  0.00     0.080 A 
HETATM   19  C   UNL     1       7.659  32.743  61.057  1.00  0.00     0.037 A 
HETATM   20  C   UNL     1       8.565  32.246  62.000  1.00  0.00     0.003 A 
HETATM   21  C   UNL     1       9.268  31.068  61.752  1.00  0.00     0.001 A 
HETATM   22  C   UNL     1       9.065  30.379  60.558  1.00  0.00     0.016 A 
BRANCH  18  23
HETATM   23  O   UNL     1       6.595  32.481  58.863  1.00  0.00    -0.355 OA
HETATM   24  C   UNL     1       5.240  32.725  59.230  1.00  0.00     0.210 C 
ENDBRANCH  18  23
ENDBRANCH  16  17
ENDBRANCH  15  16
ENDBRANCH  13  15
ENDBRANCH   1  13
TORSDOF 5
ENDMDL
MODEL 9
REMARK VINA RESULT:      -7.7      4.027      5.437
REMARK  5 active torsions:
REMARK  status: ('A' for Active; 'I' for Inactive)
REMARK    1  A    between atoms: O_2  and  C_3 
REMARK    2  A    between atoms: C_4  and  C_5 
REMARK    3  A    between atoms: C_5  and  N_6 
REMARK    4  A    between atoms: N_6  and  N_7 
REMARK    5  A    between atoms: N_7  and  C_8 
ROOT
HETATM    1  C   UNL     1       7.492  25.347  55.133  1.00  0.00     0.169 C 
HETATM    2  S   UNL     1       7.451  24.826  56.760  1.00  0.00    -0.009 SA
HETATM    3  C   UNL     1       8.053  23.201  56.627  1.00  0.00     0.229 C 
HETATM    4  O   UNL     1       8.489  22.631  57.617  1.00  0.00    -0.279 OA
HETATM    5  C   UNL     1       7.996  22.509  55.334  1.00  0.00     0.048 A 
HETATM    6  C   UNL     1       7.804  23.219  54.147  1.00  0.00     0.049 A 
HETATM    7  C   UNL     1       8.171  21.115  55.311  1.00  0.00     0.018 A 
HETATM    8  C   UNL     1       8.138  20.424  54.102  1.00  0.00     0.001 A 
HETATM    9  C   UNL     1       7.942  21.120  52.914  1.00  0.00     0.002 A 
HETATM   10  C   UNL     1       7.784  22.507  52.938  1.00  0.00     0.030 A 
HETATM   11  N   UNL     1       7.647  24.565  54.087  1.00  0.00    -0.335 N 
HETATM   12  H   UNL     1       7.603  25.043  53.190  1.00  0.00     0.168 HD
ENDROOT
BRANCH   1  13
HETATM   13  N   UNL     1       7.314  26.646  54.924  1.00  0.00    -0.257 N 
HETATM   14  H   UNL     1       7.891  27.017  54.166  1.00  0.00     0.191 HD
BRANCH  13  15
HETATM   15  N   UNL     1       6.417  27.472  55.644  1.00  0.00    -0.184 NA
BRANCH  15  16
HETATM   16  C   UNL     1       5.192  27.302  55.249  1.00  0.00     0.153 C 
BRANCH  16  17
HETATM   17  C   UNL     1       4.621  28.078  54.132  1.00  0.00     0.016 A 
HETATM   18  C   UNL     1       4.621  27.527  52.839  1.00  0.00     0.080 A 
HETATM   19  C   UNL     1       4.049  28.264  51.798  1.00  0.00     0.037 A 
HETATM   20  C   UNL     1       3.499  29.527  52.042  1.00  0.00     0.003 A 
HETATM   21  C   UNL     1       3.515  30.068  53.326  1.00  0.00     0.001 A 
HETATM   22  C   UNL     1       4.079  29.346  54.375  1.00  0.00     0.016 A 
BRANCH  18  23
HETATM   23  O   UNL     1       5.201  26.294  52.697  1.00  0.00    -0.355 OA
HETATM   24  C   UNL     1       5.789  25.996  51.433  1.00  0.00     0.210 C 
ENDBRANCH  18  23
ENDBRANCH  16  17
ENDBRANCH  15  16
ENDBRANCH  13  15
ENDBRANCH   1  13
TORSDOF 5
ENDMDL
MODEL 10
REMARK VINA RESULT:      -7.6      2.730      3.850
REMARK  5 active torsions:
REMARK  status: ('A' for Active; 'I' for Inactive)
REMARK    1  A    between atoms: O_2  and  C_3 
REMARK    2  A    between atoms: C_4  and  C_5 
REMARK    3  A    between atoms: C_5  and  N_6 
REMARK    4  A    between atoms: N_6  and  N_7 
REMARK    5  A    between atoms: N_7  and  C_8 
ROOT
HETATM    1  C   UNL     1       7.071  25.067  54.524  1.00  0.00     0.169 C 
HETATM    2  S   UNL     1       7.078  24.885  56.223  1.00  0.00    -0.009 SA
HETATM    3  C   UNL     1       7.900  23.365  56.412  1.00  0.00     0.229 C 
HETATM    4  O   UNL     1       8.396  23.071  57.490  1.00  0.00    -0.279 OA
HETATM    5  C   UNL     1       7.958  22.425  55.285  1.00  0.00     0.048 A 
HETATM    6  C   UNL     1       7.687  22.848  53.982  1.00  0.00     0.049 A 
HETATM    7  C   UNL     1       8.324  21.093  55.542  1.00  0.00     0.018 A 
HETATM    8  C   UNL     1       8.403  20.174  54.497  1.00  0.00     0.001 A 
HETATM    9  C   UNL     1       8.131  20.583  53.196  1.00  0.00     0.002 A 
HETATM   10  C   UNL     1       7.783  21.912  52.942  1.00  0.00     0.030 A 
HETATM   11  N   UNL     1       7.347  24.120  53.655  1.00  0.00    -0.335 N 
HETATM   12  H   UNL     1       7.251  24.396  52.681  1.00  0.00     0.168 HD
ENDROOT
BRANCH   1  13
HETATM   13  N   UNL     1       6.719  26.260  54.060  1.00  0.00    -0.257 N 
HETATM   14  H   UNL     1       7.463  26.726  53.536  1.00  0.00     0.191 HD
BRANCH  13  15
HETATM   15  N   UNL     1       5.449  26.861  54.237  1.00  0.00    -0.184 NA
BRANCH  15  16
HETATM   16  C   UNL     1       5.533  28.157  54.250  1.00  0.00     0.153 C 
BRANCH  16  17
HETATM   17  C   UNL     1       5.342  28.935  55.489  1.00  0.00     0.016 A 
HETATM   18  C   UNL     1       6.445  29.185  56.323  1.00  0.00     0.080 A 
HETATM   19  C   UNL     1       6.252  29.949  57.478  1.00  0.00     0.037 A 
HETATM   20  C   UNL     1       4.983  30.444  57.795  1.00  0.00     0.003 A 
HETATM   21  C   UNL     1       3.894  30.181  56.966  1.00  0.00     0.001 A 
HETATM   22  C   UNL     1       4.070  29.423  55.811  1.00  0.00     0.016 A 
BRANCH  18  23
HETATM   23  O   UNL     1       7.642  28.641  55.938  1.00  0.00    -0.355 OA
HETATM   24  C   UNL     1       8.593  28.372  56.966  1.00  0.00     0.210 C 
ENDBRANCH  18  23
ENDBRANCH  16  17
ENDBRANCH  15  16
ENDBRANCH  13  15
ENDBRANCH   1  13
TORSDOF 5
ENDMDL
