MODEL 1
REMARK VINA RESULT:      -9.9      0.000      0.000
REMARK  6 active torsions:
REMARK  status: ('A' for Active; 'I' for Inactive)
REMARK    1  A    between atoms: O_2  and  C_3 
REMARK    2  A    between atoms: C_3  and  C_4 
REMARK       I    between atoms: C_4  and  N_6 
REMARK    3  A    between atoms: N_6  and  C_7 
REMARK    4  A    between atoms: C_12  and  C_13 
REMARK    5  A    between atoms: C_15  and  N_16 
REMARK    6  A    between atoms: N_16  and  C_17 
ROOT
HETATM    1  C   UNL     1       7.115  24.461  53.225  1.00  0.00     0.164 A 
HETATM    2  N   UNL     1       7.706  25.534  53.775  1.00  0.00    -0.210 NA
HETATM    3  C   UNL     1       7.336  26.752  53.336  1.00  0.00     0.143 A 
HETATM    4  C   UNL     1       6.392  26.918  52.307  1.00  0.00     0.039 A 
HETATM    5  C   UNL     1       5.944  28.164  51.793  1.00  0.00     0.018 A 
HETATM    6  C   UNL     1       5.019  28.218  50.754  1.00  0.00     0.001 A 
HETATM    7  C   UNL     1       4.524  27.037  50.222  1.00  0.00     0.002 A 
HETATM    8  C   UNL     1       4.949  25.811  50.742  1.00  0.00     0.032 A 
HETATM    9  C   UNL     1       5.870  25.732  51.779  1.00  0.00     0.073 A 
HETATM   10  N   UNL     1       6.213  24.524  52.233  1.00  0.00    -0.228 NA
ENDROOT
BRANCH   1  11
HETATM   11  C   UNL     1       7.471  23.125  53.757  1.00  0.00     0.039 A 
HETATM   12  C   UNL     1       7.497  22.808  55.144  1.00  0.00     0.049 A 
HETATM   13  C   UNL     1       7.859  21.512  55.549  1.00  0.00     0.030 A 
HETATM   14  C   UNL     1       8.189  20.527  54.616  1.00  0.00     0.002 A 
HETATM   15  C   UNL     1       8.169  20.820  53.262  1.00  0.00     0.001 A 
HETATM   16  C   UNL     1       7.818  22.102  52.842  1.00  0.00     0.018 A 
BRANCH  12  17
HETATM   17  N   UNL     1       7.154  23.808  56.094  1.00  0.00    -0.324 N 
HETATM   18  C   UNL     1       7.987  24.511  56.949  1.00  0.00     0.245 C 
HETATM   19  O   UNL     1       9.209  24.400  57.015  1.00  0.00    -0.271 OA
HETATM   20  H   UNL     1       6.156  24.020  56.136  1.00  0.00     0.169 HD
BRANCH  18  21
HETATM   21  C   UNL     1       7.237  25.540  57.820  1.00  0.00     0.270 C 
BRANCH  21  22
HETATM   22  O   UNL     1       6.151  26.225  57.214  1.00  0.00    -0.387 OA
HETATM   23  C   UNL     1       4.907  25.561  57.384  1.00  0.00     0.202 C 
ENDBRANCH  21  22
ENDBRANCH  18  21
ENDBRANCH  12  17
ENDBRANCH   1  11
BRANCH   3  24
HETATM   24  N   UNL     1       7.924  27.899  53.934  1.00  0.00    -0.340 N 
HETATM   25  H   UNL     1       8.933  27.849  53.846  1.00  0.00     0.167 HD
BRANCH  24  26
HETATM   26  C   UNL     1       7.525  28.557  55.121  1.00  0.00     0.034 A 
HETATM   27  C   UNL     1       6.213  29.012  55.318  1.00  0.00     0.032 A 
HETATM   28  C   UNL     1       5.813  29.654  56.498  1.00  0.00     0.034 A 
HETATM   29  C   UNL     1       6.793  29.860  57.468  1.00  0.00     0.062 A 
HETATM   30  N   UNL     1       6.737  30.417  58.718  1.00  0.00    -0.278 N 
HETATM   31  C   UNL     1       8.117  29.481  57.294  1.00  0.00     0.013 A 
HETATM   32  H   UNL     1       5.919  30.779  59.196  1.00  0.00     0.189 HD
HETATM   33  N   UNL     1       7.927  30.479  59.345  1.00  0.00    -0.186 NA
HETATM   34  C   UNL     1       8.761  29.896  58.481  1.00  0.00     0.152 A 
HETATM   35  C   UNL     1       8.496  28.834  56.102  1.00  0.00     0.044 A 
ENDBRANCH  24  26
ENDBRANCH   3  24
TORSDOF 6
ENDMDL
MODEL 2
REMARK VINA RESULT:      -9.7      2.356      7.036
REMARK  6 active torsions:
REMARK  status: ('A' for Active; 'I' for Inactive)
REMARK    1  A    between atoms: O_2  and  C_3 
REMARK    2  A    between atoms: C_3  and  C_4 
REMARK       I    between atoms: C_4  and  N_6 
REMARK    3  A    between atoms: N_6  and  C_7 
REMARK    4  A    between atoms: C_12  and  C_13 
REMARK    5  A    between atoms: C_15  and  N_16 
REMARK    6  A    between atoms: N_16  and  C_17 
ROOT
HETATM    1  C   UNL     1       7.681  27.979  55.913  1.00  0.00     0.164 A 
HETATM    2  N   UNL     1       7.412  26.762  56.412  1.00  0.00    -0.210 NA
HETATM    3  C   UNL     1       6.749  25.891  55.628  1.00  0.00     0.143 A 
HETATM    4  C   UNL     1       6.307  26.236  54.338  1.00  0.00     0.039 A 
HETATM    5  C   UNL     1       5.610  25.377  53.449  1.00  0.00     0.018 A 
HETATM    6  C   UNL     1       5.195  25.827  52.197  1.00  0.00     0.001 A 
HETATM    7  C   UNL     1       5.476  27.130  51.816  1.00  0.00     0.002 A 
HETATM    8  C   UNL     1       6.181  27.970  52.684  1.00  0.00     0.032 A 
HETATM    9  C   UNL     1       6.606  27.543  53.935  1.00  0.00     0.073 A 
HETATM   10  N   UNL     1       7.288  28.399  54.700  1.00  0.00    -0.228 NA
ENDROOT
BRANCH   1  11
HETATM   11  C   UNL     1       8.470  28.912  56.750  1.00  0.00     0.039 A 
HETATM   12  C   UNL     1       7.896  29.784  57.718  1.00  0.00     0.049 A 
HETATM   13  C   UNL     1       8.730  30.640  58.456  1.00  0.00     0.030 A 
HETATM   14  C   UNL     1      10.113  30.649  58.262  1.00  0.00     0.002 A 
HETATM   15  C   UNL     1      10.687  29.807  57.323  1.00  0.00     0.001 A 
HETATM   16  C   UNL     1       9.874  28.954  56.578  1.00  0.00     0.018 A 
BRANCH  12  17
HETATM   17  N   UNL     1       6.489  29.770  57.922  1.00  0.00    -0.324 N 
HETATM   18  C   UNL     1       5.511  30.483  57.247  1.00  0.00     0.245 C 
HETATM   19  O   UNL     1       5.701  31.256  56.312  1.00  0.00    -0.271 OA
HETATM   20  H   UNL     1       6.181  29.147  58.669  1.00  0.00     0.169 HD
BRANCH  18  21
HETATM   21  C   UNL     1       4.083  30.176  57.745  1.00  0.00     0.270 C 
BRANCH  21  22
HETATM   22  O   UNL     1       3.292  31.285  58.149  1.00  0.00    -0.387 OA
HETATM   23  C   UNL     1       3.711  31.850  59.383  1.00  0.00     0.202 C 
ENDBRANCH  21  22
ENDBRANCH  18  21
ENDBRANCH  12  17
ENDBRANCH   1  11
BRANCH   3  24
HETATM   24  N   UNL     1       6.491  24.586  56.126  1.00  0.00    -0.340 N 
HETATM   25  H   UNL     1       6.199  24.643  57.096  1.00  0.00     0.167 HD
BRANCH  24  26
HETATM   26  C   UNL     1       7.211  23.397  55.857  1.00  0.00     0.034 A 
HETATM   27  C   UNL     1       8.006  22.770  56.827  1.00  0.00     0.032 A 
HETATM   28  C   UNL     1       8.711  21.587  56.567  1.00  0.00     0.034 A 
HETATM   29  C   UNL     1       8.620  21.070  55.276  1.00  0.00     0.062 A 
HETATM   30  N   UNL     1       9.147  19.941  54.705  1.00  0.00    -0.278 N 
HETATM   31  C   UNL     1       7.895  21.687  54.266  1.00  0.00     0.013 A 
HETATM   32  H   UNL     1       9.711  19.229  55.155  1.00  0.00     0.189 HD
HETATM   33  N   UNL     1       8.867  19.807  53.395  1.00  0.00    -0.186 NA
HETATM   34  C   UNL     1       8.093  20.863  53.135  1.00  0.00     0.152 A 
HETATM   35  C   UNL     1       7.191  22.873  54.551  1.00  0.00     0.044 A 
ENDBRANCH  24  26
ENDBRANCH   3  24
TORSDOF 6
ENDMDL
MODEL 3
REMARK VINA RESULT:      -9.3      3.464      7.445
REMARK  6 active torsions:
REMARK  status: ('A' for Active; 'I' for Inactive)
REMARK    1  A    between atoms: O_2  and  C_3 
REMARK    2  A    between atoms: C_3  and  C_4 
REMARK       I    between atoms: C_4  and  N_6 
REMARK    3  A    between atoms: N_6  and  C_7 
REMARK    4  A    between atoms: C_12  and  C_13 
REMARK    5  A    between atoms: C_15  and  N_16 
REMARK    6  A    between atoms: N_16  and  C_17 
ROOT
HETATM    1  C   UNL     1       5.009  27.406  51.535  1.00  0.00     0.164 A 
HETATM    2  N   UNL     1       6.127  26.727  51.840  1.00  0.00    -0.210 NA
HETATM    3  C   UNL     1       6.488  26.656  53.136  1.00  0.00     0.143 A 
HETATM    4  C   UNL     1       5.755  27.299  54.150  1.00  0.00     0.039 A 
HETATM    5  C   UNL     1       6.064  27.267  55.535  1.00  0.00     0.018 A 
HETATM    6  C   UNL     1       5.283  27.959  56.458  1.00  0.00     0.001 A 
HETATM    7  C   UNL     1       4.184  28.680  56.015  1.00  0.00     0.002 A 
HETATM    8  C   UNL     1       3.868  28.693  54.653  1.00  0.00     0.032 A 
HETATM    9  C   UNL     1       4.631  28.010  53.715  1.00  0.00     0.073 A 
HETATM   10  N   UNL     1       4.255  28.058  52.434  1.00  0.00    -0.228 NA
ENDROOT
BRANCH   1  11
HETATM   11  C   UNL     1       4.575  27.424  50.120  1.00  0.00     0.039 A 
HETATM   12  C   UNL     1       4.226  28.612  49.415  1.00  0.00     0.049 A 
HETATM   13  C   UNL     1       3.817  28.523  48.075  1.00  0.00     0.030 A 
HETATM   14  C   UNL     1       3.749  27.294  47.417  1.00  0.00     0.002 A 
HETATM   15  C   UNL     1       4.084  26.129  48.088  1.00  0.00     0.001 A 
HETATM   16  C   UNL     1       4.488  26.196  49.421  1.00  0.00     0.018 A 
BRANCH  12  17
HETATM   17  N   UNL     1       4.302  29.865  50.082  1.00  0.00    -0.324 N 
HETATM   18  C   UNL     1       5.387  30.720  50.195  1.00  0.00     0.245 C 
HETATM   19  O   UNL     1       6.497  30.542  49.700  1.00  0.00    -0.271 OA
HETATM   20  H   UNL     1       3.432  30.153  50.531  1.00  0.00     0.169 HD
BRANCH  18  21
HETATM   21  C   UNL     1       5.067  32.008  50.982  1.00  0.00     0.270 C 
BRANCH  21  22
HETATM   22  O   UNL     1       3.832  32.042  51.684  1.00  0.00    -0.387 OA
HETATM   23  C   UNL     1       3.991  32.023  53.095  1.00  0.00     0.202 C 
ENDBRANCH  21  22
ENDBRANCH  18  21
ENDBRANCH  12  17
ENDBRANCH   1  11
BRANCH   3  24
HETATM   24  N   UNL     1       7.646  25.910  53.480  1.00  0.00    -0.340 N 
HETATM   25  H   UNL     1       8.406  26.152  52.853  1.00  0.00     0.167 HD
BRANCH  24  26
HETATM   26  C   UNL     1       7.714  24.561  53.903  1.00  0.00     0.034 A 
HETATM   27  C   UNL     1       7.586  24.194  55.250  1.00  0.00     0.032 A 
HETATM   28  C   UNL     1       7.641  22.858  55.671  1.00  0.00     0.034 A 
HETATM   29  C   UNL     1       7.870  21.896  54.687  1.00  0.00     0.062 A 
HETATM   30  N   UNL     1       7.952  20.530  54.748  1.00  0.00    -0.278 N 
HETATM   31  C   UNL     1       8.064  22.216  53.350  1.00  0.00     0.013 A 
HETATM   32  H   UNL     1       7.830  19.941  55.563  1.00  0.00     0.189 HD
HETATM   33  N   UNL     1       8.237  19.945  53.570  1.00  0.00    -0.186 NA
HETATM   34  C   UNL     1       8.290  20.973  52.719  1.00  0.00     0.152 A 
HETATM   35  C   UNL     1       8.000  23.565  52.950  1.00  0.00     0.044 A 
ENDBRANCH  24  26
ENDBRANCH   3  24
TORSDOF 6
ENDMDL
MODEL 4
REMARK VINA RESULT:      -9.2      2.218      5.326
REMARK  6 active torsions:
REMARK  status: ('A' for Active; 'I' for Inactive)
REMARK    1  A    between atoms: O_2  and  C_3 
REMARK    2  A    between atoms: C_3  and  C_4 
REMARK       I    between atoms: C_4  and  N_6 
REMARK    3  A    between atoms: N_6  and  C_7 
REMARK    4  A    between atoms: C_12  and  C_13 
REMARK    5  A    between atoms: C_15  and  N_16 
REMARK    6  A    between atoms: N_16  and  C_17 
ROOT
HETATM    1  C   UNL     1       6.236  26.307  53.753  1.00  0.00     0.164 A 
HETATM    2  N   UNL     1       6.281  27.091  54.843  1.00  0.00    -0.210 NA
HETATM    3  C   UNL     1       6.860  26.594  55.953  1.00  0.00     0.143 A 
HETATM    4  C   UNL     1       7.372  25.285  56.005  1.00  0.00     0.039 A 
HETATM    5  C   UNL     1       8.002  24.692  57.131  1.00  0.00     0.018 A 
HETATM    6  C   UNL     1       8.456  23.376  57.084  1.00  0.00     0.001 A 
HETATM    7  C   UNL     1       8.296  22.641  55.919  1.00  0.00     0.002 A 
HETATM    8  C   UNL     1       7.695  23.234  54.804  1.00  0.00     0.032 A 
HETATM    9  C   UNL     1       7.237  24.545  54.826  1.00  0.00     0.073 A 
HETATM   10  N   UNL     1       6.689  25.044  53.715  1.00  0.00    -0.228 NA
ENDROOT
BRANCH   1  11
HETATM   11  C   UNL     1       5.662  26.878  52.513  1.00  0.00     0.039 A 
HETATM   12  C   UNL     1       5.213  28.224  52.397  1.00  0.00     0.049 A 
HETATM   13  C   UNL     1       4.674  28.668  51.178  1.00  0.00     0.030 A 
HETATM   14  C   UNL     1       4.573  27.816  50.077  1.00  0.00     0.002 A 
HETATM   15  C   UNL     1       5.004  26.504  50.174  1.00  0.00     0.001 A 
HETATM   16  C   UNL     1       5.538  26.043  51.377  1.00  0.00     0.018 A 
BRANCH  12  17
HETATM   17  N   UNL     1       5.322  29.094  53.516  1.00  0.00    -0.324 N 
HETATM   18  C   UNL     1       4.357  29.924  54.062  1.00  0.00     0.245 C 
HETATM   19  O   UNL     1       3.197  30.034  53.671  1.00  0.00    -0.271 OA
HETATM   20  H   UNL     1       6.241  29.092  53.959  1.00  0.00     0.169 HD
BRANCH  18  21
HETATM   21  C   UNL     1       4.853  30.702  55.299  1.00  0.00     0.270 C 
BRANCH  21  22
HETATM   22  O   UNL     1       4.858  30.005  56.537  1.00  0.00    -0.387 OA
HETATM   23  C   UNL     1       3.884  30.484  57.452  1.00  0.00     0.202 C 
ENDBRANCH  21  22
ENDBRANCH  18  21
ENDBRANCH  12  17
ENDBRANCH   1  11
BRANCH   3  24
HETATM   24  N   UNL     1       6.950  27.424  57.103  1.00  0.00    -0.340 N 
HETATM   25  H   UNL     1       6.019  27.683  57.410  1.00  0.00     0.167 HD
BRANCH  24  26
HETATM   26  C   UNL     1       7.899  28.441  57.365  1.00  0.00     0.034 A 
HETATM   27  C   UNL     1       9.199  28.404  56.838  1.00  0.00     0.032 A 
HETATM   28  C   UNL     1      10.136  29.415  57.086  1.00  0.00     0.034 A 
HETATM   29  C   UNL     1       9.734  30.457  57.922  1.00  0.00     0.062 A 
HETATM   30  N   UNL     1      10.377  31.592  58.338  1.00  0.00    -0.278 N 
HETATM   31  C   UNL     1       8.480  30.506  58.515  1.00  0.00     0.013 A 
HETATM   32  H   UNL     1      11.305  31.906  58.079  1.00  0.00     0.189 HD
HETATM   33  N   UNL     1       9.662  32.344  59.196  1.00  0.00    -0.186 NA
HETATM   34  C   UNL     1       8.503  31.687  59.289  1.00  0.00     0.152 A 
HETATM   35  C   UNL     1       7.553  29.481  58.248  1.00  0.00     0.044 A 
ENDBRANCH  24  26
ENDBRANCH   3  24
TORSDOF 6
ENDMDL
MODEL 5
REMARK VINA RESULT:      -9.2      2.937      7.447
REMARK  6 active torsions:
REMARK  status: ('A' for Active; 'I' for Inactive)
REMARK    1  A    between atoms: O_2  and  C_3 
REMARK    2  A    between atoms: C_3  and  C_4 
REMARK       I    between atoms: C_4  and  N_6 
REMARK    3  A    between atoms: N_6  and  C_7 
REMARK    4  A    between atoms: C_12  and  C_13 
REMARK    5  A    between atoms: C_15  and  N_16 
REMARK    6  A    between atoms: N_16  and  C_17 
ROOT
HETATM    1  C   UNL     1       7.998  28.970  57.236  1.00  0.00     0.164 A 
HETATM    2  N   UNL     1       7.678  29.224  55.957  1.00  0.00    -0.210 NA
HETATM    3  C   UNL     1       7.473  28.175  55.138  1.00  0.00     0.143 A 
HETATM    4  C   UNL     1       7.622  26.846  55.577  1.00  0.00     0.039 A 
HETATM    5  C   UNL     1       7.418  25.689  54.781  1.00  0.00     0.018 A 
HETATM    6  C   UNL     1       7.614  24.415  55.309  1.00  0.00     0.001 A 
HETATM    7  C   UNL     1       8.007  24.279  56.632  1.00  0.00     0.002 A 
HETATM    8  C   UNL     1       8.188  25.419  57.421  1.00  0.00     0.032 A 
HETATM    9  C   UNL     1       7.996  26.700  56.918  1.00  0.00     0.073 A 
HETATM   10  N   UNL     1       8.172  27.738  57.739  1.00  0.00    -0.228 NA
ENDROOT
BRANCH   1  11
HETATM   11  C   UNL     1       8.156  30.123  58.152  1.00  0.00     0.039 A 
HETATM   12  C   UNL     1       7.071  30.927  58.605  1.00  0.00     0.049 A 
HETATM   13  C   UNL     1       7.326  32.007  59.466  1.00  0.00     0.030 A 
HETATM   14  C   UNL     1       8.622  32.305  59.892  1.00  0.00     0.002 A 
HETATM   15  C   UNL     1       9.688  31.533  59.460  1.00  0.00     0.001 A 
HETATM   16  C   UNL     1       9.455  30.460  58.601  1.00  0.00     0.018 A 
BRANCH  12  17
HETATM   17  N   UNL     1       5.751  30.620  58.178  1.00  0.00    -0.324 N 
HETATM   18  C   UNL     1       5.036  31.162  57.122  1.00  0.00     0.245 C 
HETATM   19  O   UNL     1       5.446  32.013  56.336  1.00  0.00    -0.271 OA
HETATM   20  H   UNL     1       5.286  29.904  58.738  1.00  0.00     0.169 HD
BRANCH  18  21
HETATM   21  C   UNL     1       3.630  30.547  56.961  1.00  0.00     0.270 C 
BRANCH  21  22
HETATM   22  O   UNL     1       2.552  31.452  56.761  1.00  0.00    -0.387 OA
HETATM   23  C   UNL     1       2.314  31.743  55.391  1.00  0.00     0.202 C 
ENDBRANCH  21  22
ENDBRANCH  18  21
ENDBRANCH  12  17
ENDBRANCH   1  11
BRANCH   3  24
HETATM   24  N   UNL     1       7.097  28.425  53.792  1.00  0.00    -0.340 N 
HETATM   25  H   UNL     1       7.718  29.117  53.387  1.00  0.00     0.167 HD
BRANCH  24  26
HETATM   26  C   UNL     1       5.788  28.510  53.259  1.00  0.00     0.034 A 
HETATM   27  C   UNL     1       4.648  28.507  54.076  1.00  0.00     0.032 A 
HETATM   28  C   UNL     1       3.351  28.603  53.553  1.00  0.00     0.034 A 
HETATM   29  C   UNL     1       3.235  28.665  52.165  1.00  0.00     0.062 A 
HETATM   30  N   UNL     1       2.144  28.789  51.345  1.00  0.00    -0.278 N 
HETATM   31  C   UNL     1       4.330  28.611  51.313  1.00  0.00     0.013 A 
HETATM   32  H   UNL     1       1.173  28.888  51.621  1.00  0.00     0.189 HD
HETATM   33  N   UNL     1       2.439  28.765  50.032  1.00  0.00    -0.186 NA
HETATM   34  C   UNL     1       3.771  28.671  50.017  1.00  0.00     0.152 A 
HETATM   35  C   UNL     1       5.623  28.518  51.862  1.00  0.00     0.044 A 
ENDBRANCH  24  26
ENDBRANCH   3  24
TORSDOF 6
ENDMDL
MODEL 6
REMARK VINA RESULT:      -9.2      3.105      6.608
REMARK  6 active torsions:
REMARK  status: ('A' for Active; 'I' for Inactive)
REMARK    1  A    between atoms: O_2  and  C_3 
REMARK    2  A    between atoms: C_3  and  C_4 
REMARK       I    between atoms: C_4  and  N_6 
REMARK    3  A    between atoms: N_6  and  C_7 
REMARK    4  A    between atoms: C_12  and  C_13 
REMARK    5  A    between atoms: C_15  and  N_16 
REMARK    6  A    between atoms: N_16  and  C_17 
ROOT
HETATM    1  C   UNL     1       6.183  25.985  52.907  1.00  0.00     0.164 A 
HETATM    2  N   UNL     1       6.103  26.145  51.576  1.00  0.00    -0.210 NA
HETATM    3  C   UNL     1       5.432  27.215  51.109  1.00  0.00     0.143 A 
HETATM    4  C   UNL     1       4.793  28.128  51.968  1.00  0.00     0.039 A 
HETATM    5  C   UNL     1       4.074  29.281  51.557  1.00  0.00     0.018 A 
HETATM    6  C   UNL     1       3.458  30.110  52.491  1.00  0.00     0.001 A 
HETATM    7  C   UNL     1       3.558  29.807  53.840  1.00  0.00     0.002 A 
HETATM    8  C   UNL     1       4.284  28.683  54.246  1.00  0.00     0.032 A 
HETATM    9  C   UNL     1       4.908  27.842  53.333  1.00  0.00     0.073 A 
HETATM   10  N   UNL     1       5.597  26.798  53.800  1.00  0.00    -0.228 NA
ENDROOT
BRANCH   1  11
HETATM   11  C   UNL     1       6.979  24.847  53.421  1.00  0.00     0.039 A 
HETATM   12  C   UNL     1       7.616  24.838  54.694  1.00  0.00     0.049 A 
HETATM   13  C   UNL     1       8.358  23.712  55.086  1.00  0.00     0.030 A 
HETATM   14  C   UNL     1       8.480  22.598  54.254  1.00  0.00     0.002 A 
HETATM   15  C   UNL     1       7.868  22.591  53.012  1.00  0.00     0.001 A 
HETATM   16  C   UNL     1       7.131  23.702  52.603  1.00  0.00     0.018 A 
BRANCH  12  17
HETATM   17  N   UNL     1       7.486  25.969  55.545  1.00  0.00    -0.324 N 
HETATM   18  C   UNL     1       6.815  26.069  56.753  1.00  0.00     0.245 C 
HETATM   19  O   UNL     1       6.218  25.158  57.323  1.00  0.00    -0.271 OA
HETATM   20  H   UNL     1       7.955  26.807  55.201  1.00  0.00     0.169 HD
BRANCH  18  21
HETATM   21  C   UNL     1       6.923  27.468  57.395  1.00  0.00     0.270 C 
BRANCH  21  22
HETATM   22  O   UNL     1       8.158  27.795  58.019  1.00  0.00    -0.387 OA
HETATM   23  C   UNL     1       8.741  28.987  57.513  1.00  0.00     0.202 C 
ENDBRANCH  21  22
ENDBRANCH  18  21
ENDBRANCH  12  17
ENDBRANCH   1  11
BRANCH   3  24
HETATM   24  N   UNL     1       5.370  27.420  49.705  1.00  0.00    -0.340 N 
HETATM   25  H   UNL     1       5.853  28.279  49.464  1.00  0.00     0.167 HD
BRANCH  24  26
HETATM   26  C   UNL     1       4.280  27.162  48.839  1.00  0.00     0.034 A 
HETATM   27  C   UNL     1       3.988  25.873  48.370  1.00  0.00     0.032 A 
HETATM   28  C   UNL     1       2.903  25.613  47.522  1.00  0.00     0.034 A 
HETATM   29  C   UNL     1       2.136  26.708  47.126  1.00  0.00     0.062 A 
HETATM   30  N   UNL     1       1.015  26.802  46.344  1.00  0.00    -0.278 N 
HETATM   31  C   UNL     1       2.422  28.009  47.515  1.00  0.00     0.013 A 
HETATM   32  H   UNL     1       0.502  26.044  45.907  1.00  0.00     0.189 HD
HETATM   33  N   UNL     1       0.585  28.063  46.150  1.00  0.00    -0.186 NA
HETATM   34  C   UNL     1       1.435  28.793  46.876  1.00  0.00     0.152 A 
HETATM   35  C   UNL     1       3.515  28.246  48.370  1.00  0.00     0.044 A 
ENDBRANCH  24  26
ENDBRANCH   3  24
TORSDOF 6
ENDMDL
MODEL 7
REMARK VINA RESULT:      -9.1      5.014      8.817
REMARK  6 active torsions:
REMARK  status: ('A' for Active; 'I' for Inactive)
REMARK    1  A    between atoms: O_2  and  C_3 
REMARK    2  A    between atoms: C_3  and  C_4 
REMARK       I    between atoms: C_4  and  N_6 
REMARK    3  A    between atoms: N_6  and  C_7 
REMARK    4  A    between atoms: C_12  and  C_13 
REMARK    5  A    between atoms: C_15  and  N_16 
REMARK    6  A    between atoms: N_16  and  C_17 
ROOT
HETATM    1  C   UNL     1       7.621  31.410  58.949  1.00  0.00     0.164 A 
HETATM    2  N   UNL     1       7.490  31.184  60.266  1.00  0.00    -0.210 NA
HETATM    3  C   UNL     1       6.406  31.686  60.887  1.00  0.00     0.143 A 
HETATM    4  C   UNL     1       5.448  32.460  60.207  1.00  0.00     0.039 A 
HETATM    5  C   UNL     1       4.279  33.018  60.786  1.00  0.00     0.018 A 
HETATM    6  C   UNL     1       3.403  33.790  60.027  1.00  0.00     0.001 A 
HETATM    7  C   UNL     1       3.677  34.008  58.685  1.00  0.00     0.002 A 
HETATM    8  C   UNL     1       4.819  33.441  58.110  1.00  0.00     0.032 A 
HETATM    9  C   UNL     1       5.705  32.666  58.847  1.00  0.00     0.073 A 
HETATM   10  N   UNL     1       6.764  32.145  58.222  1.00  0.00    -0.228 NA
ENDROOT
BRANCH   1  11
HETATM   11  C   UNL     1       8.776  30.799  58.253  1.00  0.00     0.039 A 
HETATM   12  C   UNL     1       8.670  29.687  57.370  1.00  0.00     0.049 A 
HETATM   13  C   UNL     1       9.829  29.173  56.765  1.00  0.00     0.030 A 
HETATM   14  C   UNL     1      11.083  29.735  57.009  1.00  0.00     0.002 A 
HETATM   15  C   UNL     1      11.204  30.817  57.865  1.00  0.00     0.001 A 
HETATM   16  C   UNL     1      10.066  31.337  58.479  1.00  0.00     0.018 A 
BRANCH  12  17
HETATM   17  N   UNL     1       7.392  29.120  57.116  1.00  0.00    -0.324 N 
HETATM   18  C   UNL     1       6.923  27.860  57.453  1.00  0.00     0.245 C 
HETATM   19  O   UNL     1       7.547  27.001  58.070  1.00  0.00    -0.271 OA
HETATM   20  H   UNL     1       6.751  29.738  56.617  1.00  0.00     0.169 HD
BRANCH  18  21
HETATM   21  C   UNL     1       5.460  27.621  57.023  1.00  0.00     0.270 C 
BRANCH  21  22
HETATM   22  O   UNL     1       4.679  28.772  56.731  1.00  0.00    -0.387 OA
HETATM   23  C   UNL     1       4.154  28.770  55.412  1.00  0.00     0.202 C 
ENDBRANCH  21  22
ENDBRANCH  18  21
ENDBRANCH  12  17
ENDBRANCH   1  11
BRANCH   3  24
HETATM   24  N   UNL     1       6.233  31.424  62.273  1.00  0.00    -0.340 N 
HETATM   25  H   UNL     1       5.501  30.734  62.400  1.00  0.00     0.167 HD
BRANCH  24  26
HETATM   26  C   UNL     1       6.284  32.349  63.342  1.00  0.00     0.034 A 
HETATM   27  C   UNL     1       7.494  32.875  63.818  1.00  0.00     0.032 A 
HETATM   28  C   UNL     1       7.547  33.799  64.870  1.00  0.00     0.034 A 
HETATM   29  C   UNL     1       6.334  34.154  65.459  1.00  0.00     0.062 A 
HETATM   30  N   UNL     1       6.031  35.032  66.466  1.00  0.00    -0.278 N 
HETATM   31  C   UNL     1       5.117  33.616  65.063  1.00  0.00     0.013 A 
HETATM   32  H   UNL     1       6.670  35.631  66.975  1.00  0.00     0.189 HD
HETATM   33  N   UNL     1       4.725  35.065  66.790  1.00  0.00    -0.186 NA
HETATM   34  C   UNL     1       4.170  34.213  65.925  1.00  0.00     0.152 A 
HETATM   35  C   UNL     1       5.088  32.691  64.001  1.00  0.00     0.044 A 
ENDBRANCH  24  26
ENDBRANCH   3  24
TORSDOF 6
ENDMDL
MODEL 8
REMARK VINA RESULT:      -9.0      2.438      6.802
REMARK  6 active torsions:
REMARK  status: ('A' for Active; 'I' for Inactive)
REMARK    1  A    between atoms: O_2  and  C_3 
REMARK    2  A    between atoms: C_3  and  C_4 
REMARK       I    between atoms: C_4  and  N_6 
REMARK    3  A    between atoms: N_6  and  C_7 
REMARK    4  A    between atoms: C_12  and  C_13 
REMARK    5  A    between atoms: C_15  and  N_16 
REMARK    6  A    between atoms: N_16  and  C_17 
ROOT
HETATM    1  C   UNL     1       4.282  29.596  53.661  1.00  0.00     0.164 A 
HETATM    2  N   UNL     1       4.200  28.285  53.941  1.00  0.00    -0.210 NA
HETATM    3  C   UNL     1       4.366  27.412  52.928  1.00  0.00     0.143 A 
HETATM    4  C   UNL     1       4.579  27.838  51.604  1.00  0.00     0.039 A 
HETATM    5  C   UNL     1       4.769  26.985  50.486  1.00  0.00     0.018 A 
HETATM    6  C   UNL     1       4.950  27.510  49.208  1.00  0.00     0.001 A 
HETATM    7  C   UNL     1       4.953  28.886  49.033  1.00  0.00     0.002 A 
HETATM    8  C   UNL     1       4.787  29.726  50.138  1.00  0.00     0.032 A 
HETATM    9  C   UNL     1       4.606  29.225  51.421  1.00  0.00     0.073 A 
HETATM   10  N   UNL     1       4.471  30.092  52.428  1.00  0.00    -0.228 NA
ENDROOT
BRANCH   1  11
HETATM   11  C   UNL     1       4.169  30.552  54.786  1.00  0.00     0.039 A 
HETATM   12  C   UNL     1       5.191  30.755  55.756  1.00  0.00     0.049 A 
HETATM   13  C   UNL     1       4.983  31.680  56.793  1.00  0.00     0.030 A 
HETATM   14  C   UNL     1       3.796  32.408  56.888  1.00  0.00     0.002 A 
HETATM   15  C   UNL     1       2.791  32.222  55.952  1.00  0.00     0.001 A 
HETATM   16  C   UNL     1       2.977  31.304  54.918  1.00  0.00     0.018 A 
BRANCH  12  17
HETATM   17  N   UNL     1       6.402  30.019  55.656  1.00  0.00    -0.324 N 
HETATM   18  C   UNL     1       7.134  29.417  56.666  1.00  0.00     0.245 C 
HETATM   19  O   UNL     1       6.835  29.397  57.858  1.00  0.00    -0.271 OA
HETATM   20  H   UNL     1       6.765  29.938  54.705  1.00  0.00     0.169 HD
BRANCH  18  21
HETATM   21  C   UNL     1       8.392  28.684  56.153  1.00  0.00     0.270 C 
BRANCH  21  22
HETATM   22  O   UNL     1       9.555  28.758  56.966  1.00  0.00    -0.387 OA
HETATM   23  C   UNL     1      10.434  29.808  56.588  1.00  0.00     0.202 C 
ENDBRANCH  21  22
ENDBRANCH  18  21
ENDBRANCH  12  17
ENDBRANCH   1  11
BRANCH   3  24
HETATM   24  N   UNL     1       4.321  26.022  53.213  1.00  0.00    -0.340 N 
HETATM   25  H   UNL     1       3.403  25.776  53.568  1.00  0.00     0.167 HD
BRANCH  24  26
HETATM   26  C   UNL     1       5.341  25.219  53.778  1.00  0.00     0.034 A 
HETATM   27  C   UNL     1       5.644  25.251  55.147  1.00  0.00     0.032 A 
HETATM   28  C   UNL     1       6.645  24.449  55.711  1.00  0.00     0.034 A 
HETATM   29  C   UNL     1       7.366  23.634  54.839  1.00  0.00     0.062 A 
HETATM   30  N   UNL     1       8.370  22.727  55.057  1.00  0.00    -0.278 N 
HETATM   31  C   UNL     1       7.144  23.613  53.469  1.00  0.00     0.013 A 
HETATM   32  H   UNL     1       8.774  22.456  55.947  1.00  0.00     0.189 HD
HETATM   33  N   UNL     1       8.852  22.163  53.934  1.00  0.00    -0.186 NA
HETATM   34  C   UNL     1       8.094  22.693  52.972  1.00  0.00     0.152 A 
HETATM   35  C   UNL     1       6.130  24.424  52.925  1.00  0.00     0.044 A 
ENDBRANCH  24  26
ENDBRANCH   3  24
TORSDOF 6
ENDMDL
MODEL 9
REMARK VINA RESULT:      -9.0      1.527      2.118
REMARK  6 active torsions:
REMARK  status: ('A' for Active; 'I' for Inactive)
REMARK    1  A    between atoms: O_2  and  C_3 
REMARK    2  A    between atoms: C_3  and  C_4 
REMARK       I    between atoms: C_4  and  N_6 
REMARK    3  A    between atoms: N_6  and  C_7 
REMARK    4  A    between atoms: C_12  and  C_13 
REMARK    5  A    between atoms: C_15  and  N_16 
REMARK    6  A    between atoms: N_16  and  C_17 
ROOT
HETATM    1  C   UNL     1       6.968  25.370  53.116  1.00  0.00     0.164 A 
HETATM    2  N   UNL     1       7.062  26.518  53.806  1.00  0.00    -0.210 NA
HETATM    3  C   UNL     1       6.422  27.599  53.321  1.00  0.00     0.143 A 
HETATM    4  C   UNL     1       5.706  27.561  52.111  1.00  0.00     0.039 A 
HETATM    5  C   UNL     1       5.000  28.651  51.536  1.00  0.00     0.018 A 
HETATM    6  C   UNL     1       4.339  28.512  50.318  1.00  0.00     0.001 A 
HETATM    7  C   UNL     1       4.366  27.289  49.665  1.00  0.00     0.002 A 
HETATM    8  C   UNL     1       5.043  26.211  50.242  1.00  0.00     0.032 A 
HETATM    9  C   UNL     1       5.708  26.324  51.456  1.00  0.00     0.073 A 
HETATM   10  N   UNL     1       6.317  25.244  51.950  1.00  0.00    -0.228 NA
ENDROOT
BRANCH   1  11
HETATM   11  C   UNL     1       7.614  24.165  53.686  1.00  0.00     0.039 A 
HETATM   12  C   UNL     1       8.137  24.100  55.009  1.00  0.00     0.049 A 
HETATM   13  C   UNL     1       8.741  22.912  55.454  1.00  0.00     0.030 A 
HETATM   14  C   UNL     1       8.835  21.792  54.626  1.00  0.00     0.002 A 
HETATM   15  C   UNL     1       8.332  21.840  53.336  1.00  0.00     0.001 A 
HETATM   16  C   UNL     1       7.733  23.012  52.875  1.00  0.00     0.018 A 
BRANCH  12  17
HETATM   17  N   UNL     1       8.035  25.237  55.855  1.00  0.00    -0.324 N 
HETATM   18  C   UNL     1       7.081  25.514  56.821  1.00  0.00     0.245 C 
HETATM   19  O   UNL     1       6.143  24.786  57.134  1.00  0.00    -0.271 OA
HETATM   20  H   UNL     1       8.772  25.930  55.715  1.00  0.00     0.169 HD
BRANCH  18  21
HETATM   21  C   UNL     1       7.326  26.850  57.554  1.00  0.00     0.270 C 
BRANCH  21  22
HETATM   22  O   UNL     1       8.609  27.442  57.399  1.00  0.00    -0.387 OA
HETATM   23  C   UNL     1       8.623  28.830  57.698  1.00  0.00     0.202 C 
ENDBRANCH  21  22
ENDBRANCH  18  21
ENDBRANCH  12  17
ENDBRANCH   1  11
BRANCH   3  24
HETATM   24  N   UNL     1       6.479  28.812  54.058  1.00  0.00    -0.340 N 
HETATM   25  H   UNL     1       7.445  29.104  54.160  1.00  0.00     0.167 HD
BRANCH  24  26
HETATM   26  C   UNL     1       5.690  29.187  55.172  1.00  0.00     0.034 A 
HETATM   27  C   UNL     1       4.480  28.547  55.479  1.00  0.00     0.032 A 
HETATM   28  C   UNL     1       3.703  28.908  56.588  1.00  0.00     0.034 A 
HETATM   29  C   UNL     1       4.167  29.969  57.364  1.00  0.00     0.062 A 
HETATM   30  N   UNL     1       3.678  30.547  58.507  1.00  0.00    -0.278 N 
HETATM   31  C   UNL     1       5.326  30.672  57.066  1.00  0.00     0.013 A 
HETATM   32  H   UNL     1       2.856  30.273  59.033  1.00  0.00     0.189 HD
HETATM   33  N   UNL     1       4.396  31.600  58.940  1.00  0.00    -0.186 NA
HETATM   34  C   UNL     1       5.406  31.663  58.069  1.00  0.00     0.152 A 
HETATM   35  C   UNL     1       6.093  30.289  55.949  1.00  0.00     0.044 A 
ENDBRANCH  24  26
ENDBRANCH   3  24
TORSDOF 6
ENDMDL
MODEL 10
REMARK VINA RESULT:      -8.9      2.902      5.555
REMARK  6 active torsions:
REMARK  status: ('A' for Active; 'I' for Inactive)
REMARK    1  A    between atoms: O_2  and  C_3 
REMARK    2  A    between atoms: C_3  and  C_4 
REMARK       I    between atoms: C_4  and  N_6 
REMARK    3  A    between atoms: N_6  and  C_7 
REMARK    4  A    between atoms: C_12  and  C_13 
REMARK    5  A    between atoms: C_15  and  N_16 
REMARK    6  A    between atoms: N_16  and  C_17 
ROOT
HETATM    1  C   UNL     1       6.940  27.738  56.792  1.00  0.00     0.164 A 
HETATM    2  N   UNL     1       7.731  28.678  57.335  1.00  0.00    -0.210 NA
HETATM    3  C   UNL     1       7.184  29.877  57.616  1.00  0.00     0.143 A 
HETATM    4  C   UNL     1       5.840  30.171  57.322  1.00  0.00     0.039 A 
HETATM    5  C   UNL     1       5.189  31.403  57.592  1.00  0.00     0.018 A 
HETATM    6  C   UNL     1       3.856  31.599  57.240  1.00  0.00     0.001 A 
HETATM    7  C   UNL     1       3.156  30.572  56.625  1.00  0.00     0.002 A 
HETATM    8  C   UNL     1       3.792  29.351  56.378  1.00  0.00     0.032 A 
HETATM    9  C   UNL     1       5.120  29.131  56.722  1.00  0.00     0.073 A 
HETATM   10  N   UNL     1       5.652  27.933  56.469  1.00  0.00    -0.228 NA
ENDROOT
BRANCH   1  11
HETATM   11  C   UNL     1       7.523  26.399  56.548  1.00  0.00     0.039 A 
HETATM   12  C   UNL     1       7.454  25.723  55.297  1.00  0.00     0.049 A 
HETATM   13  C   UNL     1       8.031  24.449  55.169  1.00  0.00     0.030 A 
HETATM   14  C   UNL     1       8.676  23.834  56.243  1.00  0.00     0.002 A 
HETATM   15  C   UNL     1       8.752  24.478  57.467  1.00  0.00     0.001 A 
HETATM   16  C   UNL     1       8.180  25.742  57.615  1.00  0.00     0.018 A 
BRANCH  12  17
HETATM   17  N   UNL     1       6.803  26.352  54.201  1.00  0.00    -0.324 N 
HETATM   18  C   UNL     1       5.677  25.936  53.510  1.00  0.00     0.245 C 
HETATM   19  O   UNL     1       5.014  24.930  53.753  1.00  0.00    -0.271 OA
HETATM   20  H   UNL     1       7.242  27.222  53.898  1.00  0.00     0.169 HD
BRANCH  18  21
HETATM   21  C   UNL     1       5.257  26.908  52.387  1.00  0.00     0.270 C 
BRANCH  21  22
HETATM   22  O   UNL     1       5.577  26.529  51.056  1.00  0.00    -0.387 OA
HETATM   23  C   UNL     1       5.042  27.412  50.080  1.00  0.00     0.202 C 
ENDBRANCH  21  22
ENDBRANCH  18  21
ENDBRANCH  12  17
ENDBRANCH   1  11
BRANCH   3  24
HETATM   24  N   UNL     1       7.997  30.870  58.225  1.00  0.00    -0.340 N 
HETATM   25  H   UNL     1       8.900  30.901  57.763  1.00  0.00     0.167 HD
BRANCH  24  26
HETATM   26  C   UNL     1       8.092  31.188  59.600  1.00  0.00     0.034 A 
HETATM   27  C   UNL     1       8.912  30.465  60.480  1.00  0.00     0.032 A 
HETATM   28  C   UNL     1       9.016  30.784  61.840  1.00  0.00     0.034 A 
HETATM   29  C   UNL     1       8.233  31.842  62.301  1.00  0.00     0.062 A 
HETATM   30  N   UNL     1       8.118  32.421  63.537  1.00  0.00    -0.278 N 
HETATM   31  C   UNL     1       7.362  32.548  61.482  1.00  0.00     0.013 A 
HETATM   32  H   UNL     1       8.629  32.184  64.380  1.00  0.00     0.189 HD
HETATM   33  N   UNL     1       7.204  33.408  63.598  1.00  0.00    -0.186 NA
HETATM   34  C   UNL     1       6.757  33.492  62.342  1.00  0.00     0.152 A 
HETATM   35  C   UNL     1       7.277  32.212  60.118  1.00  0.00     0.044 A 
ENDBRANCH  24  26
ENDBRANCH   3  24
TORSDOF 6
ENDMDL
