MODEL 1
REMARK VINA RESULT:      -9.5      0.000      0.000
REMARK  5 active torsions:
REMARK  status: ('A' for Active; 'I' for Inactive)
REMARK    1  A    between atoms: C_5  and  C_6 
REMARK    2  A    between atoms: C_9  and  O_10 
REMARK    3  A    between atoms: O_10  and  C_11 
REMARK    4  A    between atoms: C_11  and  C_12 
REMARK       I    between atoms: C_12  and  N_13 
REMARK    5  A    between atoms: N_13  and  C_14 
ROOT
HETATM    1  C   UNL     1       6.146  26.336  55.191  1.00  0.00     0.278 C 
ENDROOT
BRANCH   1   2
HETATM    2  O   UNL     1       7.357  27.088  55.177  1.00  0.00    -0.342 OA
BRANCH   2   3
HETATM    3  C   UNL     1       7.520  27.993  56.189  1.00  0.00     0.069 A 
HETATM    4  C   UNL     1       8.843  28.273  56.534  1.00  0.00     0.038 A 
HETATM    5  C   UNL     1       9.131  29.212  57.527  1.00  0.00     0.018 A 
HETATM    6  C   UNL     1       8.099  29.904  58.174  1.00  0.00     0.015 A 
HETATM    7  C   UNL     1       6.773  29.630  57.804  1.00  0.00     0.018 A 
HETATM    8  C   UNL     1       6.483  28.682  56.815  1.00  0.00     0.038 A 
BRANCH   6   9
HETATM    9  C   UNL     1       8.403  30.893  59.199  1.00  0.00     0.198 A 
HETATM   10  N   UNL     1       9.017  32.096  58.919  1.00  0.00    -0.136 NA
HETATM   11  N   UNL     1       9.127  32.749  60.067  1.00  0.00     0.024 NA
HETATM   12  N   UNL     1       8.586  31.928  60.976  1.00  0.00    -0.196 N 
HETATM   13  C   UNL     1       8.481  32.288  62.364  1.00  0.00     0.200 C 
HETATM   14  N   UNL     1       8.116  30.758  60.508  1.00  0.00    -0.137 NA
ENDBRANCH   6   9
ENDBRANCH   2   3
ENDBRANCH   1   2
BRANCH   1  15
HETATM   15  C   UNL     1       6.214  24.993  54.455  1.00  0.00     0.246 C 
HETATM   16  N   UNL     1       7.331  24.250  54.783  1.00  0.00    -0.324 N 
HETATM   17  H   UNL     1       7.970  24.689  55.439  1.00  0.00     0.169 HD
HETATM   18  O   UNL     1       5.337  24.680  53.653  1.00  0.00    -0.271 OA
BRANCH  16  19
HETATM   19  C   UNL     1       7.711  22.982  54.302  1.00  0.00     0.047 A 
HETATM   20  C   UNL     1       8.082  21.988  55.246  1.00  0.00     0.019 A 
HETATM   21  C   UNL     1       8.456  20.722  54.788  1.00  0.00     0.044 A 
HETATM   22  C   UNL     1       8.192  21.952  56.671  1.00  0.00     0.033 A 
HETATM   23  N   UNL     1       8.771  19.960  55.892  1.00  0.00    -0.365 N 
HETATM   24  C   UNL     1       8.480  20.382  53.432  1.00  0.00     0.030 A 
HETATM   25  H   UNL     1       9.077  18.998  55.853  1.00  0.00     0.165 HD
HETATM   26  C   UNL     1       8.619  20.696  57.035  1.00  0.00     0.089 A 
HETATM   27  C   UNL     1       8.113  21.369  52.517  1.00  0.00     0.005 A 
HETATM   28  C   UNL     1       7.740  22.646  52.941  1.00  0.00     0.030 A 
ENDBRANCH  16  19
ENDBRANCH   1  15
TORSDOF 5
ENDMDL
MODEL 2
REMARK VINA RESULT:      -9.5      1.837      2.709
REMARK  5 active torsions:
REMARK  status: ('A' for Active; 'I' for Inactive)
REMARK    1  A    between atoms: C_5  and  C_6 
REMARK    2  A    between atoms: C_9  and  O_10 
REMARK    3  A    between atoms: O_10  and  C_11 
REMARK    4  A    between atoms: C_11  and  C_12 
REMARK       I    between atoms: C_12  and  N_13 
REMARK    5  A    between atoms: N_13  and  C_14 
ROOT
HETATM    1  C   UNL     1       6.473  26.006  51.773  1.00  0.00     0.278 C 
ENDROOT
BRANCH   1   2
HETATM    2  O   UNL     1       5.760  27.142  52.254  1.00  0.00    -0.342 OA
BRANCH   2   3
HETATM    3  C   UNL     1       6.229  27.709  53.407  1.00  0.00     0.069 A 
HETATM    4  C   UNL     1       5.253  28.072  54.335  1.00  0.00     0.038 A 
HETATM    5  C   UNL     1       5.617  28.625  55.565  1.00  0.00     0.018 A 
HETATM    6  C   UNL     1       6.969  28.800  55.895  1.00  0.00     0.015 A 
HETATM    7  C   UNL     1       7.942  28.411  54.962  1.00  0.00     0.018 A 
HETATM    8  C   UNL     1       7.576  27.866  53.725  1.00  0.00     0.038 A 
BRANCH   6   9
HETATM    9  C   UNL     1       7.346  29.363  57.184  1.00  0.00     0.198 A 
HETATM   10  N   UNL     1       8.282  28.777  58.010  1.00  0.00    -0.136 NA
HETATM   11  N   UNL     1       8.390  29.551  59.081  1.00  0.00     0.024 NA
HETATM   12  N   UNL     1       7.529  30.553  58.861  1.00  0.00    -0.196 N 
HETATM   13  C   UNL     1       7.368  31.639  59.788  1.00  0.00     0.200 C 
HETATM   14  N   UNL     1       6.846  30.500  57.703  1.00  0.00    -0.137 NA
ENDBRANCH   6   9
ENDBRANCH   2   3
ENDBRANCH   1   2
BRANCH   1  15
HETATM   15  C   UNL     1       6.349  24.751  52.645  1.00  0.00     0.246 C 
HETATM   16  N   UNL     1       7.540  24.065  52.781  1.00  0.00    -0.324 N 
HETATM   17  H   UNL     1       8.328  24.455  52.275  1.00  0.00     0.169 HD
HETATM   18  O   UNL     1       5.263  24.436  53.129  1.00  0.00    -0.271 OA
BRANCH  16  19
HETATM   19  C   UNL     1       7.790  22.882  53.503  1.00  0.00     0.047 A 
HETATM   20  C   UNL     1       8.002  22.980  54.904  1.00  0.00     0.019 A 
HETATM   21  C   UNL     1       8.246  21.817  55.638  1.00  0.00     0.044 A 
HETATM   22  C   UNL     1       8.046  24.064  55.835  1.00  0.00     0.033 A 
HETATM   23  N   UNL     1       8.424  22.188  56.953  1.00  0.00    -0.365 N 
HETATM   24  C   UNL     1       8.288  20.547  55.055  1.00  0.00     0.030 A 
HETATM   25  H   UNL     1       8.617  21.544  57.707  1.00  0.00     0.165 HD
HETATM   26  C   UNL     1       8.309  23.545  57.082  1.00  0.00     0.089 A 
HETATM   27  C   UNL     1       8.078  20.466  53.678  1.00  0.00     0.005 A 
HETATM   28  C   UNL     1       7.837  21.610  52.915  1.00  0.00     0.030 A 
ENDBRANCH  16  19
ENDBRANCH   1  15
TORSDOF 5
ENDMDL
MODEL 3
REMARK VINA RESULT:      -9.4      1.095      2.221
REMARK  5 active torsions:
REMARK  status: ('A' for Active; 'I' for Inactive)
REMARK    1  A    between atoms: C_5  and  C_6 
REMARK    2  A    between atoms: C_9  and  O_10 
REMARK    3  A    between atoms: O_10  and  C_11 
REMARK    4  A    between atoms: C_11  and  C_12 
REMARK       I    between atoms: C_12  and  N_13 
REMARK    5  A    between atoms: N_13  and  C_14 
ROOT
HETATM    1  C   UNL     1       7.028  26.741  53.567  1.00  0.00     0.278 C 
ENDROOT
BRANCH   1   2
HETATM    2  O   UNL     1       6.315  27.818  54.169  1.00  0.00    -0.342 OA
BRANCH   2   3
HETATM    3  C   UNL     1       6.964  28.492  55.166  1.00  0.00     0.069 A 
HETATM    4  C   UNL     1       6.151  28.956  56.201  1.00  0.00     0.038 A 
HETATM    5  C   UNL     1       6.710  29.624  57.293  1.00  0.00     0.018 A 
HETATM    6  C   UNL     1       8.096  29.817  57.378  1.00  0.00     0.015 A 
HETATM    7  C   UNL     1       8.905  29.328  56.341  1.00  0.00     0.018 A 
HETATM    8  C   UNL     1       8.344  28.666  55.241  1.00  0.00     0.038 A 
BRANCH   6   9
HETATM    9  C   UNL     1       8.677  30.502  58.525  1.00  0.00     0.198 A 
HETATM   10  N   UNL     1       9.367  31.691  58.415  1.00  0.00    -0.136 NA
HETATM   11  N   UNL     1       9.741  32.033  59.639  1.00  0.00     0.024 NA
HETATM   12  N   UNL     1       9.271  31.054  60.423  1.00  0.00    -0.196 N 
HETATM   13  C   UNL     1       9.441  31.070  61.850  1.00  0.00     0.200 C 
HETATM   14  N   UNL     1       8.601  30.070  59.797  1.00  0.00    -0.137 NA
ENDBRANCH   6   9
ENDBRANCH   2   3
ENDBRANCH   1   2
BRANCH   1  15
HETATM   15  C   UNL     1       6.774  25.367  54.200  1.00  0.00     0.246 C 
HETATM   16  N   UNL     1       7.928  24.757  54.651  1.00  0.00    -0.324 N 
HETATM   17  H   UNL     1       8.787  25.272  54.488  1.00  0.00     0.169 HD
HETATM   18  O   UNL     1       5.635  24.909  54.251  1.00  0.00    -0.271 OA
BRANCH  16  19
HETATM   19  C   UNL     1       8.066  23.504  55.278  1.00  0.00     0.047 A 
HETATM   20  C   UNL     1       8.105  22.343  54.461  1.00  0.00     0.019 A 
HETATM   21  C   UNL     1       8.248  21.091  55.064  1.00  0.00     0.044 A 
HETATM   22  C   UNL     1       8.014  22.107  53.054  1.00  0.00     0.033 A 
HETATM   23  N   UNL     1       8.248  20.147  54.060  1.00  0.00    -0.365 N 
HETATM   24  C   UNL     1       8.360  20.924  56.447  1.00  0.00     0.030 A 
HETATM   25  H   UNL     1       8.336  19.151  54.212  1.00  0.00     0.165 HD
HETATM   26  C   UNL     1       8.103  20.750  52.842  1.00  0.00     0.089 A 
HETATM   27  C   UNL     1       8.320  22.073  57.237  1.00  0.00     0.005 A 
HETATM   28  C   UNL     1       8.173  23.338  56.667  1.00  0.00     0.030 A 
ENDBRANCH  16  19
ENDBRANCH   1  15
TORSDOF 5
ENDMDL
MODEL 4
REMARK VINA RESULT:      -9.1      2.249      8.980
REMARK  5 active torsions:
REMARK  status: ('A' for Active; 'I' for Inactive)
REMARK    1  A    between atoms: C_5  and  C_6 
REMARK    2  A    between atoms: C_9  and  O_10 
REMARK    3  A    between atoms: O_10  and  C_11 
REMARK    4  A    between atoms: C_11  and  C_12 
REMARK       I    between atoms: C_12  and  N_13 
REMARK    5  A    between atoms: N_13  and  C_14 
ROOT
HETATM    1  C   UNL     1       4.700  28.500  56.441  1.00  0.00     0.278 C 
ENDROOT
BRANCH   1   2
HETATM    2  O   UNL     1       4.715  27.928  55.135  1.00  0.00    -0.342 OA
BRANCH   2   3
HETATM    3  C   UNL     1       5.331  26.714  55.012  1.00  0.00     0.069 A 
HETATM    4  C   UNL     1       5.282  26.144  53.739  1.00  0.00     0.038 A 
HETATM    5  C   UNL     1       5.911  24.923  53.486  1.00  0.00     0.018 A 
HETATM    6  C   UNL     1       6.621  24.264  54.499  1.00  0.00     0.015 A 
HETATM    7  C   UNL     1       6.682  24.856  55.770  1.00  0.00     0.018 A 
HETATM    8  C   UNL     1       6.043  26.077  56.026  1.00  0.00     0.038 A 
BRANCH   6   9
HETATM    9  C   UNL     1       7.288  22.997  54.229  1.00  0.00     0.198 A 
HETATM   10  N   UNL     1       7.608  22.578  52.955  1.00  0.00    -0.136 NA
HETATM   11  N   UNL     1       8.211  21.404  53.075  1.00  0.00     0.024 NA
HETATM   12  N   UNL     1       8.228  21.167  54.394  1.00  0.00    -0.196 N 
HETATM   13  C   UNL     1       8.836  19.989  54.950  1.00  0.00     0.200 C 
HETATM   14  N   UNL     1       7.672  22.114  55.170  1.00  0.00    -0.137 NA
ENDBRANCH   6   9
ENDBRANCH   2   3
ENDBRANCH   1   2
BRANCH   1  15
HETATM   15  C   UNL     1       5.728  29.615  56.667  1.00  0.00     0.246 C 
HETATM   16  N   UNL     1       6.519  29.405  57.779  1.00  0.00    -0.324 N 
HETATM   17  H   UNL     1       6.309  28.568  58.313  1.00  0.00     0.169 HD
HETATM   18  O   UNL     1       5.775  30.579  55.906  1.00  0.00    -0.271 OA
BRANCH  16  19
HETATM   19  C   UNL     1       7.554  30.217  58.282  1.00  0.00     0.047 A 
HETATM   20  C   UNL     1       8.861  30.045  57.754  1.00  0.00     0.019 A 
HETATM   21  C   UNL     1       9.900  30.845  58.236  1.00  0.00     0.044 A 
HETATM   22  C   UNL     1       9.440  29.176  56.777  1.00  0.00     0.033 A 
HETATM   23  N   UNL     1      11.049  30.474  57.572  1.00  0.00    -0.365 N 
HETATM   24  C   UNL     1       9.712  31.820  59.220  1.00  0.00     0.030 A 
HETATM   25  H   UNL     1      11.957  30.891  57.726  1.00  0.00     0.165 HD
HETATM   26  C   UNL     1      10.782  29.463  56.691  1.00  0.00     0.089 A 
HETATM   27  C   UNL     1       8.424  31.977  59.729  1.00  0.00     0.005 A 
HETATM   28  C   UNL     1       7.365  31.190  59.273  1.00  0.00     0.030 A 
ENDBRANCH  16  19
ENDBRANCH   1  15
TORSDOF 5
ENDMDL
MODEL 5
REMARK VINA RESULT:      -9.1      3.780      6.051
REMARK  5 active torsions:
REMARK  status: ('A' for Active; 'I' for Inactive)
REMARK    1  A    between atoms: C_5  and  C_6 
REMARK    2  A    between atoms: C_9  and  O_10 
REMARK    3  A    between atoms: O_10  and  C_11 
REMARK    4  A    between atoms: C_11  and  C_12 
REMARK       I    between atoms: C_12  and  N_13 
REMARK    5  A    between atoms: N_13  and  C_14 
ROOT
HETATM    1  C   UNL     1       8.732  30.599  58.297  1.00  0.00     0.278 C 
ENDROOT
BRANCH   1   2
HETATM    2  O   UNL     1       9.417  30.605  59.547  1.00  0.00    -0.342 OA
BRANCH   2   3
HETATM    3  C   UNL     1       8.741  31.142  60.607  1.00  0.00     0.069 A 
HETATM    4  C   UNL     1       7.441  31.570  60.334  1.00  0.00     0.038 A 
HETATM    5  C   UNL     1       6.642  32.099  61.350  1.00  0.00     0.018 A 
HETATM    6  C   UNL     1       7.125  32.186  62.663  1.00  0.00     0.015 A 
HETATM    7  C   UNL     1       8.426  31.733  62.931  1.00  0.00     0.018 A 
HETATM    8  C   UNL     1       9.231  31.211  61.910  1.00  0.00     0.038 A 
BRANCH   6   9
HETATM    9  C   UNL     1       6.285  32.725  63.724  1.00  0.00     0.198 A 
HETATM   10  N   UNL     1       4.939  32.442  63.828  1.00  0.00    -0.136 NA
HETATM   11  N   UNL     1       4.494  33.078  64.902  1.00  0.00     0.024 NA
HETATM   12  N   UNL     1       5.570  33.708  65.392  1.00  0.00    -0.196 N 
HETATM   13  C   UNL     1       5.512  34.495  66.593  1.00  0.00     0.200 C 
HETATM   14  N   UNL     1       6.716  33.534  64.710  1.00  0.00    -0.137 NA
ENDBRANCH   6   9
ENDBRANCH   2   3
ENDBRANCH   1   2
BRANCH   1  15
HETATM   15  C   UNL     1       8.689  29.237  57.593  1.00  0.00     0.246 C 
HETATM   16  N   UNL     1       7.454  28.624  57.672  1.00  0.00    -0.324 N 
HETATM   17  H   UNL     1       6.749  29.130  58.198  1.00  0.00     0.169 HD
HETATM   18  O   UNL     1       9.696  28.789  57.049  1.00  0.00    -0.271 OA
BRANCH  16  19
HETATM   19  C   UNL     1       7.060  27.379  57.145  1.00  0.00     0.047 A 
HETATM   20  C   UNL     1       6.169  27.368  56.039  1.00  0.00     0.019 A 
HETATM   21  C   UNL     1       5.771  26.143  55.498  1.00  0.00     0.044 A 
HETATM   22  C   UNL     1       5.505  28.381  55.279  1.00  0.00     0.033 A 
HETATM   23  N   UNL     1       4.911  26.411  54.456  1.00  0.00    -0.365 N 
HETATM   24  C   UNL     1       6.217  24.915  55.995  1.00  0.00     0.030 A 
HETATM   25  H   UNL     1       4.468  25.705  53.885  1.00  0.00     0.165 HD
HETATM   26  C   UNL     1       4.740  27.761  54.318  1.00  0.00     0.089 A 
HETATM   27  C   UNL     1       7.092  24.941  57.081  1.00  0.00     0.005 A 
HETATM   28  C   UNL     1       7.504  26.148  57.648  1.00  0.00     0.030 A 
ENDBRANCH  16  19
ENDBRANCH   1  15
TORSDOF 5
ENDMDL
MODEL 6
REMARK VINA RESULT:      -8.8      3.523      5.614
REMARK  5 active torsions:
REMARK  status: ('A' for Active; 'I' for Inactive)
REMARK    1  A    between atoms: C_5  and  C_6 
REMARK    2  A    between atoms: C_9  and  O_10 
REMARK    3  A    between atoms: O_10  and  C_11 
REMARK    4  A    between atoms: C_11  and  C_12 
REMARK       I    between atoms: C_12  and  N_13 
REMARK    5  A    between atoms: N_13  and  C_14 
ROOT
HETATM    1  C   UNL     1       8.433  30.730  58.276  1.00  0.00     0.278 C 
ENDROOT
BRANCH   1   2
HETATM    2  O   UNL     1       9.198  30.755  59.478  1.00  0.00    -0.342 OA
BRANCH   2   3
HETATM    3  C   UNL     1       8.585  31.290  60.577  1.00  0.00     0.069 A 
HETATM    4  C   UNL     1       7.221  31.548  60.436  1.00  0.00     0.038 A 
HETATM    5  C   UNL     1       6.484  32.058  61.507  1.00  0.00     0.018 A 
HETATM    6  C   UNL     1       7.096  32.297  62.745  1.00  0.00     0.015 A 
HETATM    7  C   UNL     1       8.464  32.014  62.881  1.00  0.00     0.018 A 
HETATM    8  C   UNL     1       9.206  31.511  61.805  1.00  0.00     0.038 A 
BRANCH   6   9
HETATM    9  C   UNL     1       6.322  32.816  63.864  1.00  0.00     0.198 A 
HETATM   10  N   UNL     1       4.960  32.633  63.978  1.00  0.00    -0.136 NA
HETATM   11  N   UNL     1       4.586  33.217  65.108  1.00  0.00     0.024 NA
HETATM   12  N   UNL     1       5.718  33.719  65.619  1.00  0.00    -0.196 N 
HETATM   13  C   UNL     1       5.746  34.412  66.878  1.00  0.00     0.200 C 
HETATM   14  N   UNL     1       6.834  33.508  64.898  1.00  0.00    -0.137 NA
ENDBRANCH   6   9
ENDBRANCH   2   3
ENDBRANCH   1   2
BRANCH   1  15
HETATM   15  C   UNL     1       8.765  29.573  57.326  1.00  0.00     0.246 C 
HETATM   16  N   UNL     1       7.650  29.046  56.705  1.00  0.00    -0.324 N 
HETATM   17  H   UNL     1       6.764  29.463  56.969  1.00  0.00     0.169 HD
HETATM   18  O   UNL     1       9.926  29.195  57.192  1.00  0.00    -0.271 OA
BRANCH  16  19
HETATM   19  C   UNL     1       7.584  27.986  55.780  1.00  0.00     0.047 A 
HETATM   20  C   UNL     1       7.664  26.656  56.273  1.00  0.00     0.019 A 
HETATM   21  C   UNL     1       7.594  25.591  55.371  1.00  0.00     0.044 A 
HETATM   22  C   UNL     1       7.825  26.078  57.570  1.00  0.00     0.033 A 
HETATM   23  N   UNL     1       7.703  24.426  56.099  1.00  0.00    -0.365 N 
HETATM   24  C   UNL     1       7.443  25.773  53.994  1.00  0.00     0.030 A 
HETATM   25  H   UNL     1       7.685  23.499  55.698  1.00  0.00     0.165 HD
HETATM   26  C   UNL     1       7.847  24.710  57.429  1.00  0.00     0.089 A 
HETATM   27  C   UNL     1       7.366  27.084  53.524  1.00  0.00     0.005 A 
HETATM   28  C   UNL     1       7.438  28.170  54.397  1.00  0.00     0.030 A 
ENDBRANCH  16  19
ENDBRANCH   1  15
TORSDOF 5
ENDMDL
MODEL 7
REMARK VINA RESULT:      -8.8      2.521     10.515
REMARK  5 active torsions:
REMARK  status: ('A' for Active; 'I' for Inactive)
REMARK    1  A    between atoms: C_5  and  C_6 
REMARK    2  A    between atoms: C_9  and  O_10 
REMARK    3  A    between atoms: O_10  and  C_11 
REMARK    4  A    between atoms: C_11  and  C_12 
REMARK       I    between atoms: C_12  and  N_13 
REMARK    5  A    between atoms: N_13  and  C_14 
ROOT
HETATM    1  C   UNL     1       7.710  29.817  57.959  1.00  0.00     0.278 C 
ENDROOT
BRANCH   1   2
HETATM    2  O   UNL     1       7.792  28.501  58.498  1.00  0.00    -0.342 OA
BRANCH   2   3
HETATM    3  C   UNL     1       7.734  27.472  57.599  1.00  0.00     0.069 A 
HETATM    4  C   UNL     1       7.762  27.848  56.256  1.00  0.00     0.038 A 
HETATM    5  C   UNL     1       7.746  26.879  55.250  1.00  0.00     0.018 A 
HETATM    6  C   UNL     1       7.727  25.516  55.574  1.00  0.00     0.015 A 
HETATM    7  C   UNL     1       7.720  25.149  56.928  1.00  0.00     0.018 A 
HETATM    8  C   UNL     1       7.726  26.120  57.938  1.00  0.00     0.038 A 
BRANCH   6   9
HETATM    9  C   UNL     1       7.725  24.507  54.523  1.00  0.00     0.198 A 
HETATM   10  N   UNL     1       7.665  24.825  53.183  1.00  0.00    -0.136 NA
HETATM   11  N   UNL     1       7.696  23.681  52.514  1.00  0.00     0.024 NA
HETATM   12  N   UNL     1       7.770  22.737  53.462  1.00  0.00    -0.196 N 
HETATM   13  C   UNL     1       7.858  21.339  53.142  1.00  0.00     0.200 C 
HETATM   14  N   UNL     1       7.792  23.179  54.732  1.00  0.00    -0.137 NA
ENDBRANCH   6   9
ENDBRANCH   2   3
ENDBRANCH   1   2
BRANCH   1  15
HETATM   15  C   UNL     1       7.994  30.943  58.961  1.00  0.00     0.246 C 
HETATM   16  N   UNL     1       7.263  30.828  60.127  1.00  0.00    -0.324 N 
HETATM   17  H   UNL     1       6.621  30.042  60.164  1.00  0.00     0.169 HD
HETATM   18  O   UNL     1       8.791  31.835  58.682  1.00  0.00    -0.271 OA
BRANCH  16  19
HETATM   19  C   UNL     1       7.271  31.675  61.252  1.00  0.00     0.047 A 
HETATM   20  C   UNL     1       6.320  32.728  61.307  1.00  0.00     0.019 A 
HETATM   21  C   UNL     1       6.308  33.576  62.418  1.00  0.00     0.044 A 
HETATM   22  C   UNL     1       5.287  33.192  60.434  1.00  0.00     0.033 A 
HETATM   23  N   UNL     1       5.309  34.503  62.219  1.00  0.00    -0.365 N 
HETATM   24  C   UNL     1       7.194  33.434  63.489  1.00  0.00     0.030 A 
HETATM   25  H   UNL     1       5.078  35.243  62.869  1.00  0.00     0.165 HD
HETATM   26  C   UNL     1       4.688  34.282  61.020  1.00  0.00     0.089 A 
HETATM   27  C   UNL     1       8.123  32.395  63.421  1.00  0.00     0.005 A 
HETATM   28  C   UNL     1       8.164  31.534  62.323  1.00  0.00     0.030 A 
ENDBRANCH  16  19
ENDBRANCH   1  15
TORSDOF 5
ENDMDL
MODEL 8
REMARK VINA RESULT:      -8.8      5.821      9.551
REMARK  5 active torsions:
REMARK  status: ('A' for Active; 'I' for Inactive)
REMARK    1  A    between atoms: C_5  and  C_6 
REMARK    2  A    between atoms: C_9  and  O_10 
REMARK    3  A    between atoms: O_10  and  C_11 
REMARK    4  A    between atoms: C_11  and  C_12 
REMARK       I    between atoms: C_12  and  N_13 
REMARK    5  A    between atoms: N_13  and  C_14 
ROOT
HETATM    1  C   UNL     1       5.624  28.397  51.733  1.00  0.00     0.278 C 
ENDROOT
BRANCH   1   2
HETATM    2  O   UNL     1       4.986  27.417  52.546  1.00  0.00    -0.342 OA
BRANCH   2   3
HETATM    3  C   UNL     1       5.708  26.288  52.816  1.00  0.00     0.069 A 
HETATM    4  C   UNL     1       5.384  25.639  54.008  1.00  0.00     0.038 A 
HETATM    5  C   UNL     1       6.030  24.454  54.367  1.00  0.00     0.018 A 
HETATM    6  C   UNL     1       6.995  23.886  53.524  1.00  0.00     0.015 A 
HETATM    7  C   UNL     1       7.298  24.535  52.318  1.00  0.00     0.018 A 
HETATM    8  C   UNL     1       6.657  25.729  51.962  1.00  0.00     0.038 A 
BRANCH   6   9
HETATM    9  C   UNL     1       7.657  22.642  53.894  1.00  0.00     0.198 A 
HETATM   10  N   UNL     1       7.850  21.605  53.006  1.00  0.00    -0.136 NA
HETATM   11  N   UNL     1       8.487  20.647  53.664  1.00  0.00     0.024 NA
HETATM   12  N   UNL     1       8.647  21.136  54.901  1.00  0.00    -0.196 N 
HETATM   13  C   UNL     1       9.335  20.404  55.929  1.00  0.00     0.200 C 
HETATM   14  N   UNL     1       8.156  22.370  55.115  1.00  0.00    -0.137 NA
ENDBRANCH   6   9
ENDBRANCH   2   3
ENDBRANCH   1   2
BRANCH   1  15
HETATM   15  C   UNL     1       4.999  28.589  50.346  1.00  0.00     0.246 C 
HETATM   16  N   UNL     1       3.688  28.160  50.278  1.00  0.00    -0.324 N 
HETATM   17  H   UNL     1       3.317  27.755  51.131  1.00  0.00     0.169 HD
HETATM   18  O   UNL     1       5.662  29.066  49.428  1.00  0.00    -0.271 OA
BRANCH  16  19
HETATM   19  C   UNL     1       2.816  28.184  49.172  1.00  0.00     0.047 A 
HETATM   20  C   UNL     1       2.795  27.057  48.308  1.00  0.00     0.019 A 
HETATM   21  C   UNL     1       1.932  27.059  47.208  1.00  0.00     0.044 A 
HETATM   22  C   UNL     1       3.503  25.816  48.263  1.00  0.00     0.033 A 
HETATM   23  N   UNL     1       2.113  25.869  46.539  1.00  0.00    -0.365 N 
HETATM   24  C   UNL     1       1.077  28.127  46.918  1.00  0.00     0.030 A 
HETATM   25  H   UNL     1       1.615  25.604  45.700  1.00  0.00     0.165 HD
HETATM   26  C   UNL     1       3.064  25.112  47.166  1.00  0.00     0.089 A 
HETATM   27  C   UNL     1       1.109  29.226  47.776  1.00  0.00     0.005 A 
HETATM   28  C   UNL     1       1.963  29.257  48.880  1.00  0.00     0.030 A 
ENDBRANCH  16  19
ENDBRANCH   1  15
TORSDOF 5
ENDMDL
MODEL 9
REMARK VINA RESULT:      -8.7      7.194     13.156
REMARK  5 active torsions:
REMARK  status: ('A' for Active; 'I' for Inactive)
REMARK    1  A    between atoms: C_5  and  C_6 
REMARK    2  A    between atoms: C_9  and  O_10 
REMARK    3  A    between atoms: O_10  and  C_11 
REMARK    4  A    between atoms: C_11  and  C_12 
REMARK       I    between atoms: C_12  and  N_13 
REMARK    5  A    between atoms: N_13  and  C_14 
ROOT
HETATM    1  C   UNL     1       5.353  34.364  65.711  1.00  0.00     0.278 C 
ENDROOT
BRANCH   1   2
HETATM    2  O   UNL     1       5.060  33.121  65.079  1.00  0.00    -0.342 OA
BRANCH   2   3
HETATM    3  C   UNL     1       5.726  32.861  63.914  1.00  0.00     0.069 A 
HETATM    4  C   UNL     1       7.117  32.817  64.016  1.00  0.00     0.038 A 
HETATM    5  C   UNL     1       7.899  32.520  62.897  1.00  0.00     0.018 A 
HETATM    6  C   UNL     1       7.298  32.240  61.662  1.00  0.00     0.015 A 
HETATM    7  C   UNL     1       5.898  32.267  61.576  1.00  0.00     0.018 A 
HETATM    8  C   UNL     1       5.114  32.573  62.695  1.00  0.00     0.038 A 
BRANCH   6   9
HETATM    9  C   UNL     1       8.116  31.917  60.500  1.00  0.00     0.198 A 
HETATM   10  N   UNL     1       9.062  32.780  59.989  1.00  0.00    -0.136 NA
HETATM   11  N   UNL     1       9.621  32.169  58.954  1.00  0.00     0.024 NA
HETATM   12  N   UNL     1       8.999  30.985  58.884  1.00  0.00    -0.196 N 
HETATM   13  C   UNL     1       9.346  29.997  57.899  1.00  0.00     0.200 C 
HETATM   14  N   UNL     1       8.053  30.761  59.813  1.00  0.00    -0.137 NA
ENDBRANCH   6   9
ENDBRANCH   2   3
ENDBRANCH   1   2
BRANCH   1  15
HETATM   15  C   UNL     1       4.824  35.601  64.975  1.00  0.00     0.246 C 
HETATM   16  N   UNL     1       5.794  36.248  64.236  1.00  0.00    -0.324 N 
HETATM   17  H   UNL     1       6.725  35.848  64.291  1.00  0.00     0.169 HD
HETATM   18  O   UNL     1       3.647  35.935  65.090  1.00  0.00    -0.271 OA
BRANCH  16  19
HETATM   19  C   UNL     1       5.664  37.406  63.444  1.00  0.00     0.047 A 
HETATM   20  C   UNL     1       5.099  37.275  62.148  1.00  0.00     0.019 A 
HETATM   21  C   UNL     1       4.956  38.413  61.350  1.00  0.00     0.044 A 
HETATM   22  C   UNL     1       4.607  36.176  61.377  1.00  0.00     0.033 A 
HETATM   23  N   UNL     1       4.398  38.012  60.156  1.00  0.00    -0.365 N 
HETATM   24  C   UNL     1       5.343  39.688  61.772  1.00  0.00     0.030 A 
HETATM   25  H   UNL     1       4.184  38.634  59.388  1.00  0.00     0.165 HD
HETATM   26  C   UNL     1       4.187  36.661  60.161  1.00  0.00     0.089 A 
HETATM   27  C   UNL     1       5.896  39.801  63.047  1.00  0.00     0.005 A 
HETATM   28  C   UNL     1       6.058  38.683  63.868  1.00  0.00     0.030 A 
ENDBRANCH  16  19
ENDBRANCH   1  15
TORSDOF 5
ENDMDL
MODEL 10
REMARK VINA RESULT:      -8.6      6.891     10.011
REMARK  5 active torsions:
REMARK  status: ('A' for Active; 'I' for Inactive)
REMARK    1  A    between atoms: C_5  and  C_6 
REMARK    2  A    between atoms: C_9  and  O_10 
REMARK    3  A    between atoms: O_10  and  C_11 
REMARK    4  A    between atoms: C_11  and  C_12 
REMARK       I    between atoms: C_12  and  N_13 
REMARK    5  A    between atoms: N_13  and  C_14 
ROOT
HETATM    1  C   UNL     1       5.025  25.817  51.278  1.00  0.00     0.278 C 
ENDROOT
BRANCH   1   2
HETATM    2  O   UNL     1       5.316  26.318  49.976  1.00  0.00    -0.342 OA
BRANCH   2   3
HETATM    3  C   UNL     1       4.245  26.713  49.225  1.00  0.00     0.069 A 
HETATM    4  C   UNL     1       3.945  25.897  48.134  1.00  0.00     0.038 A 
HETATM    5  C   UNL     1       2.847  26.182  47.318  1.00  0.00     0.018 A 
HETATM    6  C   UNL     1       2.017  27.277  47.596  1.00  0.00     0.015 A 
HETATM    7  C   UNL     1       2.317  28.078  48.709  1.00  0.00     0.018 A 
HETATM    8  C   UNL     1       3.422  27.798  49.522  1.00  0.00     0.038 A 
BRANCH   6   9
HETATM    9  C   UNL     1       0.865  27.563  46.753  1.00  0.00     0.198 A 
HETATM   10  N   UNL     1       0.424  26.700  45.772  1.00  0.00    -0.136 NA
HETATM   11  N   UNL     1      -0.639  27.262  45.214  1.00  0.00     0.024 NA
HETATM   12  N   UNL     1      -0.791  28.421  45.869  1.00  0.00    -0.196 N 
HETATM   13  C   UNL     1      -1.871  29.324  45.580  1.00  0.00     0.200 C 
HETATM   14  N   UNL     1       0.108  28.673  46.836  1.00  0.00    -0.137 NA
ENDBRANCH   6   9
ENDBRANCH   2   3
ENDBRANCH   1   2
BRANCH   1  15
HETATM   15  C   UNL     1       6.256  25.454  52.118  1.00  0.00     0.246 C 
HETATM   16  N   UNL     1       6.166  24.206  52.702  1.00  0.00    -0.324 N 
HETATM   17  H   UNL     1       5.302  23.704  52.526  1.00  0.00     0.169 HD
HETATM   18  O   UNL     1       7.185  26.250  52.232  1.00  0.00    -0.271 OA
BRANCH  16  19
HETATM   19  C   UNL     1       7.102  23.558  53.530  1.00  0.00     0.047 A 
HETATM   20  C   UNL     1       7.167  23.938  54.897  1.00  0.00     0.019 A 
HETATM   21  C   UNL     1       8.085  23.302  55.737  1.00  0.00     0.044 A 
HETATM   22  C   UNL     1       6.480  24.899  55.703  1.00  0.00     0.033 A 
HETATM   23  N   UNL     1       7.950  23.855  56.991  1.00  0.00    -0.365 N 
HETATM   24  C   UNL     1       8.949  22.297  55.292  1.00  0.00     0.030 A 
HETATM   25  H   UNL     1       8.495  23.583  57.798  1.00  0.00     0.165 HD
HETATM   26  C   UNL     1       6.985  24.825  56.980  1.00  0.00     0.089 A 
HETATM   27  C   UNL     1       8.874  21.935  53.947  1.00  0.00     0.005 A 
HETATM   28  C   UNL     1       7.971  22.554  53.081  1.00  0.00     0.030 A 
ENDBRANCH  16  19
ENDBRANCH   1  15
TORSDOF 5
ENDMDL
