MODEL 1
REMARK VINA RESULT:     -10.3      0.000      0.000
REMARK  6 active torsions:
REMARK  status: ('A' for Active; 'I' for Inactive)
REMARK    1  A    between atoms: C_4  and  C_5 
REMARK    2  A    between atoms: C_5  and  C_6 
REMARK    3  A    between atoms: C_10  and  C_11 
REMARK    4  A    between atoms: C_10  and  C_15 
REMARK    5  A    between atoms: N_19  and  C_20 
REMARK    6  A    between atoms: C_20  and  C_21 
ROOT
HETATM    1  C   UNL     1       7.999  25.016  55.899  1.00  0.00     0.084 C 
HETATM    2  N   UNL     1       7.914  26.225  56.411  1.00  0.00    -0.331 N 
HETATM    3  C   UNL     1       7.147  27.224  55.855  1.00  0.00     0.128 C 
HETATM    4  C   UNL     1       6.544  27.002  54.679  1.00  0.00     0.100 C 
HETATM    5  C   UNL     1       6.660  25.719  53.891  1.00  0.00     0.264 C 
HETATM    6  N   UNL     1       7.014  28.431  56.525  1.00  0.00    -0.278 N 
HETATM    7  C   UNL     1       6.322  29.499  55.973  1.00  0.00     0.331 C 
HETATM    8  O   UNL     1       6.176  30.587  56.519  1.00  0.00    -0.246 OA
HETATM    9  N   UNL     1       5.765  29.275  54.750  1.00  0.00    -0.275 N 
HETATM   10  C   UNL     1       5.742  28.087  54.104  1.00  0.00     0.262 C 
HETATM   11  O   UNL     1       5.092  27.893  53.091  1.00  0.00    -0.267 OA
HETATM   12  N   UNL     1       7.398  24.696  54.774  1.00  0.00    -0.351 N 
HETATM   13  H   UNL     1       7.475  23.736  54.425  1.00  0.00     0.162 HD
HETATM   14  H   UNL     1       8.478  26.421  57.240  1.00  0.00     0.168 HD
HETATM   15  H   UNL     1       5.211  30.033  54.366  1.00  0.00     0.173 HD
ENDROOT
BRANCH   5  16
HETATM   16  C   UNL     1       7.490  25.889  52.614  1.00  0.00     0.426 C 
HETATM   17  F   UNL     1       8.401  26.881  52.809  1.00  0.00    -0.168 F 
HETATM   18  F   UNL     1       8.206  24.768  52.366  1.00  0.00    -0.168 F 
HETATM   19  F   UNL     1       6.794  26.200  51.514  1.00  0.00    -0.168 F 
ENDBRANCH   5  16
BRANCH   5  20
HETATM   20  C   UNL     1       5.344  25.063  53.457  1.00  0.00     0.426 C 
HETATM   21  F   UNL     1       4.470  25.052  54.494  1.00  0.00    -0.168 F 
HETATM   22  F   UNL     1       4.739  25.594  52.391  1.00  0.00    -0.168 F 
HETATM   23  F   UNL     1       5.590  23.754  53.164  1.00  0.00    -0.168 F 
ENDBRANCH   5  20
BRANCH   1  24
HETATM   24  C   UNL     1       8.786  23.973  56.624  1.00  0.00     0.114 C 
BRANCH  24  25
HETATM   25  C   UNL     1       8.760  22.597  56.001  1.00  0.00    -0.051 A 
HETATM   26  C   UNL     1       8.246  21.523  56.745  1.00  0.00     0.007 A 
HETATM   27  C   UNL     1       8.138  20.250  56.181  1.00  0.00     0.001 A 
HETATM   28  C   UNL     1       8.533  20.037  54.864  1.00  0.00     0.000 A 
HETATM   29  C   UNL     1       9.034  21.093  54.111  1.00  0.00     0.001 A 
HETATM   30  C   UNL     1       9.141  22.369  54.670  1.00  0.00     0.007 A 
ENDBRANCH  24  25
ENDBRANCH   1  24
BRANCH   6  31
HETATM   31  C   UNL     1       7.575  28.651  57.862  1.00  0.00     0.200 C 
BRANCH  31  32
HETATM   32  C   UNL     1       8.858  29.391  57.752  1.00  0.00     0.070 A 
HETATM   33  O   UNL     1       9.841  28.790  57.013  1.00  0.00    -0.325 OA
HETATM   34  C   UNL     1      10.912  29.628  57.033  1.00  0.00     0.142 A 
HETATM   35  C   UNL     1      10.628  30.755  57.768  1.00  0.00     0.027 A 
HETATM   36  C   UNL     1       9.300  30.604  58.234  1.00  0.00     0.036 A 
ENDBRANCH  31  32
ENDBRANCH   6  31
TORSDOF 6
ENDMDL
MODEL 2
REMARK VINA RESULT:      -9.5      2.841      5.232
REMARK  6 active torsions:
REMARK  status: ('A' for Active; 'I' for Inactive)
REMARK    1  A    between atoms: C_4  and  C_5 
REMARK    2  A    between atoms: C_5  and  C_6 
REMARK    3  A    between atoms: C_10  and  C_11 
REMARK    4  A    between atoms: C_10  and  C_15 
REMARK    5  A    between atoms: N_19  and  C_20 
REMARK    6  A    between atoms: C_20  and  C_21 
ROOT
HETATM    1  C   UNL     1       7.144  25.371  53.665  1.00  0.00     0.084 C 
HETATM    2  N   UNL     1       6.199  25.916  52.929  1.00  0.00    -0.331 N 
HETATM    3  C   UNL     1       5.367  26.910  53.389  1.00  0.00     0.128 C 
HETATM    4  C   UNL     1       5.438  27.271  54.679  1.00  0.00     0.100 C 
HETATM    5  C   UNL     1       6.367  26.643  55.690  1.00  0.00     0.264 C 
HETATM    6  N   UNL     1       4.481  27.515  52.512  1.00  0.00    -0.278 N 
HETATM    7  C   UNL     1       3.564  28.464  52.940  1.00  0.00     0.331 C 
HETATM    8  O   UNL     1       2.757  29.028  52.208  1.00  0.00    -0.246 OA
HETATM    9  N   UNL     1       3.610  28.777  54.265  1.00  0.00    -0.275 N 
HETATM   10  C   UNL     1       4.532  28.326  55.145  1.00  0.00     0.262 C 
HETATM   11  O   UNL     1       4.634  28.757  56.281  1.00  0.00    -0.267 OA
HETATM   12  N   UNL     1       7.318  25.703  54.926  1.00  0.00    -0.351 N 
HETATM   13  H   UNL     1       8.081  25.268  55.453  1.00  0.00     0.162 HD
HETATM   14  H   UNL     1       6.073  25.545  51.985  1.00  0.00     0.168 HD
HETATM   15  H   UNL     1       2.979  29.509  54.573  1.00  0.00     0.173 HD
ENDROOT
BRANCH   5  16
HETATM   16  C   UNL     1       5.621  25.786  56.717  1.00  0.00     0.426 C 
HETATM   17  F   UNL     1       5.011  24.755  56.073  1.00  0.00    -0.168 F 
HETATM   18  F   UNL     1       6.496  25.222  57.583  1.00  0.00    -0.168 F 
HETATM   19  F   UNL     1       4.681  26.425  57.423  1.00  0.00    -0.168 F 
ENDBRANCH   5  16
BRANCH   5  20
HETATM   20  C   UNL     1       7.248  27.604  56.497  1.00  0.00     0.426 C 
HETATM   21  F   UNL     1       7.557  28.689  55.745  1.00  0.00    -0.168 F 
HETATM   22  F   UNL     1       6.755  28.019  57.667  1.00  0.00    -0.168 F 
HETATM   23  F   UNL     1       8.433  26.984  56.762  1.00  0.00    -0.168 F 
ENDBRANCH   5  20
BRANCH   1  24
HETATM   24  C   UNL     1       8.056  24.361  53.048  1.00  0.00     0.114 C 
BRANCH  24  25
HETATM   25  C   UNL     1       7.986  22.977  53.650  1.00  0.00    -0.051 A 
HETATM   26  C   UNL     1       8.076  21.861  52.801  1.00  0.00     0.007 A 
HETATM   27  C   UNL     1       8.086  20.567  53.324  1.00  0.00     0.001 A 
HETATM   28  C   UNL     1       8.017  20.370  54.700  1.00  0.00     0.000 A 
HETATM   29  C   UNL     1       7.938  21.466  55.553  1.00  0.00     0.001 A 
HETATM   30  C   UNL     1       7.930  22.763  55.035  1.00  0.00     0.007 A 
ENDBRANCH  24  25
ENDBRANCH   1  24
BRANCH   6  31
HETATM   31  C   UNL     1       4.468  27.211  51.077  1.00  0.00     0.200 C 
BRANCH  31  32
HETATM   32  C   UNL     1       4.935  28.393  50.309  1.00  0.00     0.070 A 
HETATM   33  O   UNL     1       4.436  28.527  49.041  1.00  0.00    -0.325 OA
HETATM   34  C   UNL     1       4.978  29.663  48.526  1.00  0.00     0.142 A 
HETATM   35  C   UNL     1       5.809  30.259  49.445  1.00  0.00     0.027 A 
HETATM   36  C   UNL     1       5.783  29.441  50.598  1.00  0.00     0.036 A 
ENDBRANCH  31  32
ENDBRANCH   6  31
TORSDOF 6
ENDMDL
MODEL 3
REMARK VINA RESULT:      -9.1      2.909      6.710
REMARK  6 active torsions:
REMARK  status: ('A' for Active; 'I' for Inactive)
REMARK    1  A    between atoms: C_4  and  C_5 
REMARK    2  A    between atoms: C_5  and  C_6 
REMARK    3  A    between atoms: C_10  and  C_11 
REMARK    4  A    between atoms: C_10  and  C_15 
REMARK    5  A    between atoms: N_19  and  C_20 
REMARK    6  A    between atoms: C_20  and  C_21 
ROOT
HETATM    1  C   UNL     1       7.855  28.828  55.269  1.00  0.00     0.084 C 
HETATM    2  N   UNL     1       7.707  27.787  54.478  1.00  0.00    -0.331 N 
HETATM    3  C   UNL     1       6.504  27.446  53.903  1.00  0.00     0.128 C 
HETATM    4  C   UNL     1       5.403  28.131  54.245  1.00  0.00     0.100 C 
HETATM    5  C   UNL     1       5.379  29.259  55.248  1.00  0.00     0.264 C 
HETATM    6  N   UNL     1       6.460  26.409  52.985  1.00  0.00    -0.278 N 
HETATM    7  C   UNL     1       5.263  25.969  52.437  1.00  0.00     0.331 C 
HETATM    8  O   UNL     1       5.167  25.057  51.624  1.00  0.00    -0.246 OA
HETATM    9  N   UNL     1       4.147  26.638  52.840  1.00  0.00    -0.275 N 
HETATM   10  C   UNL     1       4.133  27.739  53.625  1.00  0.00     0.262 C 
HETATM   11  O   UNL     1       3.128  28.400  53.826  1.00  0.00    -0.267 OA
HETATM   12  N   UNL     1       6.837  29.586  55.616  1.00  0.00    -0.351 N 
HETATM   13  H   UNL     1       7.005  30.399  56.216  1.00  0.00     0.162 HD
HETATM   14  H   UNL     1       8.528  27.199  54.324  1.00  0.00     0.168 HD
HETATM   15  H   UNL     1       3.276  26.358  52.402  1.00  0.00     0.173 HD
ENDROOT
BRANCH   5  16
HETATM   16  C   UNL     1       4.665  28.871  56.547  1.00  0.00     0.426 C 
HETATM   17  F   UNL     1       5.013  27.598  56.878  1.00  0.00    -0.168 F 
HETATM   18  F   UNL     1       5.091  29.652  57.568  1.00  0.00    -0.168 F 
HETATM   19  F   UNL     1       3.329  28.919  56.505  1.00  0.00    -0.168 F 
ENDBRANCH   5  16
BRANCH   5  20
HETATM   20  C   UNL     1       4.734  30.570  54.785  1.00  0.00     0.426 C 
HETATM   21  F   UNL     1       4.910  30.726  53.450  1.00  0.00    -0.168 F 
HETATM   22  F   UNL     1       3.438  30.727  55.068  1.00  0.00    -0.168 F 
HETATM   23  F   UNL     1       5.396  31.608  55.371  1.00  0.00    -0.168 F 
ENDBRANCH   5  20
BRANCH   1  24
HETATM   24  C   UNL     1       9.220  29.170  55.774  1.00  0.00     0.114 C 
BRANCH  24  25
HETATM   25  C   UNL     1       9.260  29.801  57.146  1.00  0.00    -0.051 A 
HETATM   26  C   UNL     1      10.181  30.831  57.394  1.00  0.00     0.007 A 
HETATM   27  C   UNL     1      10.202  31.489  58.626  1.00  0.00     0.001 A 
HETATM   28  C   UNL     1       9.298  31.132  59.621  1.00  0.00     0.000 A 
HETATM   29  C   UNL     1       8.372  30.120  59.386  1.00  0.00     0.001 A 
HETATM   30  C   UNL     1       8.346  29.462  58.155  1.00  0.00     0.007 A 
ENDBRANCH  24  25
ENDBRANCH   1  24
BRANCH   6  31
HETATM   31  C   UNL     1       7.670  25.724  52.518  1.00  0.00     0.200 C 
BRANCH  31  32
HETATM   32  C   UNL     1       7.855  24.460  53.275  1.00  0.00     0.070 A 
HETATM   33  O   UNL     1       8.045  24.586  54.625  1.00  0.00    -0.325 OA
HETATM   34  C   UNL     1       8.182  23.326  55.119  1.00  0.00     0.142 A 
HETATM   35  C   UNL     1       8.077  22.399  54.110  1.00  0.00     0.027 A 
HETATM   36  C   UNL     1       7.865  23.129  52.916  1.00  0.00     0.036 A 
ENDBRANCH  31  32
ENDBRANCH   6  31
TORSDOF 6
ENDMDL
MODEL 4
REMARK VINA RESULT:      -9.0      2.688      5.435
REMARK  6 active torsions:
REMARK  status: ('A' for Active; 'I' for Inactive)
REMARK    1  A    between atoms: C_4  and  C_5 
REMARK    2  A    between atoms: C_5  and  C_6 
REMARK    3  A    between atoms: C_10  and  C_11 
REMARK    4  A    between atoms: C_10  and  C_15 
REMARK    5  A    between atoms: N_19  and  C_20 
REMARK    6  A    between atoms: C_20  and  C_21 
ROOT
HETATM    1  C   UNL     1       6.112  28.112  52.662  1.00  0.00     0.084 C 
HETATM    2  N   UNL     1       6.352  28.348  53.934  1.00  0.00    -0.331 N 
HETATM    3  C   UNL     1       6.847  27.396  54.795  1.00  0.00     0.128 C 
HETATM    4  C   UNL     1       6.989  26.136  54.358  1.00  0.00     0.100 C 
HETATM    5  C   UNL     1       6.622  25.670  52.969  1.00  0.00     0.264 C 
HETATM    6  N   UNL     1       7.189  27.760  56.088  1.00  0.00    -0.278 N 
HETATM    7  C   UNL     1       7.615  26.826  57.021  1.00  0.00     0.331 C 
HETATM    8  O   UNL     1       7.926  27.092  58.176  1.00  0.00    -0.246 OA
HETATM    9  N   UNL     1       7.698  25.541  56.576  1.00  0.00    -0.275 N 
HETATM   10  C   UNL     1       7.509  25.139  55.299  1.00  0.00     0.262 C 
HETATM   11  O   UNL     1       7.753  24.008  54.914  1.00  0.00    -0.267 OA
HETATM   12  N   UNL     1       6.273  26.917  52.137  1.00  0.00    -0.351 N 
HETATM   13  H   UNL     1       6.094  26.786  51.137  1.00  0.00     0.162 HD
HETATM   14  H   UNL     1       6.122  29.280  54.286  1.00  0.00     0.168 HD
HETATM   15  H   UNL     1       8.060  24.862  57.237  1.00  0.00     0.173 HD
ENDROOT
BRANCH   5  16
HETATM   16  C   UNL     1       5.384  24.767  52.963  1.00  0.00     0.426 C 
HETATM   17  F   UNL     1       4.641  25.043  51.857  1.00  0.00    -0.168 F 
HETATM   18  F   UNL     1       5.750  23.468  52.853  1.00  0.00    -0.168 F 
HETATM   19  F   UNL     1       4.578  24.891  54.024  1.00  0.00    -0.168 F 
ENDBRANCH   5  16
BRANCH   5  20
HETATM   20  C   UNL     1       7.705  24.910  52.195  1.00  0.00     0.426 C 
HETATM   21  F   UNL     1       8.888  25.566  52.292  1.00  0.00    -0.168 F 
HETATM   22  F   UNL     1       7.894  23.632  52.538  1.00  0.00    -0.168 F 
HETATM   23  F   UNL     1       7.380  24.923  50.871  1.00  0.00    -0.168 F 
ENDBRANCH   5  20
BRANCH   1  24
HETATM   24  C   UNL     1       5.659  29.235  51.787  1.00  0.00     0.114 C 
BRANCH  24  25
HETATM   25  C   UNL     1       5.030  28.818  50.478  1.00  0.00    -0.051 A 
HETATM   26  C   UNL     1       3.662  28.500  50.452  1.00  0.00     0.007 A 
HETATM   27  C   UNL     1       3.027  28.178  49.251  1.00  0.00     0.001 A 
HETATM   28  C   UNL     1       3.747  28.180  48.060  1.00  0.00     0.000 A 
HETATM   29  C   UNL     1       5.100  28.504  48.068  1.00  0.00     0.001 A 
HETATM   30  C   UNL     1       5.739  28.829  49.267  1.00  0.00     0.007 A 
ENDBRANCH  24  25
ENDBRANCH   1  24
BRANCH   6  31
HETATM   31  C   UNL     1       7.144  29.153  56.547  1.00  0.00     0.200 C 
BRANCH  31  32
HETATM   32  C   UNL     1       8.524  29.643  56.794  1.00  0.00     0.070 A 
HETATM   33  O   UNL     1       8.721  30.332  57.961  1.00  0.00    -0.325 OA
HETATM   34  C   UNL     1      10.036  30.679  57.993  1.00  0.00     0.142 A 
HETATM   35  C   UNL     1      10.682  30.218  56.870  1.00  0.00     0.027 A 
HETATM   36  C   UNL     1       9.707  29.548  56.093  1.00  0.00     0.036 A 
ENDBRANCH  31  32
ENDBRANCH   6  31
TORSDOF 6
ENDMDL
MODEL 5
REMARK VINA RESULT:      -8.9      2.791      5.813
REMARK  6 active torsions:
REMARK  status: ('A' for Active; 'I' for Inactive)
REMARK    1  A    between atoms: C_4  and  C_5 
REMARK    2  A    between atoms: C_5  and  C_6 
REMARK    3  A    between atoms: C_10  and  C_11 
REMARK    4  A    between atoms: C_10  and  C_15 
REMARK    5  A    between atoms: N_19  and  C_20 
REMARK    6  A    between atoms: C_20  and  C_21 
ROOT
HETATM    1  C   UNL     1       5.948  28.218  52.514  1.00  0.00     0.084 C 
HETATM    2  N   UNL     1       6.211  28.606  53.744  1.00  0.00    -0.331 N 
HETATM    3  C   UNL     1       6.790  27.783  54.683  1.00  0.00     0.128 C 
HETATM    4  C   UNL     1       6.997  26.494  54.379  1.00  0.00     0.100 C 
HETATM    5  C   UNL     1       6.617  25.858  53.063  1.00  0.00     0.264 C 
HETATM    6  N   UNL     1       7.148  28.306  55.916  1.00  0.00    -0.278 N 
HETATM    7  C   UNL     1       7.660  27.506  56.928  1.00  0.00     0.331 C 
HETATM    8  O   UNL     1       7.989  27.915  58.035  1.00  0.00    -0.246 OA
HETATM    9  N   UNL     1       7.808  26.187  56.621  1.00  0.00    -0.275 N 
HETATM   10  C   UNL     1       7.606  25.638  55.401  1.00  0.00     0.262 C 
HETATM   11  O   UNL     1       7.907  24.487  55.131  1.00  0.00    -0.267 OA
HETATM   12  N   UNL     1       6.166  26.984  52.115  1.00  0.00    -0.351 N 
HETATM   13  H   UNL     1       5.965  26.735  51.142  1.00  0.00     0.162 HD
HETATM   14  H   UNL     1       5.935  29.555  54.002  1.00  0.00     0.168 HD
HETATM   15  H   UNL     1       8.232  25.607  57.336  1.00  0.00     0.173 HD
ENDROOT
BRANCH   5  16
HETATM   16  C   UNL     1       5.438  24.889  53.200  1.00  0.00     0.426 C 
HETATM   17  F   UNL     1       4.685  25.260  54.270  1.00  0.00    -0.168 F 
HETATM   18  F   UNL     1       4.626  24.982  52.121  1.00  0.00    -0.168 F 
HETATM   19  F   UNL     1       5.768  23.604  53.373  1.00  0.00    -0.168 F 
ENDBRANCH   5  16
BRANCH   5  20
HETATM   20  C   UNL     1       7.721  25.083  52.335  1.00  0.00     0.426 C 
HETATM   21  F   UNL     1       8.876  25.793  52.357  1.00  0.00    -0.168 F 
HETATM   22  F   UNL     1       7.969  23.847  52.779  1.00  0.00    -0.168 F 
HETATM   23  F   UNL     1       7.378  24.972  51.021  1.00  0.00    -0.168 F 
ENDBRANCH   5  20
BRANCH   1  24
HETATM   24  C   UNL     1       5.400  29.211  51.541  1.00  0.00     0.114 C 
BRANCH  24  25
HETATM   25  C   UNL     1       4.969  28.638  50.211  1.00  0.00    -0.051 A 
HETATM   26  C   UNL     1       3.675  28.105  50.087  1.00  0.00     0.007 A 
HETATM   27  C   UNL     1       3.213  27.631  48.858  1.00  0.00     0.001 A 
HETATM   28  C   UNL     1       4.033  27.690  47.735  1.00  0.00     0.000 A 
HETATM   29  C   UNL     1       5.314  28.224  47.840  1.00  0.00     0.001 A 
HETATM   30  C   UNL     1       5.779  28.703  49.067  1.00  0.00     0.007 A 
ENDBRANCH  24  25
ENDBRANCH   1  24
BRANCH   6  31
HETATM   31  C   UNL     1       7.032  29.736  56.225  1.00  0.00     0.200 C 
BRANCH  31  32
HETATM   32  C   UNL     1       5.607  30.083  56.459  1.00  0.00     0.070 A 
HETATM   33  O   UNL     1       4.991  30.808  55.474  1.00  0.00    -0.325 OA
HETATM   34  C   UNL     1       3.709  31.007  55.879  1.00  0.00     0.142 A 
HETATM   35  C   UNL     1       3.493  30.418  57.103  1.00  0.00     0.027 A 
HETATM   36  C   UNL     1       4.719  29.819  57.480  1.00  0.00     0.036 A 
ENDBRANCH  31  32
ENDBRANCH   6  31
TORSDOF 6
ENDMDL
MODEL 6
REMARK VINA RESULT:      -8.9      3.074      4.272
REMARK  6 active torsions:
REMARK  status: ('A' for Active; 'I' for Inactive)
REMARK    1  A    between atoms: C_4  and  C_5 
REMARK    2  A    between atoms: C_5  and  C_6 
REMARK    3  A    between atoms: C_10  and  C_11 
REMARK    4  A    between atoms: C_10  and  C_15 
REMARK    5  A    between atoms: N_19  and  C_20 
REMARK    6  A    between atoms: C_20  and  C_21 
ROOT
HETATM    1  C   UNL     1       4.546  26.435  52.413  1.00  0.00     0.084 C 
HETATM    2  N   UNL     1       4.618  27.045  53.577  1.00  0.00    -0.331 N 
HETATM    3  C   UNL     1       4.290  28.369  53.753  1.00  0.00     0.128 C 
HETATM    4  C   UNL     1       3.989  29.113  52.678  1.00  0.00     0.100 C 
HETATM    5  C   UNL     1       4.003  28.600  51.257  1.00  0.00     0.264 C 
HETATM    6  N   UNL     1       4.274  28.902  55.032  1.00  0.00    -0.278 N 
HETATM    7  C   UNL     1       4.030  30.249  55.260  1.00  0.00     0.331 C 
HETATM    8  O   UNL     1       4.007  30.771  56.368  1.00  0.00    -0.246 OA
HETATM    9  N   UNL     1       3.785  31.001  54.151  1.00  0.00    -0.275 N 
HETATM   10  C   UNL     1       3.653  30.524  52.893  1.00  0.00     0.262 C 
HETATM   11  O   UNL     1       3.273  31.208  51.958  1.00  0.00    -0.267 OA
HETATM   12  N   UNL     1       4.210  27.076  51.315  1.00  0.00    -0.351 N 
HETATM   13  H   UNL     1       4.146  26.554  50.435  1.00  0.00     0.162 HD
HETATM   14  H   UNL     1       4.968  26.500  54.367  1.00  0.00     0.168 HD
HETATM   15  H   UNL     1       3.552  31.974  54.314  1.00  0.00     0.173 HD
ENDROOT
BRANCH   5  16
HETATM   16  C   UNL     1       5.160  29.179  50.437  1.00  0.00     0.426 C 
HETATM   17  F   UNL     1       6.177  29.506  51.280  1.00  0.00    -0.168 F 
HETATM   18  F   UNL     1       5.657  28.240  49.598  1.00  0.00    -0.168 F 
HETATM   19  F   UNL     1       4.868  30.273  49.725  1.00  0.00    -0.168 F 
ENDBRANCH   5  16
BRANCH   5  20
HETATM   20  C   UNL     1       2.734  28.844  50.432  1.00  0.00     0.426 C 
HETATM   21  F   UNL     1       1.637  28.695  51.215  1.00  0.00    -0.168 F 
HETATM   22  F   UNL     1       2.654  30.018  49.799  1.00  0.00    -0.168 F 
HETATM   23  F   UNL     1       2.645  27.872  49.479  1.00  0.00    -0.168 F 
ENDBRANCH   5  20
BRANCH   1  24
HETATM   24  C   UNL     1       4.837  24.971  52.340  1.00  0.00     0.114 C 
BRANCH  24  25
HETATM   25  C   UNL     1       6.079  24.524  53.076  1.00  0.00    -0.051 A 
HETATM   26  C   UNL     1       6.011  24.321  54.464  1.00  0.00     0.007 A 
HETATM   27  C   UNL     1       7.115  23.840  55.170  1.00  0.00     0.001 A 
HETATM   28  C   UNL     1       8.298  23.548  54.497  1.00  0.00     0.000 A 
HETATM   29  C   UNL     1       8.377  23.734  53.121  1.00  0.00     0.001 A 
HETATM   30  C   UNL     1       7.274  24.212  52.411  1.00  0.00     0.007 A 
ENDBRANCH  24  25
ENDBRANCH   1  24
BRANCH   6  31
HETATM   31  C   UNL     1       4.491  28.078  56.227  1.00  0.00     0.200 C 
BRANCH  31  32
HETATM   32  C   UNL     1       5.933  28.080  56.582  1.00  0.00     0.070 A 
HETATM   33  O   UNL     1       6.280  28.801  57.693  1.00  0.00    -0.325 OA
HETATM   34  C   UNL     1       7.625  28.665  57.841  1.00  0.00     0.142 A 
HETATM   35  C   UNL     1       8.141  27.866  56.848  1.00  0.00     0.027 A 
HETATM   36  C   UNL     1       7.049  27.487  56.033  1.00  0.00     0.036 A 
ENDBRANCH  31  32
ENDBRANCH   6  31
TORSDOF 6
ENDMDL
MODEL 7
REMARK VINA RESULT:      -8.9      2.826      5.366
REMARK  6 active torsions:
REMARK  status: ('A' for Active; 'I' for Inactive)
REMARK    1  A    between atoms: C_4  and  C_5 
REMARK    2  A    between atoms: C_5  and  C_6 
REMARK    3  A    between atoms: C_10  and  C_11 
REMARK    4  A    between atoms: C_10  and  C_15 
REMARK    5  A    between atoms: N_19  and  C_20 
REMARK    6  A    between atoms: C_20  and  C_21 
ROOT
HETATM    1  C   UNL     1       5.683  26.089  53.838  1.00  0.00     0.084 C 
HETATM    2  N   UNL     1       4.821  26.959  53.358  1.00  0.00    -0.331 N 
HETATM    3  C   UNL     1       4.750  28.263  53.791  1.00  0.00     0.128 C 
HETATM    4  C   UNL     1       5.513  28.648  54.825  1.00  0.00     0.100 C 
HETATM    5  C   UNL     1       6.448  27.733  55.579  1.00  0.00     0.264 C 
HETATM    6  N   UNL     1       3.899  29.148  53.147  1.00  0.00    -0.278 N 
HETATM    7  C   UNL     1       3.727  30.451  53.591  1.00  0.00     0.331 C 
HETATM    8  O   UNL     1       2.987  31.272  53.062  1.00  0.00    -0.246 OA
HETATM    9  N   UNL     1       4.466  30.807  54.679  1.00  0.00    -0.275 N 
HETATM   10  C   UNL     1       5.410  30.040  55.271  1.00  0.00     0.262 C 
HETATM   11  O   UNL     1       6.160  30.458  56.137  1.00  0.00    -0.267 OA
HETATM   12  N   UNL     1       6.504  26.396  54.819  1.00  0.00    -0.351 N 
HETATM   13  H   UNL     1       7.173  25.691  55.145  1.00  0.00     0.162 HD
HETATM   14  H   UNL     1       4.160  26.620  52.656  1.00  0.00     0.168 HD
HETATM   15  H   UNL     1       4.387  31.773  54.976  1.00  0.00     0.173 HD
ENDROOT
BRANCH   5  16
HETATM   16  C   UNL     1       5.949  27.424  56.994  1.00  0.00     0.426 C 
HETATM   17  F   UNL     1       4.588  27.444  56.996  1.00  0.00    -0.168 F 
HETATM   18  F   UNL     1       6.305  26.168  57.354  1.00  0.00    -0.168 F 
HETATM   19  F   UNL     1       6.360  28.269  57.946  1.00  0.00    -0.168 F 
ENDBRANCH   5  16
BRANCH   5  20
HETATM   20  C   UNL     1       7.895  28.215  55.735  1.00  0.00     0.426 C 
HETATM   21  F   UNL     1       8.394  28.580  54.528  1.00  0.00    -0.168 F 
HETATM   22  F   UNL     1       8.098  29.211  56.602  1.00  0.00    -0.168 F 
HETATM   23  F   UNL     1       8.658  27.164  56.151  1.00  0.00    -0.168 F 
ENDBRANCH   5  20
BRANCH   1  24
HETATM   24  C   UNL     1       5.743  24.720  53.242  1.00  0.00     0.114 C 
BRANCH  24  25
HETATM   25  C   UNL     1       6.841  23.831  53.779  1.00  0.00    -0.051 A 
HETATM   26  C   UNL     1       6.896  23.578  55.160  1.00  0.00     0.007 A 
HETATM   27  C   UNL     1       7.851  22.707  55.688  1.00  0.00     0.001 A 
HETATM   28  C   UNL     1       8.756  22.070  54.844  1.00  0.00     0.000 A 
HETATM   29  C   UNL     1       8.706  22.302  53.473  1.00  0.00     0.001 A 
HETATM   30  C   UNL     1       7.751  23.171  52.940  1.00  0.00     0.007 A 
ENDBRANCH  24  25
ENDBRANCH   1  24
BRANCH   6  31
HETATM   31  C   UNL     1       3.143  28.774  51.946  1.00  0.00     0.200 C 
BRANCH  31  32
HETATM   32  C   UNL     1       4.054  28.723  50.775  1.00  0.00     0.070 A 
HETATM   33  O   UNL     1       4.300  27.481  50.254  1.00  0.00    -0.325 OA
HETATM   34  C   UNL     1       5.140  27.659  49.199  1.00  0.00     0.142 A 
HETATM   35  C   UNL     1       5.430  28.993  49.035  1.00  0.00     0.027 A 
HETATM   36  C   UNL     1       4.729  29.683  50.052  1.00  0.00     0.036 A 
ENDBRANCH  31  32
ENDBRANCH   6  31
TORSDOF 6
ENDMDL
MODEL 8
REMARK VINA RESULT:      -8.8      4.025      7.019
REMARK  6 active torsions:
REMARK  status: ('A' for Active; 'I' for Inactive)
REMARK    1  A    between atoms: C_4  and  C_5 
REMARK    2  A    between atoms: C_5  and  C_6 
REMARK    3  A    between atoms: C_10  and  C_11 
REMARK    4  A    between atoms: C_10  and  C_15 
REMARK    5  A    between atoms: N_19  and  C_20 
REMARK    6  A    between atoms: C_20  and  C_21 
ROOT
HETATM    1  C   UNL     1       5.111  26.676  50.523  1.00  0.00     0.084 C 
HETATM    2  N   UNL     1       4.437  27.648  51.098  1.00  0.00    -0.331 N 
HETATM    3  C   UNL     1       4.585  27.983  52.425  1.00  0.00     0.128 C 
HETATM    4  C   UNL     1       5.364  27.220  53.204  1.00  0.00     0.100 C 
HETATM    5  C   UNL     1       6.092  25.984  52.732  1.00  0.00     0.264 C 
HETATM    6  N   UNL     1       3.929  29.099  52.921  1.00  0.00    -0.278 N 
HETATM    7  C   UNL     1       3.977  29.436  54.266  1.00  0.00     0.331 C 
HETATM    8  O   UNL     1       3.415  30.408  54.758  1.00  0.00    -0.246 OA
HETATM    9  N   UNL     1       4.726  28.616  55.055  1.00  0.00    -0.275 N 
HETATM   10  C   UNL     1       5.496  27.594  54.616  1.00  0.00     0.262 C 
HETATM   11  O   UNL     1       6.275  26.991  55.335  1.00  0.00    -0.267 OA
HETATM   12  N   UNL     1       5.937  25.910  51.202  1.00  0.00    -0.351 N 
HETATM   13  H   UNL     1       6.457  25.179  50.707  1.00  0.00     0.162 HD
HETATM   14  H   UNL     1       3.752  28.144  50.523  1.00  0.00     0.168 HD
HETATM   15  H   UNL     1       4.810  28.887  56.028  1.00  0.00     0.173 HD
ENDROOT
BRANCH   5  16
HETATM   16  C   UNL     1       5.494  24.697  53.307  1.00  0.00     0.426 C 
HETATM   17  F   UNL     1       4.159  24.674  53.041  1.00  0.00    -0.168 F 
HETATM   18  F   UNL     1       6.018  23.615  52.683  1.00  0.00    -0.168 F 
HETATM   19  F   UNL     1       5.638  24.536  54.627  1.00  0.00    -0.168 F 
ENDBRANCH   5  16
BRANCH   5  20
HETATM   20  C   UNL     1       7.595  25.923  53.028  1.00  0.00     0.426 C 
HETATM   21  F   UNL     1       8.096  27.178  53.143  1.00  0.00    -0.168 F 
HETATM   22  F   UNL     1       7.960  25.215  54.101  1.00  0.00    -0.168 F 
HETATM   23  F   UNL     1       8.225  25.369  51.953  1.00  0.00    -0.168 F 
ENDBRANCH   5  20
BRANCH   1  24
HETATM   24  C   UNL     1       4.948  26.446  49.056  1.00  0.00     0.114 C 
BRANCH  24  25
HETATM   25  C   UNL     1       3.779  27.161  48.418  1.00  0.00    -0.051 A 
HETATM   26  C   UNL     1       3.994  28.413  47.818  1.00  0.00     0.007 A 
HETATM   27  C   UNL     1       2.957  29.074  47.156  1.00  0.00     0.001 A 
HETATM   28  C   UNL     1       1.696  28.489  47.078  1.00  0.00     0.000 A 
HETATM   29  C   UNL     1       1.472  27.245  47.658  1.00  0.00     0.001 A 
HETATM   30  C   UNL     1       2.507  26.579  48.319  1.00  0.00     0.007 A 
ENDBRANCH  24  25
ENDBRANCH   1  24
BRANCH   6  31
HETATM   31  C   UNL     1       3.164  30.006  52.059  1.00  0.00     0.200 C 
BRANCH  31  32
HETATM   32  C   UNL     1       4.064  31.048  51.502  1.00  0.00     0.070 A 
HETATM   33  O   UNL     1       4.853  30.666  50.450  1.00  0.00    -0.325 OA
HETATM   34  C   UNL     1       5.583  31.756  50.093  1.00  0.00     0.142 A 
HETATM   35  C   UNL     1       5.269  32.829  50.894  1.00  0.00     0.027 A 
HETATM   36  C   UNL     1       4.287  32.374  51.806  1.00  0.00     0.036 A 
ENDBRANCH  31  32
ENDBRANCH   6  31
TORSDOF 6
ENDMDL
MODEL 9
REMARK VINA RESULT:      -8.7      3.512      4.910
REMARK  6 active torsions:
REMARK  status: ('A' for Active; 'I' for Inactive)
REMARK    1  A    between atoms: C_4  and  C_5 
REMARK    2  A    between atoms: C_5  and  C_6 
REMARK    3  A    between atoms: C_10  and  C_11 
REMARK    4  A    between atoms: C_10  and  C_15 
REMARK    5  A    between atoms: N_19  and  C_20 
REMARK    6  A    between atoms: C_20  and  C_21 
ROOT
HETATM    1  C   UNL     1       4.542  26.281  51.429  1.00  0.00     0.084 C 
HETATM    2  N   UNL     1       4.507  27.121  52.440  1.00  0.00    -0.331 N 
HETATM    3  C   UNL     1       4.053  28.415  52.326  1.00  0.00     0.128 C 
HETATM    4  C   UNL     1       3.735  28.888  51.113  1.00  0.00     0.100 C 
HETATM    5  C   UNL     1       3.857  28.097  49.832  1.00  0.00     0.264 C 
HETATM    6  N   UNL     1       3.932  29.196  53.465  1.00  0.00    -0.278 N 
HETATM    7  C   UNL     1       3.559  30.531  53.400  1.00  0.00     0.331 C 
HETATM    8  O   UNL     1       3.440  31.266  54.373  1.00  0.00    -0.246 OA
HETATM    9  N   UNL     1       3.296  31.011  52.152  1.00  0.00    -0.275 N 
HETATM   10  C   UNL     1       3.264  30.273  51.019  1.00  0.00     0.262 C 
HETATM   11  O   UNL     1       2.865  30.709  49.952  1.00  0.00    -0.267 OA
HETATM   12  N   UNL     1       4.199  26.645  50.213  1.00  0.00    -0.351 N 
HETATM   13  H   UNL     1       4.221  25.950  49.461  1.00  0.00     0.162 HD
HETATM   14  H   UNL     1       4.870  26.788  53.336  1.00  0.00     0.168 HD
HETATM   15  H   UNL     1       2.970  31.969  52.102  1.00  0.00     0.173 HD
ENDROOT
BRANCH   5  16
HETATM   16  C   UNL     1       4.993  28.604  48.938  1.00  0.00     0.426 C 
HETATM   17  F   UNL     1       6.068  28.903  49.716  1.00  0.00    -0.168 F 
HETATM   18  F   UNL     1       5.402  27.626  48.096  1.00  0.00    -0.168 F 
HETATM   19  F   UNL     1       4.712  29.695  48.215  1.00  0.00    -0.168 F 
ENDBRANCH   5  16
BRANCH   5  20
HETATM   20  C   UNL     1       2.610  28.040  48.943  1.00  0.00     0.426 C 
HETATM   21  F   UNL     1       1.495  28.180  49.701  1.00  0.00    -0.168 F 
HETATM   22  F   UNL     1       2.558  28.919  47.937  1.00  0.00    -0.168 F 
HETATM   23  F   UNL     1       2.530  26.797  48.389  1.00  0.00    -0.168 F 
ENDBRANCH   5  20
BRANCH   1  24
HETATM   24  C   UNL     1       4.967  24.869  51.671  1.00  0.00     0.114 C 
BRANCH  24  25
HETATM   25  C   UNL     1       6.010  24.686  52.749  1.00  0.00    -0.051 A 
HETATM   26  C   UNL     1       5.612  24.733  54.095  1.00  0.00     0.007 A 
HETATM   27  C   UNL     1       6.531  24.499  55.120  1.00  0.00     0.001 A 
HETATM   28  C   UNL     1       7.857  24.206  54.813  1.00  0.00     0.000 A 
HETATM   29  C   UNL     1       8.263  24.145  53.484  1.00  0.00     0.001 A 
HETATM   30  C   UNL     1       7.346  24.376  52.456  1.00  0.00     0.007 A 
ENDBRANCH  24  25
ENDBRANCH   1  24
BRANCH   6  31
HETATM   31  C   UNL     1       4.170  28.661  54.811  1.00  0.00     0.200 C 
BRANCH  31  32
HETATM   32  C   UNL     1       5.608  28.792  55.155  1.00  0.00     0.070 A 
HETATM   33  O   UNL     1       6.474  28.002  54.449  1.00  0.00    -0.325 OA
HETATM   34  C   UNL     1       7.723  28.281  54.909  1.00  0.00     0.142 A 
HETATM   35  C   UNL     1       7.670  29.240  55.893  1.00  0.00     0.027 A 
HETATM   36  C   UNL     1       6.304  29.572  56.054  1.00  0.00     0.036 A 
ENDBRANCH  31  32
ENDBRANCH   6  31
TORSDOF 6
ENDMDL
MODEL 10
REMARK VINA RESULT:      -8.7      9.915     13.074
REMARK  6 active torsions:
REMARK  status: ('A' for Active; 'I' for Inactive)
REMARK    1  A    between atoms: C_4  and  C_5 
REMARK    2  A    between atoms: C_5  and  C_6 
REMARK    3  A    between atoms: C_10  and  C_11 
REMARK    4  A    between atoms: C_10  and  C_15 
REMARK    5  A    between atoms: N_19  and  C_20 
REMARK    6  A    between atoms: C_20  and  C_21 
ROOT
HETATM    1  C   UNL     1       6.402  34.388  63.976  1.00  0.00     0.084 C 
HETATM    2  N   UNL     1       6.114  33.618  62.949  1.00  0.00    -0.331 N 
HETATM    3  C   UNL     1       5.496  34.083  61.811  1.00  0.00     0.128 C 
HETATM    4  C   UNL     1       5.060  35.350  61.780  1.00  0.00     0.100 C 
HETATM    5  C   UNL     1       5.182  36.321  62.931  1.00  0.00     0.264 C 
HETATM    6  N   UNL     1       5.342  33.234  60.726  1.00  0.00    -0.278 N 
HETATM    7  C   UNL     1       4.654  33.624  59.586  1.00  0.00     0.331 C 
HETATM    8  O   UNL     1       4.486  32.914  58.601  1.00  0.00    -0.246 OA
HETATM    9  N   UNL     1       4.167  34.897  59.595  1.00  0.00    -0.275 N 
HETATM   10  C   UNL     1       4.395  35.817  60.559  1.00  0.00     0.262 C 
HETATM   11  O   UNL     1       4.078  36.989  60.449  1.00  0.00    -0.267 OA
HETATM   12  N   UNL     1       6.056  35.656  64.009  1.00  0.00    -0.351 N 
HETATM   13  H   UNL     1       6.321  36.222  64.821  1.00  0.00     0.162 HD
HETATM   14  H   UNL     1       6.340  32.624  63.034  1.00  0.00     0.168 HD
HETATM   15  H   UNL     1       3.711  35.206  58.744  1.00  0.00     0.173 HD
ENDROOT
BRANCH   5  16
HETATM   16  C   UNL     1       3.830  36.632  63.580  1.00  0.00     0.426 C 
HETATM   17  F   UNL     1       3.064  35.507  63.566  1.00  0.00    -0.168 F 
HETATM   18  F   UNL     1       3.997  36.955  64.884  1.00  0.00    -0.168 F 
HETATM   19  F   UNL     1       3.120  37.602  62.991  1.00  0.00    -0.168 F 
ENDBRANCH   5  16
BRANCH   5  20
HETATM   20  C   UNL     1       5.823  37.677  62.615  1.00  0.00     0.426 C 
HETATM   21  F   UNL     1       6.763  37.530  61.648  1.00  0.00    -0.168 F 
HETATM   22  F   UNL     1       4.990  38.659  62.257  1.00  0.00    -0.168 F 
HETATM   23  F   UNL     1       6.493  38.108  63.721  1.00  0.00    -0.168 F 
ENDBRANCH   5  20
BRANCH   1  24
HETATM   24  C   UNL     1       7.155  33.810  65.130  1.00  0.00     0.114 C 
BRANCH  24  25
HETATM   25  C   UNL     1       6.500  33.987  66.481  1.00  0.00    -0.051 A 
HETATM   26  C   UNL     1       7.296  34.353  67.579  1.00  0.00     0.007 A 
HETATM   27  C   UNL     1       6.720  34.596  68.828  1.00  0.00     0.001 A 
HETATM   28  C   UNL     1       5.342  34.486  68.993  1.00  0.00     0.000 A 
HETATM   29  C   UNL     1       4.541  34.135  67.911  1.00  0.00     0.001 A 
HETATM   30  C   UNL     1       5.112  33.894  66.660  1.00  0.00     0.007 A 
ENDBRANCH  24  25
ENDBRANCH   1  24
BRANCH   6  31
HETATM   31  C   UNL     1       5.910  31.882  60.702  1.00  0.00     0.200 C 
BRANCH  31  32
HETATM   32  C   UNL     1       7.393  31.961  60.706  1.00  0.00     0.070 A 
HETATM   33  O   UNL     1       8.012  31.650  61.887  1.00  0.00    -0.325 OA
HETATM   34  C   UNL     1       9.349  31.776  61.672  1.00  0.00     0.142 A 
HETATM   35  C   UNL     1       9.594  32.157  60.374  1.00  0.00     0.027 A 
HETATM   36  C   UNL     1       8.331  32.277  59.747  1.00  0.00     0.036 A 
ENDBRANCH  31  32
ENDBRANCH   6  31
TORSDOF 6
ENDMDL
