MODEL 1
REMARK VINA RESULT:      -8.4      0.000      0.000
REMARK  5 active torsions:
REMARK  status: ('A' for Active; 'I' for Inactive)
REMARK    1  A    between atoms: C_3  and  N_4 
REMARK       I    between atoms: N_4  and  C_5 
REMARK       I    between atoms: C_5  and  N_6 
REMARK    2  A    between atoms: N_6  and  C_7 
REMARK    3  A    between atoms: C_7  and  C_8 
REMARK    4  A    between atoms: C_8  and  C_9 
REMARK    5  A    between atoms: N_15  and  C_16 
ROOT
HETATM    1  C   UNL     1       6.034  30.631  57.962  1.00  0.00     0.054 C 
HETATM    2  C   UNL     1       6.921  29.513  57.563  1.00  0.00     0.003 A 
HETATM    3  C   UNL     1       8.324  29.519  57.375  1.00  0.00     0.159 A 
HETATM    4  N   UNL     1       8.776  28.310  57.036  1.00  0.00    -0.149 NA
HETATM    5  N   UNL     1       7.679  27.508  56.953  1.00  0.00    -0.241 N 
HETATM    6  C   UNL     1       6.550  28.208  57.311  1.00  0.00     0.129 A 
ENDROOT
BRANCH   3   7
HETATM    7  N   UNL     1       9.130  30.623  57.549  1.00  0.00    -0.291 N 
HETATM    8  C   UNL     1       9.493  31.242  58.709  1.00  0.00     0.322 C 
HETATM    9  N   UNL     1       9.097  30.656  59.869  1.00  0.00    -0.339 N 
HETATM   10  O   UNL     1      10.185  32.257  58.664  1.00  0.00    -0.247 OA
HETATM   11  H   UNL     1       8.392  29.929  59.759  1.00  0.00     0.164 HD
HETATM   12  H   UNL     1       9.520  31.054  56.725  1.00  0.00     0.172 HD
BRANCH   9  13
HETATM   13  C   UNL     1       9.357  31.213  61.185  1.00  0.00     0.082 C 
HETATM   14  C   UNL     1       9.552  30.084  62.195  1.00  0.00     0.032 C 
BRANCH  13  15
HETATM   15  C   UNL     1       8.273  32.219  61.620  1.00  0.00     0.029 C 
BRANCH  15  16
HETATM   16  C   UNL     1       7.755  32.002  63.017  1.00  0.00    -0.013 A 
HETATM   17  C   UNL     1       7.802  33.104  64.046  1.00  0.00     0.005 A 
HETATM   18  C   UNL     1       6.486  32.694  63.446  1.00  0.00     0.005 A 
ENDBRANCH  15  16
ENDBRANCH  13  15
ENDBRANCH   9  13
ENDBRANCH   3   7
BRANCH   5  19
HETATM   19  C   UNL     1       7.838  26.135  56.593  1.00  0.00     0.079 A 
HETATM   20  C   UNL     1       7.404  25.565  55.386  1.00  0.00     0.062 A 
HETATM   21 CL   UNL     1       6.762  26.432  54.035  1.00  0.00    -0.082 Cl
HETATM   22  C   UNL     1       7.575  24.186  55.163  1.00  0.00     0.026 A 
HETATM   23  C   UNL     1       8.185  23.372  56.116  1.00  0.00     0.002 A 
HETATM   24  C   UNL     1       8.645  23.930  57.300  1.00  0.00     0.002 A 
HETATM   25  C   UNL     1       8.479  25.297  57.535  1.00  0.00     0.033 A 
ENDBRANCH   5  19
TORSDOF 5
ENDMDL
MODEL 2
REMARK VINA RESULT:      -8.4      5.929      9.275
REMARK  5 active torsions:
REMARK  status: ('A' for Active; 'I' for Inactive)
REMARK    1  A    between atoms: C_3  and  N_4 
REMARK       I    between atoms: N_4  and  C_5 
REMARK       I    between atoms: C_5  and  N_6 
REMARK    2  A    between atoms: N_6  and  C_7 
REMARK    3  A    between atoms: C_7  and  C_8 
REMARK    4  A    between atoms: C_8  and  C_9 
REMARK    5  A    between atoms: N_15  and  C_16 
ROOT
HETATM    1  C   UNL     1       4.637  28.165  55.565  1.00  0.00     0.054 C 
HETATM    2  C   UNL     1       5.579  27.261  54.864  1.00  0.00     0.003 A 
HETATM    3  C   UNL     1       6.301  27.488  53.668  1.00  0.00     0.159 A 
HETATM    4  N   UNL     1       7.071  26.444  53.357  1.00  0.00    -0.149 NA
HETATM    5  N   UNL     1       6.834  25.504  54.314  1.00  0.00    -0.241 N 
HETATM    6  C   UNL     1       5.966  25.997  55.260  1.00  0.00     0.129 A 
ENDROOT
BRANCH   3   7
HETATM    7  N   UNL     1       6.244  28.652  52.930  1.00  0.00    -0.291 N 
HETATM    8  C   UNL     1       5.741  28.845  51.678  1.00  0.00     0.322 C 
HETATM    9  N   UNL     1       5.123  27.786  51.092  1.00  0.00    -0.339 N 
HETATM   10  O   UNL     1       5.826  29.954  51.155  1.00  0.00    -0.247 OA
HETATM   11  H   UNL     1       5.277  26.893  51.557  1.00  0.00     0.164 HD
HETATM   12  H   UNL     1       6.617  29.490  53.348  1.00  0.00     0.172 HD
BRANCH   9  13
HETATM   13  C   UNL     1       4.580  27.811  49.745  1.00  0.00     0.082 C 
HETATM   14  C   UNL     1       3.205  28.474  49.753  1.00  0.00     0.032 C 
BRANCH  13  15
HETATM   15  C   UNL     1       4.562  26.414  49.096  1.00  0.00     0.029 C 
BRANCH  15  16
HETATM   16  C   UNL     1       3.226  26.013  48.531  1.00  0.00    -0.013 A 
HETATM   17  C   UNL     1       3.039  25.791  47.050  1.00  0.00     0.005 A 
HETATM   18  C   UNL     1       3.045  24.617  47.988  1.00  0.00     0.005 A 
ENDBRANCH  15  16
ENDBRANCH  13  15
ENDBRANCH   9  13
ENDBRANCH   3   7
BRANCH   5  19
HETATM   19  C   UNL     1       7.513  24.249  54.249  1.00  0.00     0.079 A 
HETATM   20  C   UNL     1       8.390  23.758  55.229  1.00  0.00     0.062 A 
HETATM   21 CL   UNL     1       8.680  24.477  56.775  1.00  0.00    -0.082 Cl
HETATM   22  C   UNL     1       9.039  22.526  55.031  1.00  0.00     0.026 A 
HETATM   23  C   UNL     1       8.816  21.769  53.881  1.00  0.00     0.002 A 
HETATM   24  C   UNL     1       7.928  22.231  52.919  1.00  0.00     0.002 A 
HETATM   25  C   UNL     1       7.280  23.454  53.103  1.00  0.00     0.033 A 
ENDBRANCH   5  19
TORSDOF 5
ENDMDL
MODEL 3
REMARK VINA RESULT:      -8.3      4.249      5.957
REMARK  5 active torsions:
REMARK  status: ('A' for Active; 'I' for Inactive)
REMARK    1  A    between atoms: C_3  and  N_4 
REMARK       I    between atoms: N_4  and  C_5 
REMARK       I    between atoms: C_5  and  N_6 
REMARK    2  A    between atoms: N_6  and  C_7 
REMARK    3  A    between atoms: C_7  and  C_8 
REMARK    4  A    between atoms: C_8  and  C_9 
REMARK    5  A    between atoms: N_15  and  C_16 
ROOT
HETATM    1  C   UNL     1       5.974  26.642  51.964  1.00  0.00     0.054 C 
HETATM    2  C   UNL     1       6.264  25.574  52.949  1.00  0.00     0.003 A 
HETATM    3  C   UNL     1       5.796  25.444  54.278  1.00  0.00     0.159 A 
HETATM    4  N   UNL     1       6.257  24.331  54.851  1.00  0.00    -0.149 NA
HETATM    5  N   UNL     1       7.065  23.740  53.928  1.00  0.00    -0.241 N 
HETATM    6  C   UNL     1       7.047  24.455  52.753  1.00  0.00     0.129 A 
ENDROOT
BRANCH   3   7
HETATM    7  N   UNL     1       4.946  26.335  54.897  1.00  0.00    -0.291 N 
HETATM    8  C   UNL     1       5.242  27.308  55.806  1.00  0.00     0.322 C 
HETATM    9  N   UNL     1       6.556  27.510  56.086  1.00  0.00    -0.339 N 
HETATM   10  O   UNL     1       4.335  27.979  56.294  1.00  0.00    -0.247 OA
HETATM   11  H   UNL     1       7.180  26.778  55.749  1.00  0.00     0.164 HD
HETATM   12  H   UNL     1       3.966  26.285  54.667  1.00  0.00     0.172 HD
BRANCH   9  13
HETATM   13  C   UNL     1       7.037  28.469  57.065  1.00  0.00     0.082 C 
HETATM   14  C   UNL     1       6.621  29.879  56.655  1.00  0.00     0.032 C 
BRANCH  13  15
HETATM   15  C   UNL     1       8.552  28.343  57.313  1.00  0.00     0.029 C 
BRANCH  15  16
HETATM   16  C   UNL     1       9.329  29.603  57.035  1.00  0.00    -0.013 A 
HETATM   17  C   UNL     1      10.830  29.643  57.184  1.00  0.00     0.005 A 
HETATM   18  C   UNL     1      10.212  29.669  55.814  1.00  0.00     0.005 A 
ENDBRANCH  15  16
ENDBRANCH  13  15
ENDBRANCH   9  13
ENDBRANCH   3   7
BRANCH   5  19
HETATM   19  C   UNL     1       7.725  22.516  54.254  1.00  0.00     0.079 A 
HETATM   20  C   UNL     1       8.371  22.250  55.472  1.00  0.00     0.062 A 
HETATM   21 CL   UNL     1       8.340  23.266  56.871  1.00  0.00    -0.082 Cl
HETATM   22  C   UNL     1       9.030  21.022  55.660  1.00  0.00     0.026 A 
HETATM   23  C   UNL     1       9.042  20.050  54.661  1.00  0.00     0.002 A 
HETATM   24  C   UNL     1       8.382  20.289  53.464  1.00  0.00     0.002 A 
HETATM   25  C   UNL     1       7.726  21.506  53.264  1.00  0.00     0.033 A 
ENDBRANCH   5  19
TORSDOF 5
ENDMDL
MODEL 4
REMARK VINA RESULT:      -8.1      4.985      7.931
REMARK  5 active torsions:
REMARK  status: ('A' for Active; 'I' for Inactive)
REMARK    1  A    between atoms: C_3  and  N_4 
REMARK       I    between atoms: N_4  and  C_5 
REMARK       I    between atoms: C_5  and  N_6 
REMARK    2  A    between atoms: N_6  and  C_7 
REMARK    3  A    between atoms: C_7  and  C_8 
REMARK    4  A    between atoms: C_8  and  C_9 
REMARK    5  A    between atoms: N_15  and  C_16 
ROOT
HETATM    1  C   UNL     1       7.241  27.302  57.423  1.00  0.00     0.054 C 
HETATM    2  C   UNL     1       6.981  26.205  56.462  1.00  0.00     0.003 A 
HETATM    3  C   UNL     1       5.948  26.096  55.502  1.00  0.00     0.159 A 
HETATM    4  N   UNL     1       6.052  24.966  54.799  1.00  0.00    -0.149 NA
HETATM    5  N   UNL     1       7.123  24.301  55.314  1.00  0.00    -0.241 N 
HETATM    6  C   UNL     1       7.725  25.055  56.294  1.00  0.00     0.129 A 
ENDROOT
BRANCH   3   7
HETATM    7  N   UNL     1       4.972  27.046  55.292  1.00  0.00    -0.291 N 
HETATM    8  C   UNL     1       4.573  27.617  54.121  1.00  0.00     0.322 C 
HETATM    9  N   UNL     1       5.130  27.135  52.979  1.00  0.00    -0.339 N 
HETATM   10  O   UNL     1       3.713  28.496  54.136  1.00  0.00    -0.247 OA
HETATM   11  H   UNL     1       5.943  26.539  53.122  1.00  0.00     0.164 HD
HETATM   12  H   UNL     1       4.467  27.385  56.097  1.00  0.00     0.172 HD
BRANCH   9  13
HETATM   13  C   UNL     1       4.852  27.666  51.656  1.00  0.00     0.082 C 
HETATM   14  C   UNL     1       5.012  26.564  50.612  1.00  0.00     0.032 C 
BRANCH  13  15
HETATM   15  C   UNL     1       5.696  28.915  51.338  1.00  0.00     0.029 C 
BRANCH  15  16
HETATM   16  C   UNL     1       5.003  29.919  50.456  1.00  0.00    -0.013 A 
HETATM   17  C   UNL     1       5.766  31.051  49.812  1.00  0.00     0.005 A 
HETATM   18  C   UNL     1       5.273  29.906  48.972  1.00  0.00     0.005 A 
ENDBRANCH  15  16
ENDBRANCH  13  15
ENDBRANCH   9  13
ENDBRANCH   3   7
BRANCH   5  19
HETATM   19  C   UNL     1       7.490  23.032  54.769  1.00  0.00     0.079 A 
HETATM   20  C   UNL     1       7.757  22.786  53.413  1.00  0.00     0.062 A 
HETATM   21 CL   UNL     1       7.874  23.987  52.175  1.00  0.00    -0.082 Cl
HETATM   22  C   UNL     1       8.062  21.481  52.987  1.00  0.00     0.026 A 
HETATM   23  C   UNL     1       8.121  20.422  53.892  1.00  0.00     0.002 A 
HETATM   24  C   UNL     1       7.888  20.659  55.239  1.00  0.00     0.002 A 
HETATM   25  C   UNL     1       7.581  21.950  55.675  1.00  0.00     0.033 A 
ENDBRANCH   5  19
TORSDOF 5
ENDMDL
MODEL 5
REMARK VINA RESULT:      -8.0      5.586      8.937
REMARK  5 active torsions:
REMARK  status: ('A' for Active; 'I' for Inactive)
REMARK    1  A    between atoms: C_3  and  N_4 
REMARK       I    between atoms: N_4  and  C_5 
REMARK       I    between atoms: C_5  and  N_6 
REMARK    2  A    between atoms: N_6  and  C_7 
REMARK    3  A    between atoms: C_7  and  C_8 
REMARK    4  A    between atoms: C_8  and  C_9 
REMARK    5  A    between atoms: N_15  and  C_16 
ROOT
HETATM    1  C   UNL     1       6.979  27.343  56.508  1.00  0.00     0.054 C 
HETATM    2  C   UNL     1       6.837  26.085  55.738  1.00  0.00     0.003 A 
HETATM    3  C   UNL     1       5.830  25.720  54.815  1.00  0.00     0.159 A 
HETATM    4  N   UNL     1       6.052  24.508  54.303  1.00  0.00    -0.149 NA
HETATM    5  N   UNL     1       7.178  24.044  54.913  1.00  0.00    -0.241 N 
HETATM    6  C   UNL     1       7.693  25.003  55.754  1.00  0.00     0.129 A 
ENDROOT
BRANCH   3   7
HETATM    7  N   UNL     1       4.767  26.524  54.460  1.00  0.00    -0.291 N 
HETATM    8  C   UNL     1       4.571  27.220  53.305  1.00  0.00     0.322 C 
HETATM    9  N   UNL     1       5.485  27.042  52.315  1.00  0.00    -0.339 N 
HETATM   10  O   UNL     1       3.576  27.933  53.187  1.00  0.00    -0.247 OA
HETATM   11  H   UNL     1       6.339  26.569  52.606  1.00  0.00     0.164 HD
HETATM   12  H   UNL     1       4.017  26.630  55.126  1.00  0.00     0.172 HD
BRANCH   9  13
HETATM   13  C   UNL     1       5.450  27.746  51.045  1.00  0.00     0.082 C 
HETATM   14  C   UNL     1       5.551  29.251  51.285  1.00  0.00     0.032 C 
BRANCH  13  15
HETATM   15  C   UNL     1       4.224  27.360  50.196  1.00  0.00     0.029 C 
BRANCH  15  16
HETATM   16  C   UNL     1       4.515  26.352  49.116  1.00  0.00    -0.013 A 
HETATM   17  C   UNL     1       3.399  25.670  48.363  1.00  0.00     0.005 A 
HETATM   18  C   UNL     1       4.237  26.713  47.678  1.00  0.00     0.005 A 
ENDBRANCH  15  16
ENDBRANCH  13  15
ENDBRANCH   9  13
ENDBRANCH   3   7
BRANCH   5  19
HETATM   19  C   UNL     1       7.673  22.747  54.578  1.00  0.00     0.079 A 
HETATM   20  C   UNL     1       8.218  21.833  55.495  1.00  0.00     0.062 A 
HETATM   21 CL   UNL     1       8.232  22.017  57.214  1.00  0.00    -0.082 Cl
HETATM   22  C   UNL     1       8.718  20.600  55.039  1.00  0.00     0.026 A 
HETATM   23  C   UNL     1       8.670  20.257  53.688  1.00  0.00     0.002 A 
HETATM   24  C   UNL     1       8.107  21.140  52.778  1.00  0.00     0.002 A 
HETATM   25  C   UNL     1       7.609  22.368  53.217  1.00  0.00     0.033 A 
ENDBRANCH   5  19
TORSDOF 5
ENDMDL
MODEL 6
REMARK VINA RESULT:      -7.9      2.831      7.831
REMARK  5 active torsions:
REMARK  status: ('A' for Active; 'I' for Inactive)
REMARK    1  A    between atoms: C_3  and  N_4 
REMARK       I    between atoms: N_4  and  C_5 
REMARK       I    between atoms: C_5  and  N_6 
REMARK    2  A    between atoms: N_6  and  C_7 
REMARK    3  A    between atoms: C_7  and  C_8 
REMARK    4  A    between atoms: C_8  and  C_9 
REMARK    5  A    between atoms: N_15  and  C_16 
ROOT
HETATM    1  C   UNL     1      10.906  29.444  56.690  1.00  0.00     0.054 C 
HETATM    2  C   UNL     1       9.677  29.890  57.387  1.00  0.00     0.003 A 
HETATM    3  C   UNL     1       8.332  29.796  56.958  1.00  0.00     0.159 A 
HETATM    4  N   UNL     1       7.493  30.289  57.871  1.00  0.00    -0.149 NA
HETATM    5  N   UNL     1       8.273  30.751  58.887  1.00  0.00    -0.241 N 
HETATM    6  C   UNL     1       9.597  30.480  58.632  1.00  0.00     0.129 A 
ENDROOT
BRANCH   3   7
HETATM    7  N   UNL     1       7.930  29.238  55.763  1.00  0.00    -0.291 N 
HETATM    8  C   UNL     1       7.512  27.965  55.513  1.00  0.00     0.322 C 
HETATM    9  N   UNL     1       7.373  27.140  56.583  1.00  0.00    -0.339 N 
HETATM   10  O   UNL     1       7.240  27.631  54.361  1.00  0.00    -0.247 OA
HETATM   11  H   UNL     1       7.794  27.487  57.444  1.00  0.00     0.164 HD
HETATM   12  H   UNL     1       7.935  29.828  54.945  1.00  0.00     0.172 HD
BRANCH   9  13
HETATM   13  C   UNL     1       6.987  25.744  56.484  1.00  0.00     0.082 C 
HETATM   14  C   UNL     1       5.621  25.537  57.132  1.00  0.00     0.032 C 
BRANCH  13  15
HETATM   15  C   UNL     1       8.064  24.797  57.049  1.00  0.00     0.029 C 
BRANCH  15  16
HETATM   16  C   UNL     1       8.601  23.808  56.049  1.00  0.00    -0.013 A 
HETATM   17  C   UNL     1       8.419  22.323  56.246  1.00  0.00     0.005 A 
HETATM   18  C   UNL     1       7.636  23.040  55.182  1.00  0.00     0.005 A 
ENDBRANCH  15  16
ENDBRANCH  13  15
ENDBRANCH   9  13
ENDBRANCH   3   7
BRANCH   5  19
HETATM   19  C   UNL     1       7.657  31.356  60.026  1.00  0.00     0.079 A 
HETATM   20  C   UNL     1       8.048  31.145  61.358  1.00  0.00     0.062 A 
HETATM   21 CL   UNL     1       9.447  30.268  61.871  1.00  0.00    -0.082 Cl
HETATM   22  C   UNL     1       7.332  31.760  62.401  1.00  0.00     0.026 A 
HETATM   23  C   UNL     1       6.247  32.594  62.138  1.00  0.00     0.002 A 
HETATM   24  C   UNL     1       5.870  32.834  60.824  1.00  0.00     0.002 A 
HETATM   25  C   UNL     1       6.570  32.226  59.779  1.00  0.00     0.033 A 
ENDBRANCH   5  19
TORSDOF 5
ENDMDL
MODEL 7
REMARK VINA RESULT:      -7.9      3.655      7.957
REMARK  5 active torsions:
REMARK  status: ('A' for Active; 'I' for Inactive)
REMARK    1  A    between atoms: C_3  and  N_4 
REMARK       I    between atoms: N_4  and  C_5 
REMARK       I    between atoms: C_5  and  N_6 
REMARK    2  A    between atoms: N_6  and  C_7 
REMARK    3  A    between atoms: C_7  and  C_8 
REMARK    4  A    between atoms: C_8  and  C_9 
REMARK    5  A    between atoms: N_15  and  C_16 
ROOT
HETATM    1  C   UNL     1       3.858  29.337  55.497  1.00  0.00     0.054 C 
HETATM    2  C   UNL     1       5.124  29.195  56.253  1.00  0.00     0.003 A 
HETATM    3  C   UNL     1       5.578  28.096  57.021  1.00  0.00     0.159 A 
HETATM    4  N   UNL     1       6.785  28.329  57.540  1.00  0.00    -0.149 NA
HETATM    5  N   UNL     1       7.120  29.594  57.160  1.00  0.00    -0.241 N 
HETATM    6  C   UNL     1       6.145  30.118  56.344  1.00  0.00     0.129 A 
ENDROOT
BRANCH   3   7
HETATM    7  N   UNL     1       4.881  26.919  57.189  1.00  0.00    -0.291 N 
HETATM    8  C   UNL     1       5.309  25.638  57.001  1.00  0.00     0.322 C 
HETATM    9  N   UNL     1       6.622  25.466  56.698  1.00  0.00    -0.339 N 
HETATM   10  O   UNL     1       4.521  24.707  57.151  1.00  0.00    -0.247 OA
HETATM   11  H   UNL     1       7.113  26.319  56.435  1.00  0.00     0.164 HD
HETATM   12  H   UNL     1       3.921  26.982  57.491  1.00  0.00     0.172 HD
BRANCH   9  13
HETATM   13  C   UNL     1       7.225  24.174  56.418  1.00  0.00     0.082 C 
HETATM   14  C   UNL     1       8.607  24.098  57.061  1.00  0.00     0.032 C 
BRANCH  13  15
HETATM   15  C   UNL     1       7.252  23.855  54.910  1.00  0.00     0.029 C 
BRANCH  15  16
HETATM   16  C   UNL     1       7.654  22.441  54.586  1.00  0.00    -0.013 A 
HETATM   17  C   UNL     1       7.730  21.959  53.159  1.00  0.00     0.005 A 
HETATM   18  C   UNL     1       8.993  22.187  53.941  1.00  0.00     0.005 A 
ENDBRANCH  15  16
ENDBRANCH  13  15
ENDBRANCH   9  13
ENDBRANCH   3   7
BRANCH   5  19
HETATM   19  C   UNL     1       8.370  30.144  57.576  1.00  0.00     0.079 A 
HETATM   20  C   UNL     1       8.525  31.138  58.556  1.00  0.00     0.062 A 
HETATM   21 CL   UNL     1       7.271  31.757  59.571  1.00  0.00    -0.082 Cl
HETATM   22  C   UNL     1       9.808  31.637  58.847  1.00  0.00     0.026 A 
HETATM   23  C   UNL     1      10.938  31.150  58.191  1.00  0.00     0.002 A 
HETATM   24  C   UNL     1      10.800  30.147  57.243  1.00  0.00     0.002 A 
HETATM   25  C   UNL     1       9.532  29.645  56.942  1.00  0.00     0.033 A 
ENDBRANCH   5  19
TORSDOF 5
ENDMDL
MODEL 8
REMARK VINA RESULT:      -7.8      5.786      9.151
REMARK  5 active torsions:
REMARK  status: ('A' for Active; 'I' for Inactive)
REMARK    1  A    between atoms: C_3  and  N_4 
REMARK       I    between atoms: N_4  and  C_5 
REMARK       I    between atoms: C_5  and  N_6 
REMARK    2  A    between atoms: N_6  and  C_7 
REMARK    3  A    between atoms: C_7  and  C_8 
REMARK    4  A    between atoms: C_8  and  C_9 
REMARK    5  A    between atoms: N_15  and  C_16 
ROOT
HETATM    1  C   UNL     1       7.371  28.584  54.798  1.00  0.00     0.054 C 
HETATM    2  C   UNL     1       6.347  28.023  53.886  1.00  0.00     0.003 A 
HETATM    3  C   UNL     1       5.404  26.998  54.137  1.00  0.00     0.159 A 
HETATM    4  N   UNL     1       4.627  26.780  53.075  1.00  0.00    -0.149 NA
HETATM    5  N   UNL     1       5.074  27.622  52.103  1.00  0.00    -0.241 N 
HETATM    6  C   UNL     1       6.087  28.415  52.589  1.00  0.00     0.129 A 
ENDROOT
BRANCH   3   7
HETATM    7  N   UNL     1       5.279  26.328  55.335  1.00  0.00    -0.291 N 
HETATM    8  C   UNL     1       5.905  25.188  55.746  1.00  0.00     0.322 C 
HETATM    9  N   UNL     1       6.854  24.675  54.920  1.00  0.00    -0.339 N 
HETATM   10  O   UNL     1       5.625  24.703  56.840  1.00  0.00    -0.247 OA
HETATM   11  H   UNL     1       6.861  25.071  53.982  1.00  0.00     0.164 HD
HETATM   12  H   UNL     1       4.646  26.708  56.021  1.00  0.00     0.172 HD
BRANCH   9  13
HETATM   13  C   UNL     1       7.576  23.443  55.185  1.00  0.00     0.082 C 
HETATM   14  C   UNL     1       8.708  23.708  56.174  1.00  0.00     0.032 C 
BRANCH  13  15
HETATM   15  C   UNL     1       8.063  22.760  53.892  1.00  0.00     0.029 C 
BRANCH  15  16
HETATM   16  C   UNL     1       7.732  21.294  53.806  1.00  0.00    -0.013 A 
HETATM   17  C   UNL     1       8.469  20.382  52.857  1.00  0.00     0.005 A 
HETATM   18  C   UNL     1       8.719  20.284  54.335  1.00  0.00     0.005 A 
ENDBRANCH  15  16
ENDBRANCH  13  15
ENDBRANCH   9  13
ENDBRANCH   3   7
BRANCH   5  19
HETATM   19  C   UNL     1       4.440  27.616  50.823  1.00  0.00     0.079 A 
HETATM   20  C   UNL     1       3.490  28.557  50.391  1.00  0.00     0.062 A 
HETATM   21 CL   UNL     1       3.040  29.995  51.238  1.00  0.00    -0.082 Cl
HETATM   22  C   UNL     1       2.898  28.420  49.123  1.00  0.00     0.026 A 
HETATM   23  C   UNL     1       3.248  27.372  48.273  1.00  0.00     0.002 A 
HETATM   24  C   UNL     1       4.207  26.453  48.676  1.00  0.00     0.002 A 
HETATM   25  C   UNL     1       4.800  26.576  49.935  1.00  0.00     0.033 A 
ENDBRANCH   5  19
TORSDOF 5
ENDMDL
MODEL 9
REMARK VINA RESULT:      -7.8      2.693      7.767
REMARK  5 active torsions:
REMARK  status: ('A' for Active; 'I' for Inactive)
REMARK    1  A    between atoms: C_3  and  N_4 
REMARK       I    between atoms: N_4  and  C_5 
REMARK       I    between atoms: C_5  and  N_6 
REMARK    2  A    between atoms: N_6  and  C_7 
REMARK    3  A    between atoms: C_7  and  C_8 
REMARK    4  A    between atoms: C_8  and  C_9 
REMARK    5  A    between atoms: N_15  and  C_16 
ROOT
HETATM    1  C   UNL     1      10.320  29.387  55.895  1.00  0.00     0.054 C 
HETATM    2  C   UNL     1       9.332  29.770  56.930  1.00  0.00     0.003 A 
HETATM    3  C   UNL     1       7.919  29.724  56.865  1.00  0.00     0.159 A 
HETATM    4  N   UNL     1       7.365  30.130  58.009  1.00  0.00    -0.149 NA
HETATM    5  N   UNL     1       8.398  30.487  58.821  1.00  0.00    -0.241 N 
HETATM    6  C   UNL     1       9.599  30.235  58.201  1.00  0.00     0.129 A 
ENDROOT
BRANCH   3   7
HETATM    7  N   UNL     1       7.201  29.287  55.773  1.00  0.00    -0.291 N 
HETATM    8  C   UNL     1       6.765  28.028  55.485  1.00  0.00     0.322 C 
HETATM    9  N   UNL     1       6.971  27.074  56.430  1.00  0.00    -0.339 N 
HETATM   10  O   UNL     1       6.177  27.817  54.426  1.00  0.00    -0.247 OA
HETATM   11  H   UNL     1       7.615  27.343  57.172  1.00  0.00     0.164 HD
HETATM   12  H   UNL     1       6.949  29.970  55.075  1.00  0.00     0.172 HD
BRANCH   9  13
HETATM   13  C   UNL     1       6.614  25.676  56.260  1.00  0.00     0.082 C 
HETATM   14  C   UNL     1       5.328  25.373  57.026  1.00  0.00     0.032 C 
BRANCH  13  15
HETATM   15  C   UNL     1       7.768  24.727  56.635  1.00  0.00     0.029 C 
BRANCH  15  16
HETATM   16  C   UNL     1       8.228  23.840  55.508  1.00  0.00    -0.013 A 
HETATM   17  C   UNL     1       7.777  22.404  55.413  1.00  0.00     0.005 A 
HETATM   18  C   UNL     1       7.238  23.423  54.449  1.00  0.00     0.005 A 
ENDBRANCH  15  16
ENDBRANCH  13  15
ENDBRANCH   9  13
ENDBRANCH   3   7
BRANCH   5  19
HETATM   19  C   UNL     1       8.122  30.981  60.133  1.00  0.00     0.079 A 
HETATM   20  C   UNL     1       7.152  31.950  60.439  1.00  0.00     0.062 A 
HETATM   21 CL   UNL     1       5.990  32.597  59.336  1.00  0.00    -0.082 Cl
HETATM   22  C   UNL     1       7.004  32.394  61.766  1.00  0.00     0.026 A 
HETATM   23  C   UNL     1       7.793  31.877  62.792  1.00  0.00     0.002 A 
HETATM   24  C   UNL     1       8.734  30.897  62.506  1.00  0.00     0.002 A 
HETATM   25  C   UNL     1       8.893  30.450  61.192  1.00  0.00     0.033 A 
ENDBRANCH   5  19
TORSDOF 5
ENDMDL
MODEL 10
REMARK VINA RESULT:      -7.6      4.730      7.334
REMARK  5 active torsions:
REMARK  status: ('A' for Active; 'I' for Inactive)
REMARK    1  A    between atoms: C_3  and  N_4 
REMARK       I    between atoms: N_4  and  C_5 
REMARK       I    between atoms: C_5  and  N_6 
REMARK    2  A    between atoms: N_6  and  C_7 
REMARK    3  A    between atoms: C_7  and  C_8 
REMARK    4  A    between atoms: C_8  and  C_9 
REMARK    5  A    between atoms: N_15  and  C_16 
ROOT
HETATM    1  C   UNL     1       7.739  23.983  53.687  1.00  0.00     0.054 C 
HETATM    2  C   UNL     1       6.703  24.862  53.097  1.00  0.00     0.003 A 
HETATM    3  C   UNL     1       5.545  25.401  53.707  1.00  0.00     0.159 A 
HETATM    4  N   UNL     1       4.860  26.171  52.859  1.00  0.00    -0.149 NA
HETATM    5  N   UNL     1       5.529  26.113  51.675  1.00  0.00    -0.241 N 
HETATM    6  C   UNL     1       6.672  25.360  51.810  1.00  0.00     0.129 A 
ENDROOT
BRANCH   3   7
HETATM    7  N   UNL     1       5.183  25.187  55.020  1.00  0.00    -0.291 N 
HETATM    8  C   UNL     1       5.584  25.858  56.137  1.00  0.00     0.322 C 
HETATM    9  N   UNL     1       6.374  26.948  55.950  1.00  0.00    -0.339 N 
HETATM   10  O   UNL     1       5.191  25.488  57.241  1.00  0.00    -0.247 OA
HETATM   11  H   UNL     1       6.762  27.037  55.012  1.00  0.00     0.164 HD
HETATM   12  H   UNL     1       4.534  24.440  55.211  1.00  0.00     0.172 HD
BRANCH   9  13
HETATM   13  C   UNL     1       6.928  27.740  57.034  1.00  0.00     0.082 C 
HETATM   14  C   UNL     1       6.311  29.137  57.022  1.00  0.00     0.032 C 
BRANCH  13  15
HETATM   15  C   UNL     1       8.469  27.770  57.010  1.00  0.00     0.029 C 
BRANCH  15  16
HETATM   16  C   UNL     1       9.057  29.153  56.918  1.00  0.00    -0.013 A 
HETATM   17  C   UNL     1      10.545  29.377  57.032  1.00  0.00     0.005 A 
HETATM   18  C   UNL     1       9.864  29.530  55.701  1.00  0.00     0.005 A 
ENDBRANCH  15  16
ENDBRANCH  13  15
ENDBRANCH   9  13
ENDBRANCH   3   7
BRANCH   5  19
HETATM   19  C   UNL     1       5.028  26.836  50.549  1.00  0.00     0.079 A 
HETATM   20  C   UNL     1       4.990  28.236  50.446  1.00  0.00     0.062 A 
HETATM   21 CL   UNL     1       5.699  29.349  51.562  1.00  0.00    -0.082 Cl
HETATM   22  C   UNL     1       4.427  28.837  49.305  1.00  0.00     0.026 A 
HETATM   23  C   UNL     1       3.917  28.066  48.261  1.00  0.00     0.002 A 
HETATM   24  C   UNL     1       3.977  26.682  48.339  1.00  0.00     0.002 A 
HETATM   25  C   UNL     1       4.530  26.073  49.468  1.00  0.00     0.033 A 
ENDBRANCH   5  19
TORSDOF 5
ENDMDL
