MODEL 1
REMARK VINA RESULT:     -10.2      0.000      0.000
REMARK  3 active torsions:
REMARK  status: ('A' for Active; 'I' for Inactive)
REMARK    1  A    between atoms: N_4  and  C_5 
REMARK    2  A    between atoms: C_15  and  C_16 
REMARK       I    between atoms: C_16  and  N_17 
REMARK    3  A    between atoms: N_17  and  C_18 
ROOT
HETATM    1  C   UNL     1       4.791  26.983  53.486  1.00  0.00     0.073 C 
HETATM    2  C   UNL     1       5.822  26.146  54.145  1.00  0.00     0.069 A 
HETATM    3  N   UNL     1       5.855  24.822  53.942  1.00  0.00    -0.170 NA
HETATM    4  N   UNL     1       6.937  24.370  54.648  1.00  0.00    -0.216 N 
HETATM    5  C   UNL     1       7.480  25.402  55.398  1.00  0.00     0.145 A 
HETATM    6  C   UNL     1       6.814  26.555  55.055  1.00  0.00     0.087 A 
HETATM    7  N   UNL     1       8.438  25.375  56.356  1.00  0.00    -0.349 N 
HETATM    8  C   UNL     1       8.734  26.556  57.017  1.00  0.00     0.111 A 
HETATM    9  C   UNL     1       8.180  27.759  56.740  1.00  0.00     0.098 A 
HETATM   10  C   UNL     1       7.147  27.833  55.649  1.00  0.00     0.205 A 
HETATM   11  O   UNL     1       6.627  28.893  55.312  1.00  0.00    -0.286 OA
HETATM   12  H   UNL     1       8.764  24.517  56.801  1.00  0.00     0.167 HD
ENDROOT
BRANCH   9  13
HETATM   13  C   UNL     1       8.600  28.935  57.565  1.00  0.00     0.261 C 
HETATM   14  N   UNL     1       7.615  29.442  58.388  1.00  0.00    -0.323 N 
HETATM   15  H   UNL     1       6.697  28.997  58.333  1.00  0.00     0.169 HD
HETATM   16  O   UNL     1       9.743  29.373  57.468  1.00  0.00    -0.267 OA
BRANCH  14  17
HETATM   17  C   UNL     1       7.721  30.500  59.314  1.00  0.00     0.037 A 
HETATM   18  C   UNL     1       8.728  30.605  60.273  1.00  0.00     0.071 A 
HETATM   19  C   UNL     1       8.732  31.682  61.156  1.00  0.00     0.118 A 
HETATM   20  F   UNL     1       9.697  31.772  62.081  1.00  0.00    -0.206 F 
HETATM   21  C   UNL     1       7.752  32.667  61.102  1.00  0.00     0.042 A 
HETATM   22  C   UNL     1       6.745  32.573  60.147  1.00  0.00     0.005 A 
HETATM   23  C   UNL     1       6.728  31.492  59.261  1.00  0.00     0.029 A 
ENDBRANCH  14  17
ENDBRANCH   9  13
BRANCH   4  24
HETATM   24  C   UNL     1       7.347  23.012  54.529  1.00  0.00     0.060 A 
HETATM   25  C   UNL     1       7.463  22.175  55.645  1.00  0.00     0.031 A 
HETATM   26  C   UNL     1       7.869  20.846  55.487  1.00  0.00     0.002 A 
HETATM   27  C   UNL     1       8.167  20.348  54.220  1.00  0.00     0.000 A 
HETATM   28  C   UNL     1       8.078  21.181  53.108  1.00  0.00     0.002 A 
HETATM   29  C   UNL     1       7.679  22.510  53.260  1.00  0.00     0.031 A 
ENDBRANCH   4  24
TORSDOF 3
ENDMDL
MODEL 2
REMARK VINA RESULT:     -10.1      1.615      2.139
REMARK  3 active torsions:
REMARK  status: ('A' for Active; 'I' for Inactive)
REMARK    1  A    between atoms: N_4  and  C_5 
REMARK    2  A    between atoms: C_15  and  C_16 
REMARK       I    between atoms: C_16  and  N_17 
REMARK    3  A    between atoms: N_17  and  C_18 
ROOT
HETATM    1  C   UNL     1       4.177  28.749  54.424  1.00  0.00     0.073 C 
HETATM    2  C   UNL     1       5.309  27.877  54.821  1.00  0.00     0.069 A 
HETATM    3  N   UNL     1       5.394  26.621  54.362  1.00  0.00    -0.170 NA
HETATM    4  N   UNL     1       6.560  26.121  54.875  1.00  0.00    -0.216 N 
HETATM    5  C   UNL     1       7.114  27.029  55.765  1.00  0.00     0.145 A 
HETATM    6  C   UNL     1       6.358  28.176  55.709  1.00  0.00     0.087 A 
HETATM    7  N   UNL     1       8.158  26.888  56.618  1.00  0.00    -0.349 N 
HETATM    8  C   UNL     1       8.451  27.940  57.470  1.00  0.00     0.111 A 
HETATM    9  C   UNL     1       7.809  29.132  57.480  1.00  0.00     0.098 A 
HETATM   10  C   UNL     1       6.676  29.338  56.511  1.00  0.00     0.205 A 
HETATM   11  O   UNL     1       6.071  30.403  56.432  1.00  0.00    -0.286 OA
HETATM   12  H   UNL     1       8.570  25.987  56.859  1.00  0.00     0.167 HD
ENDROOT
BRANCH   9  13
HETATM   13  C   UNL     1       8.241  30.157  58.481  1.00  0.00     0.261 C 
HETATM   14  N   UNL     1       7.311  30.427  59.464  1.00  0.00    -0.323 N 
HETATM   15  H   UNL     1       6.417  29.938  59.399  1.00  0.00     0.169 HD
HETATM   16  O   UNL     1       9.345  30.684  58.379  1.00  0.00    -0.267 OA
BRANCH  14  17
HETATM   17  C   UNL     1       7.446  31.296  60.567  1.00  0.00     0.037 A 
HETATM   18  C   UNL     1       6.745  32.492  60.714  1.00  0.00     0.071 A 
HETATM   19  C   UNL     1       6.966  33.290  61.834  1.00  0.00     0.118 A 
HETATM   20  F   UNL     1       6.296  34.443  61.964  1.00  0.00    -0.206 F 
HETATM   21  C   UNL     1       7.870  32.917  62.822  1.00  0.00     0.042 A 
HETATM   22  C   UNL     1       8.573  31.725  62.686  1.00  0.00     0.005 A 
HETATM   23  C   UNL     1       8.364  30.921  61.562  1.00  0.00     0.029 A 
ENDBRANCH  14  17
ENDBRANCH   9  13
BRANCH   4  24
HETATM   24  C   UNL     1       7.029  24.843  54.460  1.00  0.00     0.060 A 
HETATM   25  C   UNL     1       7.072  23.752  55.337  1.00  0.00     0.031 A 
HETATM   26  C   UNL     1       7.540  22.511  54.891  1.00  0.00     0.002 A 
HETATM   27  C   UNL     1       7.972  22.355  53.576  1.00  0.00     0.000 A 
HETATM   28  C   UNL     1       7.956  23.441  52.705  1.00  0.00     0.002 A 
HETATM   29  C   UNL     1       7.496  24.683  53.145  1.00  0.00     0.031 A 
ENDBRANCH   4  24
TORSDOF 3
ENDMDL
MODEL 3
REMARK VINA RESULT:     -10.0      1.971      2.879
REMARK  3 active torsions:
REMARK  status: ('A' for Active; 'I' for Inactive)
REMARK    1  A    between atoms: N_4  and  C_5 
REMARK    2  A    between atoms: C_15  and  C_16 
REMARK       I    between atoms: C_16  and  N_17 
REMARK    3  A    between atoms: N_17  and  C_18 
ROOT
HETATM    1  C   UNL     1       3.928  29.452  54.665  1.00  0.00     0.073 C 
HETATM    2  C   UNL     1       5.122  28.606  54.907  1.00  0.00     0.069 A 
HETATM    3  N   UNL     1       5.246  27.417  54.300  1.00  0.00    -0.170 NA
HETATM    4  N   UNL     1       6.461  26.928  54.699  1.00  0.00    -0.216 N 
HETATM    5  C   UNL     1       7.014  27.758  55.663  1.00  0.00     0.145 A 
HETATM    6  C   UNL     1       6.198  28.860  55.775  1.00  0.00     0.087 A 
HETATM    7  N   UNL     1       8.105  27.579  56.446  1.00  0.00    -0.349 N 
HETATM    8  C   UNL     1       8.387  28.542  57.401  1.00  0.00     0.111 A 
HETATM    9  C   UNL     1       7.687  29.687  57.579  1.00  0.00     0.098 A 
HETATM   10  C   UNL     1       6.497  29.938  56.693  1.00  0.00     0.205 A 
HETATM   11  O   UNL     1       5.836  30.970  56.766  1.00  0.00    -0.286 OA
HETATM   12  H   UNL     1       8.574  26.681  56.562  1.00  0.00     0.167 HD
ENDROOT
BRANCH   9  13
HETATM   13  C   UNL     1       8.117  30.613  58.673  1.00  0.00     0.261 C 
HETATM   14  N   UNL     1       7.160  30.846  59.639  1.00  0.00    -0.323 N 
HETATM   15  H   UNL     1       6.250  30.400  59.502  1.00  0.00     0.169 HD
HETATM   16  O   UNL     1       9.244  31.101  58.654  1.00  0.00    -0.267 OA
BRANCH  14  17
HETATM   17  C   UNL     1       7.283  31.621  60.811  1.00  0.00     0.037 A 
HETATM   18  C   UNL     1       6.667  32.857  61.002  1.00  0.00     0.071 A 
HETATM   19  C   UNL     1       6.869  33.554  62.191  1.00  0.00     0.118 A 
HETATM   20  F   UNL     1       6.282  34.746  62.364  1.00  0.00    -0.206 F 
HETATM   21  C   UNL     1       7.670  33.040  63.204  1.00  0.00     0.042 A 
HETATM   22  C   UNL     1       8.287  31.806  63.025  1.00  0.00     0.005 A 
HETATM   23  C   UNL     1       8.096  31.103  61.832  1.00  0.00     0.029 A 
ENDBRANCH  14  17
ENDBRANCH   9  13
BRANCH   4  24
HETATM   24  C   UNL     1       6.973  25.734  54.117  1.00  0.00     0.060 A 
HETATM   25  C   UNL     1       7.499  25.712  52.820  1.00  0.00     0.031 A 
HETATM   26  C   UNL     1       7.993  24.519  52.283  1.00  0.00     0.002 A 
HETATM   27  C   UNL     1       7.958  23.344  53.031  1.00  0.00     0.000 A 
HETATM   28  C   UNL     1       7.413  23.352  54.312  1.00  0.00     0.002 A 
HETATM   29  C   UNL     1       6.913  24.539  54.852  1.00  0.00     0.031 A 
ENDBRANCH   4  24
TORSDOF 3
ENDMDL
MODEL 4
REMARK VINA RESULT:      -9.8      3.032      8.880
REMARK  3 active torsions:
REMARK  status: ('A' for Active; 'I' for Inactive)
REMARK    1  A    between atoms: N_4  and  C_5 
REMARK    2  A    between atoms: C_15  and  C_16 
REMARK       I    between atoms: C_16  and  N_17 
REMARK    3  A    between atoms: N_17  and  C_18 
ROOT
HETATM    1  C   UNL     1       4.850  32.557  56.186  1.00  0.00     0.073 C 
HETATM    2  C   UNL     1       5.662  31.770  57.146  1.00  0.00     0.069 A 
HETATM    3  N   UNL     1       6.262  32.372  58.182  1.00  0.00    -0.170 NA
HETATM    4  N   UNL     1       6.878  31.370  58.881  1.00  0.00    -0.216 N 
HETATM    5  C   UNL     1       6.771  30.173  58.190  1.00  0.00     0.145 A 
HETATM    6  C   UNL     1       5.957  30.396  57.104  1.00  0.00     0.087 A 
HETATM    7  N   UNL     1       7.365  28.976  58.419  1.00  0.00    -0.349 N 
HETATM    8  C   UNL     1       7.147  27.955  57.509  1.00  0.00     0.111 A 
HETATM    9  C   UNL     1       6.336  28.039  56.429  1.00  0.00     0.098 A 
HETATM   10  C   UNL     1       5.624  29.339  56.172  1.00  0.00     0.205 A 
HETATM   11  O   UNL     1       4.842  29.482  55.237  1.00  0.00    -0.286 OA
HETATM   12  H   UNL     1       8.152  28.852  59.055  1.00  0.00     0.167 HD
ENDROOT
BRANCH   9  13
HETATM   13  C   UNL     1       6.229  26.844  55.534  1.00  0.00     0.261 C 
HETATM   14  N   UNL     1       7.327  26.009  55.555  1.00  0.00    -0.323 N 
HETATM   15  H   UNL     1       8.112  26.296  56.142  1.00  0.00     0.169 HD
HETATM   16  O   UNL     1       5.219  26.678  54.854  1.00  0.00    -0.267 OA
BRANCH  14  17
HETATM   17  C   UNL     1       7.499  24.788  54.870  1.00  0.00     0.037 A 
HETATM   18  C   UNL     1       7.374  23.532  55.462  1.00  0.00     0.071 A 
HETATM   19  C   UNL     1       7.583  22.384  54.700  1.00  0.00     0.118 A 
HETATM   20  F   UNL     1       7.471  21.181  55.278  1.00  0.00    -0.206 F 
HETATM   21  C   UNL     1       7.911  22.461  53.352  1.00  0.00     0.042 A 
HETATM   22  C   UNL     1       8.036  23.709  52.751  1.00  0.00     0.005 A 
HETATM   23  C   UNL     1       7.834  24.866  53.509  1.00  0.00     0.029 A 
ENDBRANCH  14  17
ENDBRANCH   9  13
BRANCH   4  24
HETATM   24  C   UNL     1       7.493  31.651  60.134  1.00  0.00     0.060 A 
HETATM   25  C   UNL     1       8.875  31.528  60.323  1.00  0.00     0.031 A 
HETATM   26  C   UNL     1       9.442  31.814  61.569  1.00  0.00     0.002 A 
HETATM   27  C   UNL     1       8.635  32.216  62.632  1.00  0.00     0.000 A 
HETATM   28  C   UNL     1       7.257  32.316  62.460  1.00  0.00     0.002 A 
HETATM   29  C   UNL     1       6.685  32.027  61.220  1.00  0.00     0.031 A 
ENDBRANCH   4  24
TORSDOF 3
ENDMDL
MODEL 5
REMARK VINA RESULT:      -9.8      2.970      9.271
REMARK  3 active torsions:
REMARK  status: ('A' for Active; 'I' for Inactive)
REMARK    1  A    between atoms: N_4  and  C_5 
REMARK    2  A    between atoms: C_15  and  C_16 
REMARK       I    between atoms: C_16  and  N_17 
REMARK    3  A    between atoms: N_17  and  C_18 
ROOT
HETATM    1  C   UNL     1      10.537  30.808  57.726  1.00  0.00     0.073 C 
HETATM    2  C   UNL     1       9.093  30.872  58.061  1.00  0.00     0.069 A 
HETATM    3  N   UNL     1       8.651  31.716  59.003  1.00  0.00    -0.170 NA
HETATM    4  N   UNL     1       7.292  31.557  59.028  1.00  0.00    -0.216 N 
HETATM    5  C   UNL     1       6.920  30.510  58.198  1.00  0.00     0.145 A 
HETATM    6  C   UNL     1       8.050  30.091  57.534  1.00  0.00     0.087 A 
HETATM    7  N   UNL     1       5.720  29.901  58.045  1.00  0.00    -0.349 N 
HETATM    8  C   UNL     1       5.646  28.807  57.198  1.00  0.00     0.111 A 
HETATM    9  C   UNL     1       6.674  28.328  56.460  1.00  0.00     0.098 A 
HETATM   10  C   UNL     1       8.010  29.011  56.570  1.00  0.00     0.205 A 
HETATM   11  O   UNL     1       8.979  28.661  55.904  1.00  0.00    -0.286 OA
HETATM   12  H   UNL     1       4.941  30.021  58.693  1.00  0.00     0.167 HD
ENDROOT
BRANCH   9  13
HETATM   13  C   UNL     1       6.428  27.122  55.608  1.00  0.00     0.261 C 
HETATM   14  N   UNL     1       7.500  26.260  55.509  1.00  0.00    -0.323 N 
HETATM   15  H   UNL     1       8.359  26.537  55.987  1.00  0.00     0.169 HD
HETATM   16  O   UNL     1       5.338  26.970  55.063  1.00  0.00    -0.267 OA
BRANCH  14  17
HETATM   17  C   UNL     1       7.558  25.024  54.831  1.00  0.00     0.037 A 
HETATM   18  C   UNL     1       7.463  23.781  55.456  1.00  0.00     0.071 A 
HETATM   19  C   UNL     1       7.551  22.617  54.697  1.00  0.00     0.118 A 
HETATM   20  F   UNL     1       7.469  21.426  55.305  1.00  0.00    -0.206 F 
HETATM   21  C   UNL     1       7.726  22.663  53.319  1.00  0.00     0.042 A 
HETATM   22  C   UNL     1       7.819  23.897  52.685  1.00  0.00     0.005 A 
HETATM   23  C   UNL     1       7.739  25.072  53.439  1.00  0.00     0.029 A 
ENDBRANCH  14  17
ENDBRANCH   9  13
BRANCH   4  24
HETATM   24  C   UNL     1       6.489  32.420  59.826  1.00  0.00     0.060 A 
HETATM   25  C   UNL     1       5.341  33.040  59.319  1.00  0.00     0.031 A 
HETATM   26  C   UNL     1       4.578  33.881  60.136  1.00  0.00     0.002 A 
HETATM   27  C   UNL     1       4.959  34.114  61.456  1.00  0.00     0.000 A 
HETATM   28  C   UNL     1       6.114  33.522  61.960  1.00  0.00     0.002 A 
HETATM   29  C   UNL     1       6.883  32.685  61.149  1.00  0.00     0.031 A 
ENDBRANCH   4  24
TORSDOF 3
ENDMDL
MODEL 6
REMARK VINA RESULT:      -9.6      5.187      8.083
REMARK  3 active torsions:
REMARK  status: ('A' for Active; 'I' for Inactive)
REMARK    1  A    between atoms: N_4  and  C_5 
REMARK    2  A    between atoms: C_15  and  C_16 
REMARK       I    between atoms: C_16  and  N_17 
REMARK    3  A    between atoms: N_17  and  C_18 
ROOT
HETATM    1  C   UNL     1       5.299  26.260  56.702  1.00  0.00     0.073 C 
HETATM    2  C   UNL     1       5.814  25.441  55.578  1.00  0.00     0.069 A 
HETATM    3  N   UNL     1       6.549  24.346  55.815  1.00  0.00    -0.170 NA
HETATM    4  N   UNL     1       6.817  23.811  54.584  1.00  0.00    -0.216 N 
HETATM    5  C   UNL     1       6.364  24.662  53.587  1.00  0.00     0.145 A 
HETATM    6  C   UNL     1       5.677  25.685  54.200  1.00  0.00     0.087 A 
HETATM    7  N   UNL     1       6.560  24.619  52.248  1.00  0.00    -0.349 N 
HETATM    8  C   UNL     1       6.060  25.659  51.481  1.00  0.00     0.111 A 
HETATM    9  C   UNL     1       5.334  26.696  51.960  1.00  0.00     0.098 A 
HETATM   10  C   UNL     1       5.057  26.748  53.438  1.00  0.00     0.205 A 
HETATM   11  O   UNL     1       4.373  27.634  53.943  1.00  0.00    -0.286 OA
HETATM   12  H   UNL     1       7.260  24.028  51.800  1.00  0.00     0.167 HD
ENDROOT
BRANCH   9  13
HETATM   13  C   UNL     1       4.885  27.748  50.995  1.00  0.00     0.261 C 
HETATM   14  N   UNL     1       4.051  27.292  49.995  1.00  0.00    -0.323 N 
HETATM   15  H   UNL     1       3.849  26.290  49.985  1.00  0.00     0.169 HD
HETATM   16  O   UNL     1       5.268  28.906  51.131  1.00  0.00    -0.267 OA
BRANCH  14  17
HETATM   17  C   UNL     1       3.425  28.044  48.979  1.00  0.00     0.037 A 
HETATM   18  C   UNL     1       4.108  28.833  48.053  1.00  0.00     0.071 A 
HETATM   19  C   UNL     1       3.394  29.555  47.100  1.00  0.00     0.118 A 
HETATM   20  F   UNL     1       4.056  30.318  46.220  1.00  0.00    -0.206 F 
HETATM   21  C   UNL     1       2.006  29.504  47.044  1.00  0.00     0.042 A 
HETATM   22  C   UNL     1       1.315  28.719  47.961  1.00  0.00     0.005 A 
HETATM   23  C   UNL     1       2.023  27.996  48.926  1.00  0.00     0.029 A 
ENDBRANCH  14  17
ENDBRANCH   9  13
BRANCH   4  24
HETATM   24  C   UNL     1       7.463  22.547  54.484  1.00  0.00     0.060 A 
HETATM   25  C   UNL     1       7.874  22.023  53.253  1.00  0.00     0.031 A 
HETATM   26  C   UNL     1       8.507  20.777  53.195  1.00  0.00     0.002 A 
HETATM   27  C   UNL     1       8.726  20.046  54.361  1.00  0.00     0.000 A 
HETATM   28  C   UNL     1       8.297  20.548  55.587  1.00  0.00     0.002 A 
HETATM   29  C   UNL     1       7.660  21.788  55.650  1.00  0.00     0.031 A 
ENDBRANCH   4  24
TORSDOF 3
ENDMDL
MODEL 7
REMARK VINA RESULT:      -9.4      3.245      8.784
REMARK  3 active torsions:
REMARK  status: ('A' for Active; 'I' for Inactive)
REMARK    1  A    between atoms: N_4  and  C_5 
REMARK    2  A    between atoms: C_15  and  C_16 
REMARK       I    between atoms: C_16  and  N_17 
REMARK    3  A    between atoms: N_17  and  C_18 
ROOT
HETATM    1  C   UNL     1       4.676  30.972  55.467  1.00  0.00     0.073 C 
HETATM    2  C   UNL     1       5.603  30.421  56.486  1.00  0.00     0.069 A 
HETATM    3  N   UNL     1       6.205  31.233  57.366  1.00  0.00    -0.170 NA
HETATM    4  N   UNL     1       6.941  30.412  58.177  1.00  0.00    -0.216 N 
HETATM    5  C   UNL     1       6.900  29.111  57.699  1.00  0.00     0.145 A 
HETATM    6  C   UNL     1       6.012  29.086  56.649  1.00  0.00     0.087 A 
HETATM    7  N   UNL     1       7.605  28.019  58.080  1.00  0.00    -0.349 N 
HETATM    8  C   UNL     1       7.427  26.845  57.365  1.00  0.00     0.111 A 
HETATM    9  C   UNL     1       6.555  26.684  56.344  1.00  0.00     0.098 A 
HETATM   10  C   UNL     1       5.721  27.866  55.927  1.00  0.00     0.205 A 
HETATM   11  O   UNL     1       4.880  27.789  55.036  1.00  0.00    -0.286 OA
HETATM   12  H   UNL     1       8.434  28.062  58.673  1.00  0.00     0.167 HD
ENDROOT
BRANCH   9  13
HETATM   13  C   UNL     1       6.502  25.351  55.665  1.00  0.00     0.261 C 
HETATM   14  N   UNL     1       7.608  24.554  55.877  1.00  0.00    -0.323 N 
HETATM   15  H   UNL     1       8.363  24.954  56.437  1.00  0.00     0.169 HD
HETATM   16  O   UNL     1       5.526  25.051  54.983  1.00  0.00    -0.267 OA
BRANCH  14  17
HETATM   17  C   UNL     1       7.825  23.237  55.421  1.00  0.00     0.037 A 
HETATM   18  C   UNL     1       7.892  22.874  54.076  1.00  0.00     0.071 A 
HETATM   19  C   UNL     1       8.091  21.539  53.730  1.00  0.00     0.118 A 
HETATM   20  F   UNL     1       8.144  21.196  52.436  1.00  0.00    -0.206 F 
HETATM   21  C   UNL     1       8.233  20.553  54.699  1.00  0.00     0.042 A 
HETATM   22  C   UNL     1       8.171  20.905  56.043  1.00  0.00     0.005 A 
HETATM   23  C   UNL     1       7.964  22.241  56.401  1.00  0.00     0.029 A 
ENDBRANCH  14  17
ENDBRANCH   9  13
BRANCH   4  24
HETATM   24  C   UNL     1       7.597  30.946  59.323  1.00  0.00     0.060 A 
HETATM   25  C   UNL     1       7.038  31.985  60.076  1.00  0.00     0.031 A 
HETATM   26  C   UNL     1       7.712  32.482  61.196  1.00  0.00     0.002 A 
HETATM   27  C   UNL     1       8.947  31.952  61.565  1.00  0.00     0.000 A 
HETATM   28  C   UNL     1       9.522  30.936  60.806  1.00  0.00     0.002 A 
HETATM   29  C   UNL     1       8.856  30.439  59.684  1.00  0.00     0.031 A 
ENDBRANCH   4  24
TORSDOF 3
ENDMDL
MODEL 8
REMARK VINA RESULT:      -9.4      5.263      9.497
REMARK  3 active torsions:
REMARK  status: ('A' for Active; 'I' for Inactive)
REMARK    1  A    between atoms: N_4  and  C_5 
REMARK    2  A    between atoms: C_15  and  C_16 
REMARK       I    between atoms: C_16  and  N_17 
REMARK    3  A    between atoms: N_17  and  C_18 
ROOT
HETATM    1  C   UNL     1       7.095  23.979  54.315  1.00  0.00     0.073 C 
HETATM    2  C   UNL     1       7.141  25.454  54.460  1.00  0.00     0.069 A 
HETATM    3  N   UNL     1       7.535  26.012  55.613  1.00  0.00    -0.170 NA
HETATM    4  N   UNL     1       7.506  27.363  55.396  1.00  0.00    -0.216 N 
HETATM    5  C   UNL     1       6.955  27.632  54.152  1.00  0.00     0.145 A 
HETATM    6  C   UNL     1       6.761  26.427  53.518  1.00  0.00     0.087 A 
HETATM    7  N   UNL     1       6.584  28.812  53.599  1.00  0.00    -0.349 N 
HETATM    8  C   UNL     1       5.971  28.785  52.357  1.00  0.00     0.111 A 
HETATM    9  C   UNL     1       5.763  27.671  51.617  1.00  0.00     0.098 A 
HETATM   10  C   UNL     1       6.208  26.349  52.182  1.00  0.00     0.205 A 
HETATM   11  O   UNL     1       6.091  25.299  51.557  1.00  0.00    -0.286 OA
HETATM   12  H   UNL     1       6.484  29.676  54.131  1.00  0.00     0.167 HD
ENDROOT
BRANCH   9  13
HETATM   13  C   UNL     1       5.068  27.818  50.300  1.00  0.00     0.261 C 
HETATM   14  N   UNL     1       4.081  26.883  50.064  1.00  0.00    -0.323 N 
HETATM   15  H   UNL     1       3.942  26.169  50.782  1.00  0.00     0.169 HD
HETATM   16  O   UNL     1       5.399  28.716  49.531  1.00  0.00    -0.267 OA
BRANCH  14  17
HETATM   17  C   UNL     1       3.221  26.796  48.950  1.00  0.00     0.037 A 
HETATM   18  C   UNL     1       3.320  25.820  47.958  1.00  0.00     0.071 A 
HETATM   19  C   UNL     1       2.431  25.833  46.885  1.00  0.00     0.118 A 
HETATM   20  F   UNL     1       2.539  24.899  45.930  1.00  0.00    -0.206 F 
HETATM   21  C   UNL     1       1.436  26.798  46.780  1.00  0.00     0.042 A 
HETATM   22  C   UNL     1       1.327  27.773  47.766  1.00  0.00     0.005 A 
HETATM   23  C   UNL     1       2.218  27.773  48.843  1.00  0.00     0.029 A 
ENDBRANCH  14  17
ENDBRANCH   9  13
BRANCH   4  24
HETATM   24  C   UNL     1       8.011  28.253  56.385  1.00  0.00     0.060 A 
HETATM   25  C   UNL     1       7.298  28.539  57.555  1.00  0.00     0.031 A 
HETATM   26  C   UNL     1       7.829  29.420  58.503  1.00  0.00     0.002 A 
HETATM   27  C   UNL     1       9.066  30.023  58.287  1.00  0.00     0.000 A 
HETATM   28  C   UNL     1       9.770  29.764  57.114  1.00  0.00     0.002 A 
HETATM   29  C   UNL     1       9.243  28.890  56.161  1.00  0.00     0.031 A 
ENDBRANCH   4  24
TORSDOF 3
ENDMDL
MODEL 9
REMARK VINA RESULT:      -9.3      3.163      9.214
REMARK  3 active torsions:
REMARK  status: ('A' for Active; 'I' for Inactive)
REMARK    1  A    between atoms: N_4  and  C_5 
REMARK    2  A    between atoms: C_15  and  C_16 
REMARK       I    between atoms: C_16  and  N_17 
REMARK    3  A    between atoms: N_17  and  C_18 
ROOT
HETATM    1  C   UNL     1       4.559  33.152  56.923  1.00  0.00     0.073 C 
HETATM    2  C   UNL     1       5.439  32.483  57.911  1.00  0.00     0.069 A 
HETATM    3  N   UNL     1       5.734  33.080  59.073  1.00  0.00    -0.170 NA
HETATM    4  N   UNL     1       6.515  32.188  59.756  1.00  0.00    -0.216 N 
HETATM    5  C   UNL     1       6.814  31.102  58.947  1.00  0.00     0.145 A 
HETATM    6  C   UNL     1       6.098  31.247  57.782  1.00  0.00     0.087 A 
HETATM    7  N   UNL     1       7.679  30.078  59.146  1.00  0.00    -0.349 N 
HETATM    8  C   UNL     1       7.851  29.162  58.121  1.00  0.00     0.111 A 
HETATM    9  C   UNL     1       7.174  29.173  56.949  1.00  0.00     0.098 A 
HETATM   10  C   UNL     1       6.171  30.270  56.717  1.00  0.00     0.205 A 
HETATM   11  O   UNL     1       5.490  30.326  55.697  1.00  0.00    -0.286 OA
HETATM   12  H   UNL     1       8.395  30.079  59.872  1.00  0.00     0.167 HD
ENDROOT
BRANCH   9  13
HETATM   13  C   UNL     1       7.495  28.115  55.940  1.00  0.00     0.261 C 
HETATM   14  N   UNL     1       6.944  26.879  56.207  1.00  0.00    -0.323 N 
HETATM   15  H   UNL     1       6.407  26.792  57.071  1.00  0.00     0.169 HD
HETATM   16  O   UNL     1       8.204  28.387  54.974  1.00  0.00    -0.267 OA
BRANCH  14  17
HETATM   17  C   UNL     1       7.020  25.710  55.421  1.00  0.00     0.037 A 
HETATM   18  C   UNL     1       6.254  25.482  54.278  1.00  0.00     0.071 A 
HETATM   19  C   UNL     1       6.390  24.283  53.583  1.00  0.00     0.118 A 
HETATM   20  F   UNL     1       5.644  24.066  52.492  1.00  0.00    -0.206 F 
HETATM   21  C   UNL     1       7.282  23.302  54.000  1.00  0.00     0.042 A 
HETATM   22  C   UNL     1       8.053  23.520  55.137  1.00  0.00     0.005 A 
HETATM   23  C   UNL     1       7.918  24.718  55.846  1.00  0.00     0.029 A 
ENDBRANCH  14  17
ENDBRANCH   9  13
BRANCH   4  24
HETATM   24  C   UNL     1       6.885  32.454  61.105  1.00  0.00     0.060 A 
HETATM   25  C   UNL     1       8.105  32.017  61.635  1.00  0.00     0.031 A 
HETATM   26  C   UNL     1       8.433  32.298  62.966  1.00  0.00     0.002 A 
HETATM   27  C   UNL     1       7.546  33.007  63.774  1.00  0.00     0.000 A 
HETATM   28  C   UNL     1       6.320  33.423  63.261  1.00  0.00     0.002 A 
HETATM   29  C   UNL     1       5.984  33.140  61.936  1.00  0.00     0.031 A 
ENDBRANCH   4  24
TORSDOF 3
ENDMDL
MODEL 10
REMARK VINA RESULT:      -9.2      5.297      8.974
REMARK  3 active torsions:
REMARK  status: ('A' for Active; 'I' for Inactive)
REMARK    1  A    between atoms: N_4  and  C_5 
REMARK    2  A    between atoms: C_15  and  C_16 
REMARK       I    between atoms: C_16  and  N_17 
REMARK    3  A    between atoms: N_17  and  C_18 
ROOT
HETATM    1  C   UNL     1       4.081  30.482  52.988  1.00  0.00     0.073 C 
HETATM    2  C   UNL     1       3.917  29.514  51.876  1.00  0.00     0.069 A 
HETATM    3  N   UNL     1       2.955  29.689  50.959  1.00  0.00    -0.170 NA
HETATM    4  N   UNL     1       3.109  28.663  50.067  1.00  0.00    -0.216 N 
HETATM    5  C   UNL     1       4.077  27.780  50.520  1.00  0.00     0.145 A 
HETATM    6  C   UNL     1       4.640  28.330  51.649  1.00  0.00     0.087 A 
HETATM    7  N   UNL     1       4.432  26.559  50.053  1.00  0.00    -0.349 N 
HETATM    8  C   UNL     1       5.386  25.843  50.758  1.00  0.00     0.111 A 
HETATM    9  C   UNL     1       6.040  26.292  51.853  1.00  0.00     0.098 A 
HETATM   10  C   UNL     1       5.704  27.665  52.370  1.00  0.00     0.205 A 
HETATM   11  O   UNL     1       6.281  28.159  53.334  1.00  0.00    -0.286 OA
HETATM   12  H   UNL     1       3.873  26.027  49.386  1.00  0.00     0.167 HD
ENDROOT
BRANCH   9  13
HETATM   13  C   UNL     1       7.031  25.380  52.507  1.00  0.00     0.261 C 
HETATM   14  N   UNL     1       6.474  24.302  53.163  1.00  0.00    -0.323 N 
HETATM   15  H   UNL     1       5.453  24.246  53.172  1.00  0.00     0.169 HD
HETATM   16  O   UNL     1       8.231  25.628  52.435  1.00  0.00    -0.267 OA
BRANCH  14  17
HETATM   17  C   UNL     1       7.143  23.249  53.820  1.00  0.00     0.037 A 
HETATM   18  C   UNL     1       7.306  23.165  55.203  1.00  0.00     0.071 A 
HETATM   19  C   UNL     1       8.002  22.091  55.753  1.00  0.00     0.118 A 
HETATM   20  F   UNL     1       8.163  22.022  57.081  1.00  0.00    -0.206 F 
HETATM   21  C   UNL     1       8.537  21.088  54.952  1.00  0.00     0.042 A 
HETATM   22  C   UNL     1       8.378  21.161  53.572  1.00  0.00     0.005 A 
HETATM   23  C   UNL     1       7.687  22.239  53.010  1.00  0.00     0.029 A 
ENDBRANCH  14  17
ENDBRANCH   9  13
BRANCH   4  24
HETATM   24  C   UNL     1       2.330  28.634  48.876  1.00  0.00     0.060 A 
HETATM   25  C   UNL     1       1.462  27.574  48.587  1.00  0.00     0.031 A 
HETATM   26  C   UNL     1       0.713  27.582  47.406  1.00  0.00     0.002 A 
HETATM   27  C   UNL     1       0.830  28.639  46.506  1.00  0.00     0.000 A 
HETATM   28  C   UNL     1       1.710  29.685  46.774  1.00  0.00     0.002 A 
HETATM   29  C   UNL     1       2.465  29.680  47.948  1.00  0.00     0.031 A 
ENDBRANCH   4  24
TORSDOF 3
ENDMDL
