MODEL 1
REMARK VINA RESULT:      -9.1      0.000      0.000
REMARK  5 active torsions:
REMARK  status: ('A' for Active; 'I' for Inactive)
REMARK    1  A    between atoms: C_3  and  O_4 
REMARK    2  A    between atoms: O_4  and  C_5 
REMARK    3  A    between atoms: C_14  and  N_15 
REMARK       I    between atoms: N_15  and  C_16 
REMARK    4  A    between atoms: C_16  and  C_17 
REMARK    5  A    between atoms: C_17  and  C_18 
ROOT
HETATM    1  C   UNL     1       7.343  27.076  55.273  1.00  0.00     0.076 A 
HETATM    2  C   UNL     1       7.498  25.952  56.090  1.00  0.00     0.039 A 
HETATM    3  C   UNL     1       7.702  24.696  55.513  1.00  0.00     0.025 A 
HETATM    4  C   UNL     1       7.726  24.559  54.121  1.00  0.00     0.044 A 
HETATM    5  C   UNL     1       7.938  23.269  53.529  1.00  0.00     0.099 C 
HETATM    6  N   UNL     1       8.108  22.226  53.050  1.00  0.00    -0.191 NA
HETATM    7  C   UNL     1       7.537  25.682  53.308  1.00  0.00     0.025 A 
HETATM    8  C   UNL     1       7.339  26.939  53.885  1.00  0.00     0.039 A 
ENDROOT
BRANCH   1   9
HETATM    9  O   UNL     1       7.127  28.340  55.775  1.00  0.00    -0.311 OA
BRANCH   9  10
HETATM   10  C   UNL     1       8.186  28.972  56.392  1.00  0.00     0.078 A 
HETATM   11  C   UNL     1       9.309  29.220  55.606  1.00  0.00     0.037 A 
HETATM   12  C   UNL     1      10.417  29.849  56.167  1.00  0.00     0.005 A 
HETATM   13  C   UNL     1      10.399  30.224  57.513  1.00  0.00     0.029 A 
HETATM   14  C   UNL     1       9.284  29.954  58.319  1.00  0.00     0.037 A 
HETATM   15  C   UNL     1       8.186  29.305  57.753  1.00  0.00     0.066 A 
BRANCH  14  16
HETATM   16  N   UNL     1       9.339  30.385  59.662  1.00  0.00    -0.327 N 
HETATM   17  C   UNL     1       9.158  31.674  60.139  1.00  0.00     0.227 C 
HETATM   18  O   UNL     1       8.835  32.655  59.471  1.00  0.00    -0.273 OA
HETATM   19  H   UNL     1       9.555  29.670  60.344  1.00  0.00     0.169 HD
BRANCH  17  20
HETATM   20  C   UNL     1       9.405  31.805  61.643  1.00  0.00     0.159 C 
BRANCH  20  21
HETATM   21  C   UNL     1       8.130  32.072  62.384  1.00  0.00     0.017 A 
HETATM   22  N   UNL     1       6.913  31.603  61.939  1.00  0.00    -0.369 N 
HETATM   23  H   UNL     1       6.779  31.082  61.077  1.00  0.00     0.165 HD
HETATM   24  C   UNL     1       5.927  31.983  62.807  1.00  0.00     0.088 A 
HETATM   25  C   UNL     1       6.511  32.691  63.831  1.00  0.00     0.019 A 
HETATM   26  C   UNL     1       7.900  32.747  63.568  1.00  0.00     0.027 A 
ENDBRANCH  20  21
ENDBRANCH  17  20
ENDBRANCH  14  16
ENDBRANCH   9  10
ENDBRANCH   1   9
TORSDOF 5
ENDMDL
MODEL 2
REMARK VINA RESULT:      -9.1      1.567      2.555
REMARK  5 active torsions:
REMARK  status: ('A' for Active; 'I' for Inactive)
REMARK    1  A    between atoms: C_3  and  O_4 
REMARK    2  A    between atoms: O_4  and  C_5 
REMARK    3  A    between atoms: C_14  and  N_15 
REMARK       I    between atoms: N_15  and  C_16 
REMARK    4  A    between atoms: C_16  and  C_17 
REMARK    5  A    between atoms: C_17  and  C_18 
ROOT
HETATM    1  C   UNL     1       7.504  25.657  53.832  1.00  0.00     0.076 A 
HETATM    2  C   UNL     1       7.324  24.815  54.935  1.00  0.00     0.039 A 
HETATM    3  C   UNL     1       7.468  23.433  54.785  1.00  0.00     0.025 A 
HETATM    4  C   UNL     1       7.769  22.890  53.530  1.00  0.00     0.044 A 
HETATM    5  C   UNL     1       7.921  21.472  53.379  1.00  0.00     0.099 C 
HETATM    6  N   UNL     1       8.041  20.324  53.255  1.00  0.00    -0.191 NA
HETATM    7  C   UNL     1       7.915  23.735  52.425  1.00  0.00     0.025 A 
HETATM    8  C   UNL     1       7.775  25.117  52.575  1.00  0.00     0.039 A 
ENDROOT
BRANCH   1   9
HETATM    9  O   UNL     1       7.364  27.024  53.907  1.00  0.00    -0.311 OA
BRANCH   9  10
HETATM   10  C   UNL     1       6.883  27.554  55.085  1.00  0.00     0.078 A 
HETATM   11  C   UNL     1       5.498  27.595  55.232  1.00  0.00     0.037 A 
HETATM   12  C   UNL     1       4.944  28.123  56.395  1.00  0.00     0.005 A 
HETATM   13  C   UNL     1       5.777  28.611  57.405  1.00  0.00     0.029 A 
HETATM   14  C   UNL     1       7.171  28.599  57.255  1.00  0.00     0.037 A 
HETATM   15  C   UNL     1       7.716  28.086  56.077  1.00  0.00     0.066 A 
BRANCH  14  16
HETATM   16  N   UNL     1       7.940  29.090  58.332  1.00  0.00    -0.327 N 
HETATM   17  C   UNL     1       8.091  30.411  58.724  1.00  0.00     0.227 C 
HETATM   18  O   UNL     1       7.505  31.380  58.244  1.00  0.00    -0.273 OA
HETATM   19  H   UNL     1       8.453  28.395  58.858  1.00  0.00     0.169 HD
BRANCH  17  20
HETATM   20  C   UNL     1       9.096  30.596  59.862  1.00  0.00     0.159 C 
BRANCH  20  21
HETATM   21  C   UNL     1       8.451  31.215  61.064  1.00  0.00     0.017 A 
HETATM   22  N   UNL     1       7.102  31.091  61.316  1.00  0.00    -0.369 N 
HETATM   23  H   UNL     1       6.445  30.613  60.706  1.00  0.00     0.165 HD
HETATM   24  C   UNL     1       6.788  31.741  62.479  1.00  0.00     0.088 A 
HETATM   25  C   UNL     1       7.945  32.278  62.992  1.00  0.00     0.019 A 
HETATM   26  C   UNL     1       8.996  31.946  62.103  1.00  0.00     0.027 A 
ENDBRANCH  20  21
ENDBRANCH  17  20
ENDBRANCH  14  16
ENDBRANCH   9  10
ENDBRANCH   1   9
TORSDOF 5
ENDMDL
MODEL 3
REMARK VINA RESULT:      -8.8      6.539     10.382
REMARK  5 active torsions:
REMARK  status: ('A' for Active; 'I' for Inactive)
REMARK    1  A    between atoms: C_3  and  O_4 
REMARK    2  A    between atoms: O_4  and  C_5 
REMARK    3  A    between atoms: C_14  and  N_15 
REMARK       I    between atoms: N_15  and  C_16 
REMARK    4  A    between atoms: C_16  and  C_17 
REMARK    5  A    between atoms: C_17  and  C_18 
ROOT
HETATM    1  C   UNL     1       5.802  32.636  63.259  1.00  0.00     0.076 A 
HETATM    2  C   UNL     1       7.158  32.605  63.598  1.00  0.00     0.039 A 
HETATM    3  C   UNL     1       8.125  32.550  62.591  1.00  0.00     0.025 A 
HETATM    4  C   UNL     1       7.737  32.502  61.247  1.00  0.00     0.044 A 
HETATM    5  C   UNL     1       8.731  32.450  60.213  1.00  0.00     0.099 C 
HETATM    6  N   UNL     1       9.534  32.405  59.377  1.00  0.00    -0.191 NA
HETATM    7  C   UNL     1       6.378  32.499  60.915  1.00  0.00     0.025 A 
HETATM    8  C   UNL     1       5.411  32.559  61.922  1.00  0.00     0.039 A 
ENDROOT
BRANCH   1   9
HETATM    9  O   UNL     1       4.798  32.676  64.201  1.00  0.00    -0.311 OA
BRANCH   9  10
HETATM   10  C   UNL     1       4.722  33.794  65.005  1.00  0.00     0.078 A 
HETATM   11  C   UNL     1       4.396  34.994  64.377  1.00  0.00     0.037 A 
HETATM   12  C   UNL     1       4.308  36.163  65.128  1.00  0.00     0.005 A 
HETATM   13  C   UNL     1       4.551  36.128  66.504  1.00  0.00     0.029 A 
HETATM   14  C   UNL     1       4.906  34.930  67.140  1.00  0.00     0.037 A 
HETATM   15  C   UNL     1       5.011  33.767  66.375  1.00  0.00     0.066 A 
BRANCH  14  16
HETATM   16  N   UNL     1       5.112  34.977  68.536  1.00  0.00    -0.327 N 
HETATM   17  C   UNL     1       6.320  34.908  69.210  1.00  0.00     0.227 C 
HETATM   18  O   UNL     1       7.437  34.876  68.694  1.00  0.00    -0.273 OA
HETATM   19  H   UNL     1       4.275  35.048  69.100  1.00  0.00     0.169 HD
BRANCH  17  20
HETATM   20  C   UNL     1       6.166  34.868  70.731  1.00  0.00     0.159 C 
BRANCH  20  21
HETATM   21  C   UNL     1       6.789  33.635  71.311  1.00  0.00     0.017 A 
HETATM   22  N   UNL     1       6.370  32.370  70.960  1.00  0.00    -0.369 N 
HETATM   23  H   UNL     1       5.603  32.175  70.323  1.00  0.00     0.165 HD
HETATM   24  C   UNL     1       7.114  31.436  71.628  1.00  0.00     0.088 A 
HETATM   25  C   UNL     1       8.032  32.101  72.407  1.00  0.00     0.019 A 
HETATM   26  C   UNL     1       7.830  33.487  72.208  1.00  0.00     0.027 A 
ENDBRANCH  20  21
ENDBRANCH  17  20
ENDBRANCH  14  16
ENDBRANCH   9  10
ENDBRANCH   1   9
TORSDOF 5
ENDMDL
MODEL 4
REMARK VINA RESULT:      -8.8      2.159      3.878
REMARK  5 active torsions:
REMARK  status: ('A' for Active; 'I' for Inactive)
REMARK    1  A    between atoms: C_3  and  O_4 
REMARK    2  A    between atoms: O_4  and  C_5 
REMARK    3  A    between atoms: C_14  and  N_15 
REMARK       I    between atoms: N_15  and  C_16 
REMARK    4  A    between atoms: C_16  and  C_17 
REMARK    5  A    between atoms: C_17  and  C_18 
ROOT
HETATM    1  C   UNL     1       7.038  24.465  53.758  1.00  0.00     0.076 A 
HETATM    2  C   UNL     1       6.771  24.098  55.080  1.00  0.00     0.039 A 
HETATM    3  C   UNL     1       7.406  22.982  55.634  1.00  0.00     0.025 A 
HETATM    4  C   UNL     1       8.288  22.220  54.859  1.00  0.00     0.044 A 
HETATM    5  C   UNL     1       8.942  21.078  55.429  1.00  0.00     0.099 C 
HETATM    6  N   UNL     1       9.469  20.152  55.889  1.00  0.00    -0.191 NA
HETATM    7  C   UNL     1       8.525  22.573  53.526  1.00  0.00     0.025 A 
HETATM    8  C   UNL     1       7.895  23.692  52.974  1.00  0.00     0.039 A 
ENDROOT
BRANCH   1   9
HETATM    9  O   UNL     1       6.439  25.544  53.147  1.00  0.00    -0.311 OA
BRANCH   9  10
HETATM   10  C   UNL     1       6.300  26.700  53.885  1.00  0.00     0.078 A 
HETATM   11  C   UNL     1       5.024  27.257  53.939  1.00  0.00     0.037 A 
HETATM   12  C   UNL     1       4.814  28.429  54.661  1.00  0.00     0.005 A 
HETATM   13  C   UNL     1       5.882  29.040  55.324  1.00  0.00     0.029 A 
HETATM   14  C   UNL     1       7.175  28.502  55.253  1.00  0.00     0.037 A 
HETATM   15  C   UNL     1       7.379  27.338  54.510  1.00  0.00     0.066 A 
BRANCH  14  16
HETATM   16  N   UNL     1       8.192  29.169  55.969  1.00  0.00    -0.327 N 
HETATM   17  C   UNL     1       8.606  28.921  57.268  1.00  0.00     0.227 C 
HETATM   18  O   UNL     1       8.207  28.012  57.995  1.00  0.00    -0.273 OA
HETATM   19  H   UNL     1       8.650  29.925  55.478  1.00  0.00     0.169 HD
BRANCH  17  20
HETATM   20  C   UNL     1       9.655  29.914  57.771  1.00  0.00     0.159 C 
BRANCH  20  21
HETATM   21  C   UNL     1       9.145  30.702  58.939  1.00  0.00     0.017 A 
HETATM   22  N   UNL     1       8.066  30.285  59.687  1.00  0.00    -0.369 N 
HETATM   23  H   UNL     1       7.520  29.450  59.493  1.00  0.00     0.165 HD
HETATM   24  C   UNL     1       7.826  31.183  60.691  1.00  0.00     0.088 A 
HETATM   25  C   UNL     1       8.766  32.183  60.601  1.00  0.00     0.019 A 
HETATM   26  C   UNL     1       9.600  31.881  59.499  1.00  0.00     0.027 A 
ENDBRANCH  20  21
ENDBRANCH  17  20
ENDBRANCH  14  16
ENDBRANCH   9  10
ENDBRANCH   1   9
TORSDOF 5
ENDMDL
MODEL 5
REMARK VINA RESULT:      -8.7      1.564      2.698
REMARK  5 active torsions:
REMARK  status: ('A' for Active; 'I' for Inactive)
REMARK    1  A    between atoms: C_3  and  O_4 
REMARK    2  A    between atoms: O_4  and  C_5 
REMARK    3  A    between atoms: C_14  and  N_15 
REMARK       I    between atoms: N_15  and  C_16 
REMARK    4  A    between atoms: C_16  and  C_17 
REMARK    5  A    between atoms: C_17  and  C_18 
ROOT
HETATM    1  C   UNL     1       6.777  24.434  55.235  1.00  0.00     0.076 A 
HETATM    2  C   UNL     1       6.685  24.206  53.858  1.00  0.00     0.039 A 
HETATM    3  C   UNL     1       7.194  23.024  53.314  1.00  0.00     0.025 A 
HETATM    4  C   UNL     1       7.815  22.080  54.141  1.00  0.00     0.044 A 
HETATM    5  C   UNL     1       8.333  20.865  53.582  1.00  0.00     0.099 C 
HETATM    6  N   UNL     1       8.755  19.883  53.130  1.00  0.00    -0.191 NA
HETATM    7  C   UNL     1       7.933  22.329  55.512  1.00  0.00     0.025 A 
HETATM    8  C   UNL     1       7.420  23.509  56.058  1.00  0.00     0.039 A 
ENDROOT
BRANCH   1   9
HETATM    9  O   UNL     1       6.309  25.582  55.834  1.00  0.00    -0.311 OA
BRANCH   9  10
HETATM   10  C   UNL     1       7.076  26.721  55.718  1.00  0.00     0.078 A 
HETATM   11  C   UNL     1       7.282  27.207  54.428  1.00  0.00     0.037 A 
HETATM   12  C   UNL     1       8.053  28.351  54.238  1.00  0.00     0.005 A 
HETATM   13  C   UNL     1       8.619  29.001  55.337  1.00  0.00     0.029 A 
HETATM   14  C   UNL     1       8.441  28.505  56.636  1.00  0.00     0.037 A 
HETATM   15  C   UNL     1       7.682  27.346  56.815  1.00  0.00     0.066 A 
BRANCH  14  16
HETATM   16  N   UNL     1       9.027  29.234  57.693  1.00  0.00    -0.327 N 
HETATM   17  C   UNL     1       8.564  30.409  58.261  1.00  0.00     0.227 C 
HETATM   18  O   UNL     1       7.506  30.977  57.992  1.00  0.00    -0.273 OA
HETATM   19  H   UNL     1       9.895  28.860  58.055  1.00  0.00     0.169 HD
BRANCH  17  20
HETATM   20  C   UNL     1       9.514  30.993  59.310  1.00  0.00     0.159 C 
BRANCH  20  21
HETATM   21  C   UNL     1       8.814  31.217  60.615  1.00  0.00     0.017 A 
HETATM   22  N   UNL     1       7.443  31.142  60.732  1.00  0.00    -0.369 N 
HETATM   23  H   UNL     1       6.808  30.968  59.958  1.00  0.00     0.165 HD
HETATM   24  C   UNL     1       7.077  31.377  62.030  1.00  0.00     0.088 A 
HETATM   25  C   UNL     1       8.221  31.593  62.762  1.00  0.00     0.019 A 
HETATM   26  C   UNL     1       9.318  31.490  61.873  1.00  0.00     0.027 A 
ENDBRANCH  20  21
ENDBRANCH  17  20
ENDBRANCH  14  16
ENDBRANCH   9  10
ENDBRANCH   1   9
TORSDOF 5
ENDMDL
MODEL 6
REMARK VINA RESULT:      -8.2      3.144      5.559
REMARK  5 active torsions:
REMARK  status: ('A' for Active; 'I' for Inactive)
REMARK    1  A    between atoms: C_3  and  O_4 
REMARK    2  A    between atoms: O_4  and  C_5 
REMARK    3  A    between atoms: C_14  and  N_15 
REMARK       I    between atoms: N_15  and  C_16 
REMARK    4  A    between atoms: C_16  and  C_17 
REMARK    5  A    between atoms: C_17  and  C_18 
ROOT
HETATM    1  C   UNL     1       7.023  30.916  58.372  1.00  0.00     0.076 A 
HETATM    2  C   UNL     1       5.725  30.812  57.864  1.00  0.00     0.039 A 
HETATM    3  C   UNL     1       5.274  29.593  57.350  1.00  0.00     0.025 A 
HETATM    4  C   UNL     1       6.128  28.485  57.322  1.00  0.00     0.044 A 
HETATM    5  C   UNL     1       5.663  27.233  56.798  1.00  0.00     0.099 C 
HETATM    6  N   UNL     1       5.288  26.220  56.372  1.00  0.00    -0.191 NA
HETATM    7  C   UNL     1       7.437  28.603  57.801  1.00  0.00     0.025 A 
HETATM    8  C   UNL     1       7.886  29.821  58.320  1.00  0.00     0.039 A 
ENDROOT
BRANCH   1   9
HETATM    9  O   UNL     1       7.535  32.089  58.880  1.00  0.00    -0.311 OA
BRANCH   9  10
HETATM   10  C   UNL     1       7.716  32.168  60.245  1.00  0.00     0.078 A 
HETATM   11  C   UNL     1       9.015  31.985  60.714  1.00  0.00     0.037 A 
HETATM   12  C   UNL     1       9.269  32.046  62.082  1.00  0.00     0.005 A 
HETATM   13  C   UNL     1       8.221  32.284  62.975  1.00  0.00     0.029 A 
HETATM   14  C   UNL     1       6.906  32.442  62.515  1.00  0.00     0.037 A 
HETATM   15  C   UNL     1       6.659  32.360  61.143  1.00  0.00     0.066 A 
BRANCH  14  16
HETATM   16  N   UNL     1       5.911  32.702  63.481  1.00  0.00    -0.327 N 
HETATM   17  C   UNL     1       5.593  33.923  64.053  1.00  0.00     0.227 C 
HETATM   18  O   UNL     1       6.078  35.013  63.751  1.00  0.00    -0.273 OA
HETATM   19  H   UNL     1       5.389  31.896  63.801  1.00  0.00     0.169 HD
BRANCH  17  20
HETATM   20  C   UNL     1       4.538  33.822  65.156  1.00  0.00     0.159 C 
BRANCH  20  21
HETATM   21  C   UNL     1       5.145  34.016  66.512  1.00  0.00     0.017 A 
HETATM   22  N   UNL     1       6.501  34.182  66.689  1.00  0.00    -0.369 N 
HETATM   23  H   UNL     1       7.187  34.153  65.940  1.00  0.00     0.165 HD
HETATM   24  C   UNL     1       6.776  34.349  68.019  1.00  0.00     0.088 A 
HETATM   25  C   UNL     1       5.587  34.303  68.708  1.00  0.00     0.019 A 
HETATM   26  C   UNL     1       4.557  34.096  67.760  1.00  0.00     0.027 A 
ENDBRANCH  20  21
ENDBRANCH  17  20
ENDBRANCH  14  16
ENDBRANCH   9  10
ENDBRANCH   1   9
TORSDOF 5
ENDMDL
MODEL 7
REMARK VINA RESULT:      -8.1      4.473     10.243
REMARK  5 active torsions:
REMARK  status: ('A' for Active; 'I' for Inactive)
REMARK    1  A    between atoms: C_3  and  O_4 
REMARK    2  A    between atoms: O_4  and  C_5 
REMARK    3  A    between atoms: C_14  and  N_15 
REMARK       I    between atoms: N_15  and  C_16 
REMARK    4  A    between atoms: C_16  and  C_17 
REMARK    5  A    between atoms: C_17  and  C_18 
ROOT
HETATM    1  C   UNL     1       6.573  26.386  56.389  1.00  0.00     0.076 A 
HETATM    2  C   UNL     1       5.562  27.289  56.733  1.00  0.00     0.039 A 
HETATM    3  C   UNL     1       5.886  28.480  57.387  1.00  0.00     0.025 A 
HETATM    4  C   UNL     1       7.217  28.759  57.719  1.00  0.00     0.044 A 
HETATM    5  C   UNL     1       7.550  29.984  58.388  1.00  0.00     0.099 C 
HETATM    6  N   UNL     1       7.819  30.974  58.930  1.00  0.00    -0.191 NA
HETATM    7  C   UNL     1       8.220  27.836  57.403  1.00  0.00     0.025 A 
HETATM    8  C   UNL     1       7.897  26.647  56.745  1.00  0.00     0.039 A 
ENDROOT
BRANCH   1   9
HETATM    9  O   UNL     1       6.322  25.189  55.756  1.00  0.00    -0.311 OA
BRANCH   9  10
HETATM   10  C   UNL     1       6.674  25.084  54.428  1.00  0.00     0.078 A 
HETATM   11  C   UNL     1       7.593  24.089  54.102  1.00  0.00     0.037 A 
HETATM   12  C   UNL     1       7.998  23.931  52.779  1.00  0.00     0.005 A 
HETATM   13  C   UNL     1       7.484  24.771  51.787  1.00  0.00     0.029 A 
HETATM   14  C   UNL     1       6.579  25.793  52.109  1.00  0.00     0.037 A 
HETATM   15  C   UNL     1       6.194  25.955  53.442  1.00  0.00     0.066 A 
BRANCH  14  16
HETATM   16  N   UNL     1       6.090  26.582  51.046  1.00  0.00    -0.327 N 
HETATM   17  C   UNL     1       5.016  26.303  50.217  1.00  0.00     0.227 C 
HETATM   18  O   UNL     1       4.247  25.348  50.323  1.00  0.00    -0.273 OA
HETATM   19  H   UNL     1       6.602  27.435  50.863  1.00  0.00     0.169 HD
BRANCH  17  20
HETATM   20  C   UNL     1       4.838  27.322  49.090  1.00  0.00     0.159 C 
BRANCH  20  21
HETATM   21  C   UNL     1       3.495  27.187  48.439  1.00  0.00     0.017 A 
HETATM   22  N   UNL     1       2.335  27.588  49.066  1.00  0.00    -0.369 N 
HETATM   23  H   UNL     1       2.292  27.965  50.009  1.00  0.00     0.165 HD
HETATM   24  C   UNL     1       1.265  27.361  48.244  1.00  0.00     0.088 A 
HETATM   25  C   UNL     1       1.736  26.822  47.070  1.00  0.00     0.019 A 
HETATM   26  C   UNL     1       3.143  26.714  47.189  1.00  0.00     0.027 A 
ENDBRANCH  20  21
ENDBRANCH  17  20
ENDBRANCH  14  16
ENDBRANCH   9  10
ENDBRANCH   1   9
TORSDOF 5
ENDMDL
MODEL 8
REMARK VINA RESULT:      -8.1      5.873      9.297
REMARK  5 active torsions:
REMARK  status: ('A' for Active; 'I' for Inactive)
REMARK    1  A    between atoms: C_3  and  O_4 
REMARK    2  A    between atoms: O_4  and  C_5 
REMARK    3  A    between atoms: C_14  and  N_15 
REMARK       I    between atoms: N_15  and  C_16 
REMARK    4  A    between atoms: C_16  and  C_17 
REMARK    5  A    between atoms: C_17  and  C_18 
ROOT
HETATM    1  C   UNL     1       7.666  25.626  53.821  1.00  0.00     0.076 A 
HETATM    2  C   UNL     1       7.871  25.142  52.525  1.00  0.00     0.039 A 
HETATM    3  C   UNL     1       7.964  23.765  52.303  1.00  0.00     0.025 A 
HETATM    4  C   UNL     1       7.875  22.874  53.379  1.00  0.00     0.044 A 
HETATM    5  C   UNL     1       7.967  21.460  53.150  1.00  0.00     0.099 C 
HETATM    6  N   UNL     1       8.043  20.317  52.965  1.00  0.00    -0.191 NA
HETATM    7  C   UNL     1       7.703  23.365  54.677  1.00  0.00     0.025 A 
HETATM    8  C   UNL     1       7.605  24.741  54.898  1.00  0.00     0.039 A 
ENDROOT
BRANCH   1   9
HETATM    9  O   UNL     1       7.578  26.969  54.112  1.00  0.00    -0.311 OA
BRANCH   9  10
HETATM   10  C   UNL     1       6.318  27.523  54.195  1.00  0.00     0.078 A 
HETATM   11  C   UNL     1       5.945  28.043  55.432  1.00  0.00     0.037 A 
HETATM   12  C   UNL     1       4.684  28.612  55.589  1.00  0.00     0.005 A 
HETATM   13  C   UNL     1       3.800  28.656  54.507  1.00  0.00     0.029 A 
HETATM   14  C   UNL     1       4.156  28.111  53.266  1.00  0.00     0.037 A 
HETATM   15  C   UNL     1       5.415  27.525  53.124  1.00  0.00     0.066 A 
BRANCH  14  16
HETATM   16  N   UNL     1       3.214  28.217  52.220  1.00  0.00    -0.327 N 
HETATM   17  C   UNL     1       3.103  29.236  51.288  1.00  0.00     0.227 C 
HETATM   18  O   UNL     1       3.868  30.191  51.164  1.00  0.00    -0.273 OA
HETATM   19  H   UNL     1       2.534  27.469  52.166  1.00  0.00     0.169 HD
BRANCH  17  20
HETATM   20  C   UNL     1       1.889  29.088  50.368  1.00  0.00     0.159 C 
BRANCH  20  21
HETATM   21  C   UNL     1       2.179  28.161  49.227  1.00  0.00     0.017 A 
HETATM   22  N   UNL     1       1.220  27.319  48.708  1.00  0.00    -0.369 N 
HETATM   23  H   UNL     1       0.274  27.233  49.068  1.00  0.00     0.165 HD
HETATM   24  C   UNL     1       1.751  26.597  47.674  1.00  0.00     0.088 A 
HETATM   25  C   UNL     1       3.060  26.986  47.512  1.00  0.00     0.019 A 
HETATM   26  C   UNL     1       3.332  27.974  48.489  1.00  0.00     0.027 A 
ENDBRANCH  20  21
ENDBRANCH  17  20
ENDBRANCH  14  16
ENDBRANCH   9  10
ENDBRANCH   1   9
TORSDOF 5
ENDMDL
MODEL 9
REMARK VINA RESULT:      -7.9      1.113      1.349
REMARK  5 active torsions:
REMARK  status: ('A' for Active; 'I' for Inactive)
REMARK    1  A    between atoms: C_3  and  O_4 
REMARK    2  A    between atoms: O_4  and  C_5 
REMARK    3  A    between atoms: C_14  and  N_15 
REMARK       I    between atoms: N_15  and  C_16 
REMARK    4  A    between atoms: C_16  and  C_17 
REMARK    5  A    between atoms: C_17  and  C_18 
ROOT
HETATM    1  C   UNL     1       6.994  27.000  54.914  1.00  0.00     0.076 A 
HETATM    2  C   UNL     1       6.847  25.863  55.714  1.00  0.00     0.039 A 
HETATM    3  C   UNL     1       7.088  24.596  55.175  1.00  0.00     0.025 A 
HETATM    4  C   UNL     1       7.454  24.464  53.831  1.00  0.00     0.044 A 
HETATM    5  C   UNL     1       7.705  23.164  53.279  1.00  0.00     0.099 C 
HETATM    6  N   UNL     1       7.907  22.113  52.831  1.00  0.00    -0.191 NA
HETATM    7  C   UNL     1       7.567  25.603  53.026  1.00  0.00     0.025 A 
HETATM    8  C   UNL     1       7.331  26.870  53.566  1.00  0.00     0.039 A 
ENDROOT
BRANCH   1   9
HETATM    9  O   UNL     1       6.760  28.275  55.377  1.00  0.00    -0.311 OA
BRANCH   9  10
HETATM   10  C   UNL     1       7.678  28.815  56.252  1.00  0.00     0.078 A 
HETATM   11  C   UNL     1       8.982  28.952  55.782  1.00  0.00     0.037 A 
HETATM   12  C   UNL     1       9.963  29.485  56.615  1.00  0.00     0.005 A 
HETATM   13  C   UNL     1       9.635  29.874  57.917  1.00  0.00     0.029 A 
HETATM   14  C   UNL     1       8.332  29.715  58.408  1.00  0.00     0.037 A 
HETATM   15  C   UNL     1       7.360  29.162  57.572  1.00  0.00     0.066 A 
BRANCH  14  16
HETATM   16  N   UNL     1       8.080  30.154  59.726  1.00  0.00    -0.327 N 
HETATM   17  C   UNL     1       7.694  31.422  60.130  1.00  0.00     0.227 C 
HETATM   18  O   UNL     1       7.424  32.367  59.390  1.00  0.00    -0.273 OA
HETATM   19  H   UNL     1       8.219  29.464  60.452  1.00  0.00     0.169 HD
BRANCH  17  20
HETATM   20  C   UNL     1       7.624  31.580  61.650  1.00  0.00     0.159 C 
BRANCH  20  21
HETATM   21  C   UNL     1       6.548  32.543  62.050  1.00  0.00     0.017 A 
HETATM   22  N   UNL     1       6.714  33.907  61.954  1.00  0.00    -0.369 N 
HETATM   23  H   UNL     1       7.569  34.362  61.647  1.00  0.00     0.165 HD
HETATM   24  C   UNL     1       5.576  34.541  62.373  1.00  0.00     0.088 A 
HETATM   25  C   UNL     1       4.660  33.580  62.729  1.00  0.00     0.019 A 
HETATM   26  C   UNL     1       5.269  32.319  62.524  1.00  0.00     0.027 A 
ENDBRANCH  20  21
ENDBRANCH  17  20
ENDBRANCH  14  16
ENDBRANCH   9  10
ENDBRANCH   1   9
TORSDOF 5
ENDMDL
MODEL 10
REMARK VINA RESULT:      -7.8      1.907      8.949
REMARK  5 active torsions:
REMARK  status: ('A' for Active; 'I' for Inactive)
REMARK    1  A    between atoms: C_3  and  O_4 
REMARK    2  A    between atoms: O_4  and  C_5 
REMARK    3  A    between atoms: C_14  and  N_15 
REMARK       I    between atoms: N_15  and  C_16 
REMARK    4  A    between atoms: C_16  and  C_17 
REMARK    5  A    between atoms: C_17  and  C_18 
ROOT
HETATM    1  C   UNL     1       7.188  32.399  60.012  1.00  0.00     0.076 A 
HETATM    2  C   UNL     1       7.980  32.326  61.162  1.00  0.00     0.039 A 
HETATM    3  C   UNL     1       7.387  32.436  62.422  1.00  0.00     0.025 A 
HETATM    4  C   UNL     1       6.007  32.643  62.533  1.00  0.00     0.044 A 
HETATM    5  C   UNL     1       5.398  32.752  63.828  1.00  0.00     0.099 C 
HETATM    6  N   UNL     1       4.906  32.843  64.875  1.00  0.00    -0.191 NA
HETATM    7  C   UNL     1       5.225  32.749  61.379  1.00  0.00     0.025 A 
HETATM    8  C   UNL     1       5.817  32.634  60.118  1.00  0.00     0.039 A 
ENDROOT
BRANCH   1   9
HETATM    9  O   UNL     1       7.708  32.311  58.740  1.00  0.00    -0.311 OA
BRANCH   9  10
HETATM   10  C   UNL     1       8.242  31.101  58.350  1.00  0.00     0.078 A 
HETATM   11  C   UNL     1       9.618  31.066  58.137  1.00  0.00     0.037 A 
HETATM   12  C   UNL     1      10.223  29.877  57.736  1.00  0.00     0.005 A 
HETATM   13  C   UNL     1       9.448  28.730  57.546  1.00  0.00     0.029 A 
HETATM   14  C   UNL     1       8.058  28.763  57.732  1.00  0.00     0.037 A 
HETATM   15  C   UNL     1       7.459  29.964  58.115  1.00  0.00     0.066 A 
BRANCH  14  16
HETATM   16  N   UNL     1       7.353  27.555  57.541  1.00  0.00    -0.327 N 
HETATM   17  C   UNL     1       6.526  27.223  56.480  1.00  0.00     0.227 C 
HETATM   18  O   UNL     1       6.331  27.903  55.473  1.00  0.00    -0.273 OA
HETATM   19  H   UNL     1       7.451  26.869  58.278  1.00  0.00     0.169 HD
BRANCH  17  20
HETATM   20  C   UNL     1       5.826  25.874  56.654  1.00  0.00     0.159 C 
BRANCH  20  21
HETATM   21  C   UNL     1       6.330  24.866  55.668  1.00  0.00     0.017 A 
HETATM   22  N   UNL     1       6.079  24.976  54.317  1.00  0.00    -0.369 N 
HETATM   23  H   UNL     1       5.518  25.709  53.894  1.00  0.00     0.165 HD
HETATM   24  C   UNL     1       6.663  23.931  53.653  1.00  0.00     0.088 A 
HETATM   25  C   UNL     1       7.310  23.147  54.579  1.00  0.00     0.019 A 
HETATM   26  C   UNL     1       7.103  23.735  55.850  1.00  0.00     0.027 A 
ENDBRANCH  20  21
ENDBRANCH  17  20
ENDBRANCH  14  16
ENDBRANCH   9  10
ENDBRANCH   1   9
TORSDOF 5
ENDMDL
