MODEL 1
REMARK VINA RESULT:     -10.1      0.000      0.000
REMARK  7 active torsions:
REMARK  status: ('A' for Active; 'I' for Inactive)
REMARK    1  A    between atoms: N_3  and  N_4 
REMARK       I    between atoms: N_4  and  C_5 
REMARK    2  A    between atoms: C_5  and  C_6 
REMARK    3  A    between atoms: C_9  and  O_10 
REMARK    4  A    between atoms: O_10  and  C_11 
REMARK    5  A    between atoms: C_11  and  C_12 
REMARK       I    between atoms: C_12  and  N_13 
REMARK    6  A    between atoms: N_13  and  C_14 
REMARK    7  A    between atoms: C_17  and  O_18 
ROOT
HETATM    1  C   UNL     1       6.963  26.353  56.376  1.00  0.00     0.033 A 
HETATM    2  C   UNL     1       5.803  27.071  56.690  1.00  0.00     0.020 A 
HETATM    3  C   UNL     1       5.905  28.312  57.325  1.00  0.00     0.038 A 
HETATM    4  C   UNL     1       7.156  28.833  57.664  1.00  0.00     0.069 A 
HETATM    5  C   UNL     1       8.315  28.131  57.329  1.00  0.00     0.038 A 
HETATM    6  C   UNL     1       8.217  26.895  56.683  1.00  0.00     0.020 A 
ENDROOT
BRANCH   4   7
HETATM    7  O   UNL     1       7.144  30.069  58.251  1.00  0.00    -0.342 OA
BRANCH   7   8
HETATM    8  C   UNL     1       8.358  30.460  58.888  1.00  0.00     0.278 C 
BRANCH   8   9
HETATM    9  C   UNL     1       8.200  31.528  59.977  1.00  0.00     0.246 C 
HETATM   10  N   UNL     1       7.522  31.069  61.091  1.00  0.00    -0.325 N 
HETATM   11  H   UNL     1       7.195  30.108  61.031  1.00  0.00     0.169 HD
HETATM   12  O   UNL     1       8.658  32.654  59.809  1.00  0.00    -0.271 OA
BRANCH  10  13
HETATM   13  C   UNL     1       7.180  31.787  62.252  1.00  0.00     0.035 A 
HETATM   14  C   UNL     1       8.110  32.373  63.108  1.00  0.00     0.032 A 
HETATM   15  C   UNL     1       7.682  33.088  64.233  1.00  0.00     0.039 A 
HETATM   16  C   UNL     1       6.324  33.235  64.514  1.00  0.00     0.068 A 
HETATM   17  C   UNL     1       5.390  32.637  63.671  1.00  0.00     0.039 A 
HETATM   18  C   UNL     1       5.818  31.916  62.548  1.00  0.00     0.032 A 
BRANCH  16  19
HETATM   19  O   UNL     1       6.045  33.969  65.632  1.00  0.00    -0.356 OA
HETATM   20  C   UNL     1       4.702  33.933  66.101  1.00  0.00     0.210 C 
ENDBRANCH  16  19
ENDBRANCH  10  13
ENDBRANCH   8   9
ENDBRANCH   7   8
ENDBRANCH   4   7
BRANCH   1  21
HETATM   21  C   UNL     1       6.905  25.038  55.679  1.00  0.00     0.270 C 
HETATM   22  N   UNL     1       8.124  24.487  55.367  1.00  0.00    -0.259 N 
HETATM   23  H   UNL     1       8.997  24.987  55.429  1.00  0.00     0.191 HD
HETATM   24  O   UNL     1       5.814  24.552  55.408  1.00  0.00    -0.266 OA
BRANCH  22  25
HETATM   25  N   UNL     1       8.176  23.336  54.671  1.00  0.00    -0.263 N 
HETATM   26  C   UNL     1       7.993  23.270  53.318  1.00  0.00     0.030 A 
HETATM   27  C   UNL     1       7.920  24.465  52.441  1.00  0.00     0.070 C 
HETATM   28  C   UNL     1       7.920  21.926  52.999  1.00  0.00     0.028 A 
HETATM   29  C   UNL     1       8.030  21.188  54.205  1.00  0.00     0.028 A 
HETATM   30  C   UNL     1       8.166  22.093  55.243  1.00  0.00     0.030 A 
HETATM   31  C   UNL     1       8.325  21.857  56.700  1.00  0.00     0.070 C 
ENDBRANCH  22  25
ENDBRANCH   1  21
TORSDOF 7
ENDMDL
MODEL 2
REMARK VINA RESULT:     -10.1      0.207      1.505
REMARK  7 active torsions:
REMARK  status: ('A' for Active; 'I' for Inactive)
REMARK    1  A    between atoms: N_3  and  N_4 
REMARK       I    between atoms: N_4  and  C_5 
REMARK    2  A    between atoms: C_5  and  C_6 
REMARK    3  A    between atoms: C_9  and  O_10 
REMARK    4  A    between atoms: O_10  and  C_11 
REMARK    5  A    between atoms: C_11  and  C_12 
REMARK       I    between atoms: C_12  and  N_13 
REMARK    6  A    between atoms: N_13  and  C_14 
REMARK    7  A    between atoms: C_17  and  O_18 
ROOT
HETATM    1  C   UNL     1       6.923  26.494  56.409  1.00  0.00     0.033 A 
HETATM    2  C   UNL     1       5.824  27.318  56.680  1.00  0.00     0.020 A 
HETATM    3  C   UNL     1       6.021  28.562  57.286  1.00  0.00     0.038 A 
HETATM    4  C   UNL     1       7.306  28.982  57.638  1.00  0.00     0.069 A 
HETATM    5  C   UNL     1       8.405  28.174  57.345  1.00  0.00     0.038 A 
HETATM    6  C   UNL     1       8.213  26.934  56.728  1.00  0.00     0.020 A 
ENDROOT
BRANCH   4   7
HETATM    7  O   UNL     1       7.390  30.230  58.193  1.00  0.00    -0.342 OA
BRANCH   7   8
HETATM    8  C   UNL     1       8.455  30.420  59.122  1.00  0.00     0.278 C 
BRANCH   8   9
HETATM    9  C   UNL     1       8.216  31.522  60.161  1.00  0.00     0.246 C 
HETATM   10  N   UNL     1       7.570  31.065  61.295  1.00  0.00    -0.325 N 
HETATM   11  H   UNL     1       7.314  30.081  61.279  1.00  0.00     0.169 HD
HETATM   12  O   UNL     1       8.591  32.670  59.942  1.00  0.00    -0.271 OA
BRANCH  10  13
HETATM   13  C   UNL     1       7.172  31.808  62.422  1.00  0.00     0.035 A 
HETATM   14  C   UNL     1       8.058  32.445  63.288  1.00  0.00     0.032 A 
HETATM   15  C   UNL     1       7.577  33.181  64.377  1.00  0.00     0.039 A 
HETATM   16  C   UNL     1       6.207  33.299  64.611  1.00  0.00     0.068 A 
HETATM   17  C   UNL     1       5.317  32.650  63.758  1.00  0.00     0.039 A 
HETATM   18  C   UNL     1       5.798  31.908  62.672  1.00  0.00     0.032 A 
BRANCH  16  19
HETATM   19  O   UNL     1       5.873  34.058  65.697  1.00  0.00    -0.356 OA
HETATM   20  C   UNL     1       4.510  34.027  66.103  1.00  0.00     0.210 C 
ENDBRANCH  16  19
ENDBRANCH  10  13
ENDBRANCH   8   9
ENDBRANCH   7   8
ENDBRANCH   4   7
BRANCH   1  21
HETATM   21  C   UNL     1       6.765  25.171  55.744  1.00  0.00     0.270 C 
HETATM   22  N   UNL     1       7.929  24.599  55.293  1.00  0.00    -0.259 N 
HETATM   23  H   UNL     1       8.809  25.088  55.240  1.00  0.00     0.191 HD
HETATM   24  O   UNL     1       5.643  24.696  55.617  1.00  0.00    -0.266 OA
BRANCH  22  25
HETATM   25  N   UNL     1       7.881  23.438  54.614  1.00  0.00    -0.263 N 
HETATM   26  C   UNL     1       8.093  22.220  55.196  1.00  0.00     0.030 A 
HETATM   27  C   UNL     1       8.197  22.020  56.664  1.00  0.00     0.070 C 
HETATM   28  C   UNL     1       8.159  21.300  54.166  1.00  0.00     0.028 A 
HETATM   29  C   UNL     1       8.014  22.007  52.944  1.00  0.00     0.028 A 
HETATM   30  C   UNL     1       7.865  23.348  53.249  1.00  0.00     0.030 A 
HETATM   31  C   UNL     1       7.672  24.514  52.350  1.00  0.00     0.070 C 
ENDBRANCH  22  25
ENDBRANCH   1  21
TORSDOF 7
ENDMDL
MODEL 3
REMARK VINA RESULT:      -9.4      2.192     10.955
REMARK  7 active torsions:
REMARK  status: ('A' for Active; 'I' for Inactive)
REMARK    1  A    between atoms: N_3  and  N_4 
REMARK       I    between atoms: N_4  and  C_5 
REMARK    2  A    between atoms: C_5  and  C_6 
REMARK    3  A    between atoms: C_9  and  O_10 
REMARK    4  A    between atoms: O_10  and  C_11 
REMARK    5  A    between atoms: C_11  and  C_12 
REMARK       I    between atoms: C_12  and  N_13 
REMARK    6  A    between atoms: N_13  and  C_14 
REMARK    7  A    between atoms: C_17  and  O_18 
ROOT
HETATM    1  C   UNL     1       7.737  30.504  57.919  1.00  0.00     0.033 A 
HETATM    2  C   UNL     1       8.716  29.709  57.312  1.00  0.00     0.020 A 
HETATM    3  C   UNL     1       8.402  28.972  56.167  1.00  0.00     0.038 A 
HETATM    4  C   UNL     1       7.112  29.010  55.633  1.00  0.00     0.069 A 
HETATM    5  C   UNL     1       6.141  29.822  56.219  1.00  0.00     0.038 A 
HETATM    6  C   UNL     1       6.455  30.570  57.358  1.00  0.00     0.020 A 
ENDROOT
BRANCH   4   7
HETATM    7  O   UNL     1       6.922  28.280  54.492  1.00  0.00    -0.342 OA
BRANCH   7   8
HETATM    8  C   UNL     1       5.654  27.638  54.376  1.00  0.00     0.278 C 
BRANCH   8   9
HETATM    9  C   UNL     1       5.716  26.131  54.104  1.00  0.00     0.246 C 
HETATM   10  N   UNL     1       6.871  25.541  54.586  1.00  0.00    -0.325 N 
HETATM   11  H   UNL     1       7.530  26.179  55.023  1.00  0.00     0.169 HD
HETATM   12  O   UNL     1       4.796  25.569  53.516  1.00  0.00    -0.271 OA
BRANCH  10  13
HETATM   13  C   UNL     1       7.261  24.193  54.483  1.00  0.00     0.035 A 
HETATM   14  C   UNL     1       7.457  23.353  55.577  1.00  0.00     0.032 A 
HETATM   15  C   UNL     1       7.827  22.017  55.385  1.00  0.00     0.039 A 
HETATM   16  C   UNL     1       7.997  21.499  54.101  1.00  0.00     0.068 A 
HETATM   17  C   UNL     1       7.819  22.339  53.004  1.00  0.00     0.039 A 
HETATM   18  C   UNL     1       7.455  23.679  53.196  1.00  0.00     0.032 A 
BRANCH  16  19
HETATM   19  O   UNL     1       8.343  20.178  54.055  1.00  0.00    -0.356 OA
HETATM   20  C   UNL     1       8.805  19.597  55.268  1.00  0.00     0.210 C 
ENDBRANCH  16  19
ENDBRANCH  10  13
ENDBRANCH   8   9
ENDBRANCH   7   8
ENDBRANCH   4   7
BRANCH   1  21
HETATM   21  C   UNL     1       8.030  31.324  59.126  1.00  0.00     0.270 C 
HETATM   22  N   UNL     1       7.313  30.991  60.249  1.00  0.00    -0.259 N 
HETATM   23  H   UNL     1       6.520  30.369  60.243  1.00  0.00     0.191 HD
HETATM   24  O   UNL     1       8.845  32.235  59.047  1.00  0.00    -0.266 OA
BRANCH  22  25
HETATM   25  N   UNL     1       7.454  31.722  61.370  1.00  0.00    -0.263 N 
HETATM   26  C   UNL     1       8.326  31.398  62.371  1.00  0.00     0.030 A 
HETATM   27  C   UNL     1       9.351  30.331  62.252  1.00  0.00     0.070 C 
HETATM   28  C   UNL     1       8.050  32.253  63.423  1.00  0.00     0.028 A 
HETATM   29  C   UNL     1       6.963  33.078  63.036  1.00  0.00     0.028 A 
HETATM   30  C   UNL     1       6.591  32.711  61.755  1.00  0.00     0.030 A 
HETATM   31  C   UNL     1       5.522  33.256  60.880  1.00  0.00     0.070 C 
ENDBRANCH  22  25
ENDBRANCH   1  21
TORSDOF 7
ENDMDL
MODEL 4
REMARK VINA RESULT:      -9.0      2.254     11.829
REMARK  7 active torsions:
REMARK  status: ('A' for Active; 'I' for Inactive)
REMARK    1  A    between atoms: N_3  and  N_4 
REMARK       I    between atoms: N_4  and  C_5 
REMARK    2  A    between atoms: C_5  and  C_6 
REMARK    3  A    between atoms: C_9  and  O_10 
REMARK    4  A    between atoms: O_10  and  C_11 
REMARK    5  A    between atoms: C_11  and  C_12 
REMARK       I    between atoms: C_12  and  N_13 
REMARK    6  A    between atoms: N_13  and  C_14 
REMARK    7  A    between atoms: C_17  and  O_18 
ROOT
HETATM    1  C   UNL     1       6.924  32.831  62.669  1.00  0.00     0.033 A 
HETATM    2  C   UNL     1       8.015  32.032  63.033  1.00  0.00     0.020 A 
HETATM    3  C   UNL     1       8.576  31.157  62.099  1.00  0.00     0.038 A 
HETATM    4  C   UNL     1       8.047  31.061  60.810  1.00  0.00     0.069 A 
HETATM    5  C   UNL     1       6.977  31.875  60.437  1.00  0.00     0.038 A 
HETATM    6  C   UNL     1       6.420  32.761  61.365  1.00  0.00     0.020 A 
ENDROOT
BRANCH   4   7
HETATM    7  O   UNL     1       8.694  30.201  59.967  1.00  0.00    -0.342 OA
BRANCH   7   8
HETATM    8  C   UNL     1       8.284  30.252  58.602  1.00  0.00     0.278 C 
BRANCH   8   9
HETATM    9  C   UNL     1       8.690  29.037  57.759  1.00  0.00     0.246 C 
HETATM   10  N   UNL     1       7.704  28.069  57.697  1.00  0.00    -0.325 N 
HETATM   11  H   UNL     1       6.865  28.272  58.233  1.00  0.00     0.169 HD
HETATM   12  O   UNL     1       9.792  28.998  57.221  1.00  0.00    -0.271 OA
BRANCH  10  13
HETATM   13  C   UNL     1       7.754  26.826  57.040  1.00  0.00     0.035 A 
HETATM   14  C   UNL     1       8.139  25.635  57.652  1.00  0.00     0.032 A 
HETATM   15  C   UNL     1       8.143  24.437  56.930  1.00  0.00     0.039 A 
HETATM   16  C   UNL     1       7.755  24.408  55.590  1.00  0.00     0.068 A 
HETATM   17  C   UNL     1       7.386  25.598  54.967  1.00  0.00     0.039 A 
HETATM   18  C   UNL     1       7.388  26.799  55.689  1.00  0.00     0.032 A 
BRANCH  16  19
HETATM   19  O   UNL     1       7.789  23.172  55.008  1.00  0.00    -0.356 OA
HETATM   20  C   UNL     1       9.031  22.481  55.052  1.00  0.00     0.210 C 
ENDBRANCH  16  19
ENDBRANCH  10  13
ENDBRANCH   8   9
ENDBRANCH   7   8
ENDBRANCH   4   7
BRANCH   1  21
HETATM   21  C   UNL     1       6.307  33.794  63.622  1.00  0.00     0.270 C 
HETATM   22  N   UNL     1       5.554  33.229  64.622  1.00  0.00    -0.259 N 
HETATM   23  H   UNL     1       5.276  32.260  64.633  1.00  0.00     0.191 HD
HETATM   24  O   UNL     1       6.475  34.996  63.452  1.00  0.00    -0.266 OA
BRANCH  22  25
HETATM   25  N   UNL     1       4.895  34.020  65.488  1.00  0.00    -0.263 N 
HETATM   26  C   UNL     1       3.682  34.585  65.213  1.00  0.00     0.030 A 
HETATM   27  C   UNL     1       2.864  34.234  64.024  1.00  0.00     0.070 C 
HETATM   28  C   UNL     1       3.421  35.474  66.241  1.00  0.00     0.028 A 
HETATM   29  C   UNL     1       4.531  35.450  67.124  1.00  0.00     0.028 A 
HETATM   30  C   UNL     1       5.452  34.549  66.620  1.00  0.00     0.030 A 
HETATM   31  C   UNL     1       6.776  34.140  67.154  1.00  0.00     0.070 C 
ENDBRANCH  22  25
ENDBRANCH   1  21
TORSDOF 7
ENDMDL
MODEL 5
REMARK VINA RESULT:      -8.9      2.866      3.944
REMARK  7 active torsions:
REMARK  status: ('A' for Active; 'I' for Inactive)
REMARK    1  A    between atoms: N_3  and  N_4 
REMARK       I    between atoms: N_4  and  C_5 
REMARK    2  A    between atoms: C_5  and  C_6 
REMARK    3  A    between atoms: C_9  and  O_10 
REMARK    4  A    between atoms: O_10  and  C_11 
REMARK    5  A    between atoms: C_11  and  C_12 
REMARK       I    between atoms: C_12  and  N_13 
REMARK    6  A    between atoms: N_13  and  C_14 
REMARK    7  A    between atoms: C_17  and  O_18 
ROOT
HETATM    1  C   UNL     1       6.090  28.199  55.068  1.00  0.00     0.033 A 
HETATM    2  C   UNL     1       5.475  28.320  56.320  1.00  0.00     0.020 A 
HETATM    3  C   UNL     1       6.242  28.641  57.443  1.00  0.00     0.038 A 
HETATM    4  C   UNL     1       7.622  28.826  57.328  1.00  0.00     0.069 A 
HETATM    5  C   UNL     1       8.234  28.732  56.078  1.00  0.00     0.038 A 
HETATM    6  C   UNL     1       7.468  28.422  54.950  1.00  0.00     0.020 A 
ENDROOT
BRANCH   4   7
HETATM    7  O   UNL     1       8.271  29.171  58.482  1.00  0.00    -0.342 OA
BRANCH   7   8
HETATM    8  C   UNL     1       9.210  30.237  58.365  1.00  0.00     0.278 C 
BRANCH   8   9
HETATM    9  C   UNL     1       9.005  31.390  59.354  1.00  0.00     0.246 C 
HETATM   10  N   UNL     1       8.066  31.106  60.329  1.00  0.00    -0.325 N 
HETATM   11  H   UNL     1       7.619  30.197  60.245  1.00  0.00     0.169 HD
HETATM   12  O   UNL     1       9.647  32.429  59.235  1.00  0.00    -0.271 OA
BRANCH  10  13
HETATM   13  C   UNL     1       7.617  31.943  61.367  1.00  0.00     0.035 A 
HETATM   14  C   UNL     1       6.437  32.682  61.318  1.00  0.00     0.032 A 
HETATM   15  C   UNL     1       6.055  33.476  62.405  1.00  0.00     0.039 A 
HETATM   16  C   UNL     1       6.838  33.537  63.558  1.00  0.00     0.068 A 
HETATM   17  C   UNL     1       8.027  32.813  63.606  1.00  0.00     0.039 A 
HETATM   18  C   UNL     1       8.414  32.023  62.515  1.00  0.00     0.032 A 
BRANCH  16  19
HETATM   19  O   UNL     1       6.342  34.337  64.548  1.00  0.00    -0.356 OA
HETATM   20  C   UNL     1       6.561  33.907  65.886  1.00  0.00     0.210 C 
ENDBRANCH  16  19
ENDBRANCH  10  13
ENDBRANCH   8   9
ENDBRANCH   7   8
ENDBRANCH   4   7
BRANCH   1  21
HETATM   21  C   UNL     1       5.312  27.881  53.840  1.00  0.00     0.270 C 
HETATM   22  N   UNL     1       6.062  27.527  52.745  1.00  0.00    -0.259 N 
HETATM   23  H   UNL     1       7.063  27.637  52.693  1.00  0.00     0.191 HD
HETATM   24  O   UNL     1       4.091  27.976  53.864  1.00  0.00    -0.266 OA
BRANCH  22  25
HETATM   25  N   UNL     1       5.454  27.294  51.568  1.00  0.00    -0.263 N 
HETATM   26  C   UNL     1       5.108  26.043  51.139  1.00  0.00     0.030 A 
HETATM   27  C   UNL     1       5.176  24.833  51.997  1.00  0.00     0.070 C 
HETATM   28  C   UNL     1       4.695  26.180  49.826  1.00  0.00     0.028 A 
HETATM   29  C   UNL     1       4.835  27.546  49.468  1.00  0.00     0.028 A 
HETATM   30  C   UNL     1       5.335  28.220  50.569  1.00  0.00     0.030 A 
HETATM   31  C   UNL     1       5.659  29.659  50.738  1.00  0.00     0.070 C 
ENDBRANCH  22  25
ENDBRANCH   1  21
TORSDOF 7
ENDMDL
MODEL 6
REMARK VINA RESULT:      -8.5      4.221      7.575
REMARK  7 active torsions:
REMARK  status: ('A' for Active; 'I' for Inactive)
REMARK    1  A    between atoms: N_3  and  N_4 
REMARK       I    between atoms: N_4  and  C_5 
REMARK    2  A    between atoms: C_5  and  C_6 
REMARK    3  A    between atoms: C_9  and  O_10 
REMARK    4  A    between atoms: O_10  and  C_11 
REMARK    5  A    between atoms: C_11  and  C_12 
REMARK       I    between atoms: C_12  and  N_13 
REMARK    6  A    between atoms: N_13  and  C_14 
REMARK    7  A    between atoms: C_17  and  O_18 
ROOT
HETATM    1  C   UNL     1       7.080  32.062  60.822  1.00  0.00     0.033 A 
HETATM    2  C   UNL     1       8.106  31.940  61.767  1.00  0.00     0.020 A 
HETATM    3  C   UNL     1       7.874  32.308  63.095  1.00  0.00     0.038 A 
HETATM    4  C   UNL     1       6.630  32.811  63.484  1.00  0.00     0.069 A 
HETATM    5  C   UNL     1       5.598  32.909  62.550  1.00  0.00     0.038 A 
HETATM    6  C   UNL     1       5.823  32.532  61.223  1.00  0.00     0.020 A 
ENDROOT
BRANCH   4   7
HETATM    7  O   UNL     1       6.500  33.107  64.813  1.00  0.00    -0.342 OA
BRANCH   7   8
HETATM    8  C   UNL     1       5.204  33.536  65.225  1.00  0.00     0.278 C 
BRANCH   8   9
HETATM    9  C   UNL     1       5.156  34.228  66.592  1.00  0.00     0.246 C 
HETATM   10  N   UNL     1       6.247  33.929  67.388  1.00  0.00    -0.325 N 
HETATM   11  H   UNL     1       6.911  33.276  66.981  1.00  0.00     0.169 HD
HETATM   12  O   UNL     1       4.216  34.962  66.881  1.00  0.00    -0.271 OA
BRANCH  10  13
HETATM   13  C   UNL     1       6.505  34.365  68.700  1.00  0.00     0.035 A 
HETATM   14  C   UNL     1       7.285  35.477  69.013  1.00  0.00     0.032 A 
HETATM   15  C   UNL     1       7.476  35.853  70.347  1.00  0.00     0.039 A 
HETATM   16  C   UNL     1       6.885  35.133  71.386  1.00  0.00     0.068 A 
HETATM   17  C   UNL     1       6.118  34.010  71.080  1.00  0.00     0.039 A 
HETATM   18  C   UNL     1       5.933  33.629  69.744  1.00  0.00     0.032 A 
BRANCH  16  19
HETATM   19  O   UNL     1       7.139  35.617  72.638  1.00  0.00    -0.356 OA
HETATM   20  C   UNL     1       6.048  35.632  73.550  1.00  0.00     0.210 C 
ENDBRANCH  16  19
ENDBRANCH  10  13
ENDBRANCH   8   9
ENDBRANCH   7   8
ENDBRANCH   4   7
BRANCH   1  21
HETATM   21  C   UNL     1       7.272  31.663  59.401  1.00  0.00     0.270 C 
HETATM   22  N   UNL     1       7.848  30.430  59.212  1.00  0.00    -0.259 N 
HETATM   23  H   UNL     1       8.279  29.894  59.949  1.00  0.00     0.191 HD
HETATM   24  O   UNL     1       6.944  32.438  58.512  1.00  0.00    -0.266 OA
BRANCH  22  25
HETATM   25  N   UNL     1       8.131  30.012  57.964  1.00  0.00    -0.263 N 
HETATM   26  C   UNL     1       7.269  29.265  57.212  1.00  0.00     0.030 A 
HETATM   27  C   UNL     1       5.859  29.003  57.597  1.00  0.00     0.070 C 
HETATM   28  C   UNL     1       7.974  28.867  56.090  1.00  0.00     0.028 A 
HETATM   29  C   UNL     1       9.295  29.369  56.208  1.00  0.00     0.028 A 
HETATM   30  C   UNL     1       9.377  30.064  57.402  1.00  0.00     0.030 A 
HETATM   31  C   UNL     1      10.523  30.789  58.006  1.00  0.00     0.070 C 
ENDBRANCH  22  25
ENDBRANCH   1  21
TORSDOF 7
ENDMDL
MODEL 7
REMARK VINA RESULT:      -8.4      1.588      2.341
REMARK  7 active torsions:
REMARK  status: ('A' for Active; 'I' for Inactive)
REMARK    1  A    between atoms: N_3  and  N_4 
REMARK       I    between atoms: N_4  and  C_5 
REMARK    2  A    between atoms: C_5  and  C_6 
REMARK    3  A    between atoms: C_9  and  O_10 
REMARK    4  A    between atoms: O_10  and  C_11 
REMARK    5  A    between atoms: C_11  and  C_12 
REMARK       I    between atoms: C_12  and  N_13 
REMARK    6  A    between atoms: N_13  and  C_14 
REMARK    7  A    between atoms: C_17  and  O_18 
ROOT
HETATM    1  C   UNL     1       6.740  27.120  56.535  1.00  0.00     0.033 A 
HETATM    2  C   UNL     1       5.703  28.060  56.510  1.00  0.00     0.020 A 
HETATM    3  C   UNL     1       5.846  29.270  57.194  1.00  0.00     0.038 A 
HETATM    4  C   UNL     1       7.010  29.542  57.917  1.00  0.00     0.069 A 
HETATM    5  C   UNL     1       8.055  28.618  57.923  1.00  0.00     0.038 A 
HETATM    6  C   UNL     1       7.921  27.411  57.229  1.00  0.00     0.020 A 
ENDROOT
BRANCH   4   7
HETATM    7  O   UNL     1       7.060  30.769  58.520  1.00  0.00    -0.342 OA
BRANCH   7   8
HETATM    8  C   UNL     1       5.928  31.609  58.301  1.00  0.00     0.278 C 
BRANCH   8   9
HETATM    9  C   UNL     1       5.250  32.122  59.577  1.00  0.00     0.246 C 
HETATM   10  N   UNL     1       6.147  32.623  60.503  1.00  0.00    -0.325 N 
HETATM   11  H   UNL     1       7.125  32.558  60.234  1.00  0.00     0.169 HD
HETATM   12  O   UNL     1       4.029  32.067  59.693  1.00  0.00    -0.271 OA
BRANCH  10  13
HETATM   13  C   UNL     1       5.870  33.143  61.781  1.00  0.00     0.035 A 
HETATM   14  C   UNL     1       5.565  32.360  62.892  1.00  0.00     0.032 A 
HETATM   15  C   UNL     1       5.321  32.958  64.133  1.00  0.00     0.039 A 
HETATM   16  C   UNL     1       5.387  34.343  64.285  1.00  0.00     0.068 A 
HETATM   17  C   UNL     1       5.676  35.132  63.174  1.00  0.00     0.039 A 
HETATM   18  C   UNL     1       5.913  34.534  61.929  1.00  0.00     0.032 A 
BRANCH  16  19
HETATM   19  O   UNL     1       5.144  34.794  65.552  1.00  0.00    -0.356 OA
HETATM   20  C   UNL     1       4.164  35.816  65.688  1.00  0.00     0.210 C 
ENDBRANCH  16  19
ENDBRANCH  10  13
ENDBRANCH   8   9
ENDBRANCH   7   8
ENDBRANCH   4   7
BRANCH   1  21
HETATM   21  C   UNL     1       6.643  25.827  55.803  1.00  0.00     0.270 C 
HETATM   22  N   UNL     1       7.825  25.359  55.282  1.00  0.00    -0.259 N 
HETATM   23  H   UNL     1       8.669  25.907  55.228  1.00  0.00     0.191 HD
HETATM   24  O   UNL     1       5.551  25.286  55.686  1.00  0.00    -0.266 OA
BRANCH  22  25
HETATM   25  N   UNL     1       7.827  24.236  54.541  1.00  0.00    -0.263 N 
HETATM   26  C   UNL     1       8.132  23.004  55.048  1.00  0.00     0.030 A 
HETATM   27  C   UNL     1       8.295  22.732  56.498  1.00  0.00     0.070 C 
HETATM   28  C   UNL     1       8.222  22.147  53.966  1.00  0.00     0.028 A 
HETATM   29  C   UNL     1       7.995  22.908  52.791  1.00  0.00     0.028 A 
HETATM   30  C   UNL     1       7.773  24.219  53.174  1.00  0.00     0.030 A 
HETATM   31  C   UNL     1       7.480  25.417  52.347  1.00  0.00     0.070 C 
ENDBRANCH  22  25
ENDBRANCH   1  21
TORSDOF 7
ENDMDL
MODEL 8
REMARK VINA RESULT:      -8.3      2.215     11.709
REMARK  7 active torsions:
REMARK  status: ('A' for Active; 'I' for Inactive)
REMARK    1  A    between atoms: N_3  and  N_4 
REMARK       I    between atoms: N_4  and  C_5 
REMARK    2  A    between atoms: C_5  and  C_6 
REMARK    3  A    between atoms: C_9  and  O_10 
REMARK    4  A    between atoms: O_10  and  C_11 
REMARK    5  A    between atoms: C_11  and  C_12 
REMARK       I    between atoms: C_12  and  N_13 
REMARK    6  A    between atoms: N_13  and  C_14 
REMARK    7  A    between atoms: C_17  and  O_18 
ROOT
HETATM    1  C   UNL     1       6.276  32.890  61.058  1.00  0.00     0.033 A 
HETATM    2  C   UNL     1       7.419  32.083  61.119  1.00  0.00     0.020 A 
HETATM    3  C   UNL     1       7.762  31.282  60.027  1.00  0.00     0.038 A 
HETATM    4  C   UNL     1       6.964  31.267  58.881  1.00  0.00     0.069 A 
HETATM    5  C   UNL     1       5.839  32.089  58.807  1.00  0.00     0.038 A 
HETATM    6  C   UNL     1       5.499  32.901  59.894  1.00  0.00     0.020 A 
ENDROOT
BRANCH   4   7
HETATM    7  O   UNL     1       7.409  30.474  57.858  1.00  0.00    -0.342 OA
BRANCH   7   8
HETATM    8  C   UNL     1       7.791  29.151  58.227  1.00  0.00     0.278 C 
BRANCH   8   9
HETATM    9  C   UNL     1       7.526  28.082  57.161  1.00  0.00     0.246 C 
HETATM   10  N   UNL     1       7.827  26.802  57.591  1.00  0.00    -0.325 N 
HETATM   11  H   UNL     1       8.209  26.742  58.531  1.00  0.00     0.169 HD
HETATM   12  O   UNL     1       7.086  28.401  56.060  1.00  0.00    -0.271 OA
BRANCH  10  13
HETATM   13  C   UNL     1       7.731  25.601  56.864  1.00  0.00     0.035 A 
HETATM   14  C   UNL     1       6.772  25.357  55.884  1.00  0.00     0.032 A 
HETATM   15  C   UNL     1       6.760  24.139  55.195  1.00  0.00     0.039 A 
HETATM   16  C   UNL     1       7.708  23.153  55.467  1.00  0.00     0.068 A 
HETATM   17  C   UNL     1       8.658  23.384  56.459  1.00  0.00     0.039 A 
HETATM   18  C   UNL     1       8.667  24.601  57.154  1.00  0.00     0.032 A 
BRANCH  16  19
HETATM   19  O   UNL     1       7.591  22.020  54.712  1.00  0.00    -0.356 OA
HETATM   20  C   UNL     1       8.772  21.559  54.067  1.00  0.00     0.210 C 
ENDBRANCH  16  19
ENDBRANCH  10  13
ENDBRANCH   8   9
ENDBRANCH   7   8
ENDBRANCH   4   7
BRANCH   1  21
HETATM   21  C   UNL     1       5.883  33.777  62.187  1.00  0.00     0.270 C 
HETATM   22  N   UNL     1       5.341  33.137  63.275  1.00  0.00    -0.259 N 
HETATM   23  H   UNL     1       5.055  32.170  63.270  1.00  0.00     0.191 HD
HETATM   24  O   UNL     1       6.034  34.988  62.077  1.00  0.00    -0.266 OA
BRANCH  22  25
HETATM   25  N   UNL     1       4.887  33.860  64.315  1.00  0.00    -0.263 N 
HETATM   26  C   UNL     1       5.611  34.069  65.455  1.00  0.00     0.030 A 
HETATM   27  C   UNL     1       7.042  33.701  65.596  1.00  0.00     0.070 C 
HETATM   28  C   UNL     1       4.754  34.675  66.356  1.00  0.00     0.028 A 
HETATM   29  C   UNL     1       3.485  34.793  65.735  1.00  0.00     0.028 A 
HETATM   30  C   UNL     1       3.585  34.254  64.465  1.00  0.00     0.030 A 
HETATM   31  C   UNL     1       2.560  34.131  63.398  1.00  0.00     0.070 C 
ENDBRANCH  22  25
ENDBRANCH   1  21
TORSDOF 7
ENDMDL
MODEL 9
REMARK VINA RESULT:      -8.3      4.532      7.118
REMARK  7 active torsions:
REMARK  status: ('A' for Active; 'I' for Inactive)
REMARK    1  A    between atoms: N_3  and  N_4 
REMARK       I    between atoms: N_4  and  C_5 
REMARK    2  A    between atoms: C_5  and  C_6 
REMARK    3  A    between atoms: C_9  and  O_10 
REMARK    4  A    between atoms: O_10  and  C_11 
REMARK    5  A    between atoms: C_11  and  C_12 
REMARK       I    between atoms: C_12  and  N_13 
REMARK    6  A    between atoms: N_13  and  C_14 
REMARK    7  A    between atoms: C_17  and  O_18 
ROOT
HETATM    1  C   UNL     1       5.603  26.779  52.126  1.00  0.00     0.033 A 
HETATM    2  C   UNL     1       4.799  25.880  52.838  1.00  0.00     0.020 A 
HETATM    3  C   UNL     1       5.334  25.178  53.921  1.00  0.00     0.038 A 
HETATM    4  C   UNL     1       6.670  25.352  54.288  1.00  0.00     0.069 A 
HETATM    5  C   UNL     1       7.467  26.266  53.597  1.00  0.00     0.038 A 
HETATM    6  C   UNL     1       6.932  26.980  52.520  1.00  0.00     0.020 A 
ENDROOT
BRANCH   4   7
HETATM    7  O   UNL     1       7.081  24.642  55.383  1.00  0.00    -0.342 OA
BRANCH   7   8
HETATM    8  C   UNL     1       6.522  25.053  56.628  1.00  0.00     0.278 C 
BRANCH   8   9
HETATM    9  C   UNL     1       7.337  26.107  57.387  1.00  0.00     0.246 C 
HETATM   10  N   UNL     1       7.048  27.401  56.992  1.00  0.00    -0.325 N 
HETATM   11  H   UNL     1       6.367  27.481  56.242  1.00  0.00     0.169 HD
HETATM   12  O   UNL     1       8.143  25.765  58.246  1.00  0.00    -0.271 OA
BRANCH  10  13
HETATM   13  C   UNL     1       7.628  28.596  57.456  1.00  0.00     0.035 A 
HETATM   14  C   UNL     1       6.914  29.623  58.070  1.00  0.00     0.032 A 
HETATM   15  C   UNL     1       7.573  30.772  58.519  1.00  0.00     0.039 A 
HETATM   16  C   UNL     1       8.954  30.909  58.373  1.00  0.00     0.068 A 
HETATM   17  C   UNL     1       9.671  29.893  57.745  1.00  0.00     0.039 A 
HETATM   18  C   UNL     1       9.010  28.745  57.288  1.00  0.00     0.032 A 
BRANCH  16  19
HETATM   19  O   UNL     1       9.472  32.071  58.869  1.00  0.00    -0.356 OA
HETATM   20  C   UNL     1       9.612  32.155  60.282  1.00  0.00     0.210 C 
ENDBRANCH  16  19
ENDBRANCH  10  13
ENDBRANCH   8   9
ENDBRANCH   7   8
ENDBRANCH   4   7
BRANCH   1  21
HETATM   21  C   UNL     1       5.072  27.567  50.980  1.00  0.00     0.270 C 
HETATM   22  N   UNL     1       3.927  27.070  50.407  1.00  0.00    -0.259 N 
HETATM   23  H   UNL     1       3.553  26.155  50.607  1.00  0.00     0.191 HD
HETATM   24  O   UNL     1       5.679  28.564  50.607  1.00  0.00    -0.266 OA
BRANCH  22  25
HETATM   25  N   UNL     1       3.411  27.671  49.319  1.00  0.00    -0.263 N 
HETATM   26  C   UNL     1       2.334  28.511  49.367  1.00  0.00     0.030 A 
HETATM   27  C   UNL     1       1.741  29.013  50.632  1.00  0.00     0.070 C 
HETATM   28  C   UNL     1       1.981  28.768  48.054  1.00  0.00     0.028 A 
HETATM   29  C   UNL     1       2.857  28.030  47.218  1.00  0.00     0.028 A 
HETATM   30  C   UNL     1       3.730  27.332  48.033  1.00  0.00     0.030 A 
HETATM   31  C   UNL     1       4.844  26.418  47.675  1.00  0.00     0.070 C 
ENDBRANCH  22  25
ENDBRANCH   1  21
TORSDOF 7
ENDMDL
MODEL 10
REMARK VINA RESULT:      -8.1      3.384      5.244
REMARK  7 active torsions:
REMARK  status: ('A' for Active; 'I' for Inactive)
REMARK    1  A    between atoms: N_3  and  N_4 
REMARK       I    between atoms: N_4  and  C_5 
REMARK    2  A    between atoms: C_5  and  C_6 
REMARK    3  A    between atoms: C_9  and  O_10 
REMARK    4  A    between atoms: O_10  and  C_11 
REMARK    5  A    between atoms: C_11  and  C_12 
REMARK       I    between atoms: C_12  and  N_13 
REMARK    6  A    between atoms: N_13  and  C_14 
REMARK    7  A    between atoms: C_17  and  O_18 
ROOT
HETATM    1  C   UNL     1       7.070  25.067  53.436  1.00  0.00     0.033 A 
HETATM    2  C   UNL     1       7.612  26.327  53.720  1.00  0.00     0.020 A 
HETATM    3  C   UNL     1       6.886  27.480  53.413  1.00  0.00     0.038 A 
HETATM    4  C   UNL     1       5.629  27.386  52.809  1.00  0.00     0.069 A 
HETATM    5  C   UNL     1       5.076  26.132  52.549  1.00  0.00     0.038 A 
HETATM    6  C   UNL     1       5.794  24.975  52.866  1.00  0.00     0.020 A 
ENDROOT
BRANCH   4   7
HETATM    7  O   UNL     1       4.990  28.575  52.584  1.00  0.00    -0.342 OA
BRANCH   7   8
HETATM    8  C   UNL     1       3.982  28.921  53.531  1.00  0.00     0.278 C 
BRANCH   8   9
HETATM    9  C   UNL     1       4.453  28.958  54.990  1.00  0.00     0.246 C 
HETATM   10  N   UNL     1       5.419  29.921  55.222  1.00  0.00    -0.325 N 
HETATM   11  H   UNL     1       5.708  30.448  54.402  1.00  0.00     0.169 HD
HETATM   12  O   UNL     1       3.974  28.186  55.815  1.00  0.00    -0.271 OA
BRANCH  10  13
HETATM   13  C   UNL     1       6.084  30.204  56.429  1.00  0.00     0.035 A 
HETATM   14  C   UNL     1       7.188  29.495  56.896  1.00  0.00     0.032 A 
HETATM   15  C   UNL     1       7.803  29.856  58.100  1.00  0.00     0.039 A 
HETATM   16  C   UNL     1       7.332  30.934  58.849  1.00  0.00     0.068 A 
HETATM   17  C   UNL     1       6.218  31.637  58.396  1.00  0.00     0.039 A 
HETATM   18  C   UNL     1       5.598  31.271  57.194  1.00  0.00     0.032 A 
BRANCH  16  19
HETATM   19  O   UNL     1       8.032  31.188  59.995  1.00  0.00    -0.356 OA
HETATM   20  C   UNL     1       9.059  32.169  59.910  1.00  0.00     0.210 C 
ENDBRANCH  16  19
ENDBRANCH  10  13
ENDBRANCH   8   9
ENDBRANCH   7   8
ENDBRANCH   4   7
BRANCH   1  21
HETATM   21  C   UNL     1       7.796  23.810  53.766  1.00  0.00     0.270 C 
HETATM   22  N   UNL     1       7.173  22.995  54.680  1.00  0.00    -0.259 N 
HETATM   23  H   UNL     1       6.380  23.279  55.233  1.00  0.00     0.191 HD
HETATM   24  O   UNL     1       8.882  23.592  53.243  1.00  0.00    -0.266 OA
BRANCH  22  25
HETATM   25  N   UNL     1       7.785  21.872  55.097  1.00  0.00    -0.263 N 
HETATM   26  C   UNL     1       8.453  21.781  56.286  1.00  0.00     0.030 A 
HETATM   27  C   UNL     1       8.409  22.831  57.335  1.00  0.00     0.070 C 
HETATM   28  C   UNL     1       9.106  20.561  56.275  1.00  0.00     0.028 A 
HETATM   29  C   UNL     1       8.838  19.938  55.030  1.00  0.00     0.028 A 
HETATM   30  C   UNL     1       8.027  20.788  54.299  1.00  0.00     0.030 A 
HETATM   31  C   UNL     1       7.450  20.622  52.941  1.00  0.00     0.070 C 
ENDBRANCH  22  25
ENDBRANCH   1  21
TORSDOF 7
ENDMDL
