MODEL 1
REMARK VINA RESULT:      -9.1      0.000      0.000
REMARK  4 active torsions:
REMARK  status: ('A' for Active; 'I' for Inactive)
REMARK    1  A    between atoms: C_4  and  N_5 
REMARK    2  A    between atoms: N_5  and  C_6 
REMARK    3  A    between atoms: C_6  and  C_7 
REMARK    4  A    between atoms: N_17  and  N_19 
ROOT
HETATM    1  C   UNL     1       5.504  26.654  56.119  1.00  0.00     0.145 C 
HETATM    2  N   UNL     1       4.615  26.461  57.103  1.00  0.00    -0.307 N 
HETATM    3  H   UNL     1       4.365  27.291  57.640  1.00  0.00     0.182 HD
ENDROOT
BRANCH   1   4
HETATM    4  N   UNL     1       5.965  28.001  55.946  1.00  0.00    -0.339 N 
HETATM    5  H   UNL     1       5.361  28.580  55.373  1.00  0.00     0.167 HD
BRANCH   4   6
HETATM    6  C   UNL     1       7.126  28.655  56.397  1.00  0.00     0.040 A 
HETATM    7  C   UNL     1       7.210  29.131  57.716  1.00  0.00     0.036 A 
HETATM    8  C   UNL     1       8.378  29.729  58.207  1.00  0.00    -0.060 A 
HETATM    9  C   UNL     1       8.429  30.276  59.604  1.00  0.00     0.048 C 
HETATM   10  C   UNL     1       9.474  29.871  57.356  1.00  0.00     0.007 A 
HETATM   11  C   UNL     1       9.410  29.402  56.043  1.00  0.00     0.009 A 
HETATM   12  C   UNL     1       8.248  28.781  55.555  1.00  0.00    -0.035 A 
HETATM   13  C   UNL     1       8.238  28.281  54.136  1.00  0.00     0.050 C 
ENDBRANCH   4   6
ENDBRANCH   1   4
BRANCH   1  14
HETATM   14  C   UNL     1       6.076  25.594  55.229  1.00  0.00     0.102 A 
HETATM   15  N   UNL     1       6.999  24.764  55.792  1.00  0.00    -0.245 NA
HETATM   16  C   UNL     1       7.558  23.795  55.041  1.00  0.00     0.068 A 
HETATM   17  C   UNL     1       7.201  23.585  53.696  1.00  0.00    -0.007 A 
HETATM   18  C   UNL     1       8.521  22.966  55.601  1.00  0.00     0.032 A 
HETATM   19  C   UNL     1       6.229  24.423  53.140  1.00  0.00     0.016 A 
HETATM   20  C   UNL     1       7.807  22.558  52.951  1.00  0.00     0.014 A 
HETATM   21  C   UNL     1       5.660  25.432  53.911  1.00  0.00     0.036 A 
HETATM   22  C   UNL     1       8.769  21.739  53.538  1.00  0.00     0.001 A 
HETATM   23  C   UNL     1       9.128  21.943  54.865  1.00  0.00     0.002 A 
ENDBRANCH   1  14
BRANCH   2  24
HETATM   24  N   UNL     1       4.184  25.197  57.451  1.00  0.00    -0.248 NA
HETATM   25  H   UNL     1       3.373  25.242  58.081  1.00  0.00     0.143 HD
HETATM   26  H   UNL     1       4.937  24.654  57.870  1.00  0.00     0.143 HD
ENDBRANCH   2  24
TORSDOF 4
ENDMDL
MODEL 2
REMARK VINA RESULT:      -9.0      1.172      5.910
REMARK  4 active torsions:
REMARK  status: ('A' for Active; 'I' for Inactive)
REMARK    1  A    between atoms: C_4  and  N_5 
REMARK    2  A    between atoms: N_5  and  C_6 
REMARK    3  A    between atoms: C_6  and  C_7 
REMARK    4  A    between atoms: N_17  and  N_19 
ROOT
HETATM    1  C   UNL     1       5.133  27.229  56.064  1.00  0.00     0.145 C 
HETATM    2  N   UNL     1       3.972  27.820  56.380  1.00  0.00    -0.307 N 
HETATM    3  H   UNL     1       3.148  27.222  56.337  1.00  0.00     0.182 HD
ENDROOT
BRANCH   1   4
HETATM    4  N   UNL     1       5.057  25.838  55.728  1.00  0.00    -0.339 N 
HETATM    5  H   UNL     1       4.224  25.370  56.067  1.00  0.00     0.167 HD
BRANCH   4   6
HETATM    6  C   UNL     1       5.951  24.993  55.045  1.00  0.00     0.040 A 
HETATM    7  C   UNL     1       6.918  24.256  55.750  1.00  0.00     0.036 A 
HETATM    8  C   UNL     1       7.777  23.361  55.099  1.00  0.00    -0.060 A 
HETATM    9  C   UNL     1       8.835  22.622  55.865  1.00  0.00     0.048 C 
HETATM   10  C   UNL     1       7.679  23.217  53.715  1.00  0.00     0.007 A 
HETATM   11  C   UNL     1       6.724  23.937  52.998  1.00  0.00     0.009 A 
HETATM   12  C   UNL     1       5.846  24.818  53.651  1.00  0.00    -0.035 A 
HETATM   13  C   UNL     1       4.825  25.561  52.831  1.00  0.00     0.050 C 
ENDBRANCH   4   6
ENDBRANCH   1   4
BRANCH   1  14
HETATM   14  C   UNL     1       6.471  27.899  55.994  1.00  0.00     0.102 A 
HETATM   15  N   UNL     1       6.937  28.444  57.152  1.00  0.00    -0.245 NA
HETATM   16  C   UNL     1       8.131  29.069  57.151  1.00  0.00     0.068 A 
HETATM   17  C   UNL     1       8.936  29.154  56.000  1.00  0.00    -0.007 A 
HETATM   18  C   UNL     1       8.598  29.652  58.323  1.00  0.00     0.032 A 
HETATM   19  C   UNL     1       8.460  28.563  54.826  1.00  0.00     0.016 A 
HETATM   20  C   UNL     1      10.178  29.811  56.048  1.00  0.00     0.014 A 
HETATM   21  C   UNL     1       7.222  27.927  54.821  1.00  0.00     0.036 A 
HETATM   22  C   UNL     1      10.624  30.386  57.236  1.00  0.00     0.001 A 
HETATM   23  C   UNL     1       9.832  30.308  58.376  1.00  0.00     0.002 A 
ENDBRANCH   1  14
BRANCH   2  24
HETATM   24  N   UNL     1       3.890  29.179  56.606  1.00  0.00    -0.248 NA
HETATM   25  H   UNL     1       4.539  29.472  57.347  1.00  0.00     0.143 HD
HETATM   26  H   UNL     1       2.935  29.457  56.831  1.00  0.00     0.143 HD
ENDBRANCH   2  24
TORSDOF 4
ENDMDL
MODEL 3
REMARK VINA RESULT:      -9.0      1.667      2.579
REMARK  4 active torsions:
REMARK  status: ('A' for Active; 'I' for Inactive)
REMARK    1  A    between atoms: C_4  and  N_5 
REMARK    2  A    between atoms: N_5  and  C_6 
REMARK    3  A    between atoms: C_6  and  C_7 
REMARK    4  A    between atoms: N_17  and  N_19 
ROOT
HETATM    1  C   UNL     1       5.730  27.705  54.289  1.00  0.00     0.145 C 
HETATM    2  N   UNL     1       4.578  28.011  53.676  1.00  0.00    -0.307 N 
HETATM    3  H   UNL     1       4.403  29.005  53.537  1.00  0.00     0.182 HD
ENDROOT
BRANCH   1   4
HETATM    4  N   UNL     1       6.563  28.816  54.647  1.00  0.00    -0.339 N 
HETATM    5  H   UNL     1       6.663  29.516  53.920  1.00  0.00     0.167 HD
BRANCH   4   6
HETATM    6  C   UNL     1       7.299  29.092  55.815  1.00  0.00     0.040 A 
HETATM    7  C   UNL     1       8.702  29.146  55.778  1.00  0.00     0.036 A 
HETATM    8  C   UNL     1       9.454  29.481  56.911  1.00  0.00    -0.060 A 
HETATM    9  C   UNL     1      10.953  29.484  56.862  1.00  0.00     0.048 C 
HETATM   10  C   UNL     1       8.788  29.746  58.108  1.00  0.00     0.007 A 
HETATM   11  C   UNL     1       7.395  29.699  58.164  1.00  0.00     0.009 A 
HETATM   12  C   UNL     1       6.638  29.387  57.023  1.00  0.00    -0.035 A 
HETATM   13  C   UNL     1       5.137  29.364  57.136  1.00  0.00     0.050 C 
ENDBRANCH   4   6
ENDBRANCH   1   4
BRANCH   1  14
HETATM   14  C   UNL     1       6.192  26.330  54.660  1.00  0.00     0.102 A 
HETATM   15  N   UNL     1       6.643  25.546  53.642  1.00  0.00    -0.245 NA
HETATM   16  C   UNL     1       7.063  24.294  53.910  1.00  0.00     0.068 A 
HETATM   17  C   UNL     1       7.086  23.772  55.217  1.00  0.00    -0.007 A 
HETATM   18  C   UNL     1       7.496  23.481  52.871  1.00  0.00     0.032 A 
HETATM   19  C   UNL     1       6.651  24.598  56.257  1.00  0.00     0.016 A 
HETATM   20  C   UNL     1       7.538  22.461  55.451  1.00  0.00     0.014 A 
HETATM   21  C   UNL     1       6.204  25.886  55.980  1.00  0.00     0.036 A 
HETATM   22  C   UNL     1       7.968  21.666  54.391  1.00  0.00     0.001 A 
HETATM   23  C   UNL     1       7.946  22.176  53.097  1.00  0.00     0.002 A 
ENDBRANCH   1  14
BRANCH   2  24
HETATM   24  N   UNL     1       3.635  27.045  53.386  1.00  0.00    -0.248 NA
HETATM   25  H   UNL     1       4.059  26.109  53.354  1.00  0.00     0.143 HD
HETATM   26  H   UNL     1       3.153  27.253  52.512  1.00  0.00     0.143 HD
ENDBRANCH   2  24
TORSDOF 4
ENDMDL
MODEL 4
REMARK VINA RESULT:      -8.9      0.758      1.707
REMARK  4 active torsions:
REMARK  status: ('A' for Active; 'I' for Inactive)
REMARK    1  A    between atoms: C_4  and  N_5 
REMARK    2  A    between atoms: N_5  and  C_6 
REMARK    3  A    between atoms: C_6  and  C_7 
REMARK    4  A    between atoms: N_17  and  N_19 
ROOT
HETATM    1  C   UNL     1       5.609  26.698  55.989  1.00  0.00     0.145 C 
HETATM    2  N   UNL     1       4.702  26.542  56.963  1.00  0.00    -0.307 N 
HETATM    3  H   UNL     1       4.455  27.388  57.475  1.00  0.00     0.182 HD
ENDROOT
BRANCH   1   4
HETATM    4  N   UNL     1       6.092  28.034  55.790  1.00  0.00    -0.339 N 
HETATM    5  H   UNL     1       5.760  28.476  54.940  1.00  0.00     0.167 HD
BRANCH   4   6
HETATM    6  C   UNL     1       6.974  28.829  56.544  1.00  0.00     0.040 A 
HETATM    7  C   UNL     1       8.364  28.714  56.370  1.00  0.00     0.036 A 
HETATM    8  C   UNL     1       9.260  29.539  57.062  1.00  0.00    -0.060 A 
HETATM    9  C   UNL     1      10.742  29.365  56.898  1.00  0.00     0.048 C 
HETATM   10  C   UNL     1       8.757  30.480  57.960  1.00  0.00     0.007 A 
HETATM   11  C   UNL     1       7.380  30.610  58.144  1.00  0.00     0.009 A 
HETATM   12  C   UNL     1       6.478  29.801  57.434  1.00  0.00    -0.035 A 
HETATM   13  C   UNL     1       5.003  29.992  57.661  1.00  0.00     0.050 C 
ENDBRANCH   4   6
ENDBRANCH   1   4
BRANCH   1  14
HETATM   14  C   UNL     1       6.180  25.609  55.135  1.00  0.00     0.102 A 
HETATM   15  N   UNL     1       7.130  24.821  55.713  1.00  0.00    -0.245 NA
HETATM   16  C   UNL     1       7.689  23.829  54.993  1.00  0.00     0.068 A 
HETATM   17  C   UNL     1       7.306  23.551  53.668  1.00  0.00    -0.007 A 
HETATM   18  C   UNL     1       8.679  23.042  55.568  1.00  0.00     0.032 A 
HETATM   19  C   UNL     1       6.308  24.346  53.097  1.00  0.00     0.016 A 
HETATM   20  C   UNL     1       7.914  22.502  52.957  1.00  0.00     0.014 A 
HETATM   21  C   UNL     1       5.737  25.380  53.835  1.00  0.00     0.036 A 
HETATM   22  C   UNL     1       8.903  21.726  53.557  1.00  0.00     0.001 A 
HETATM   23  C   UNL     1       9.288  21.997  54.866  1.00  0.00     0.002 A 
ENDBRANCH   1  14
BRANCH   2  24
HETATM   24  N   UNL     1       4.248  25.293  57.335  1.00  0.00    -0.248 NA
HETATM   25  H   UNL     1       4.619  24.563  56.714  1.00  0.00     0.143 HD
HETATM   26  H   UNL     1       3.229  25.264  57.357  1.00  0.00     0.143 HD
ENDBRANCH   2  24
TORSDOF 4
ENDMDL
MODEL 5
REMARK VINA RESULT:      -8.8      1.912      2.638
REMARK  4 active torsions:
REMARK  status: ('A' for Active; 'I' for Inactive)
REMARK    1  A    between atoms: C_4  and  N_5 
REMARK    2  A    between atoms: N_5  and  C_6 
REMARK    3  A    between atoms: C_6  and  C_7 
REMARK    4  A    between atoms: N_17  and  N_19 
ROOT
HETATM    1  C   UNL     1       6.322  25.871  54.016  1.00  0.00     0.145 C 
HETATM    2  N   UNL     1       5.035  26.153  53.773  1.00  0.00    -0.307 N 
HETATM    3  H   UNL     1       4.754  27.117  53.950  1.00  0.00     0.182 HD
ENDROOT
BRANCH   1   4
HETATM    4  N   UNL     1       7.129  26.965  54.473  1.00  0.00    -0.339 N 
HETATM    5  H   UNL     1       7.998  27.085  53.965  1.00  0.00     0.167 HD
BRANCH   4   6
HETATM    6  C   UNL     1       6.949  27.881  55.526  1.00  0.00     0.040 A 
HETATM    7  C   UNL     1       6.194  29.050  55.335  1.00  0.00     0.036 A 
HETATM    8  C   UNL     1       5.947  29.945  56.384  1.00  0.00    -0.060 A 
HETATM    9  C   UNL     1       5.181  31.212  56.145  1.00  0.00     0.048 C 
HETATM   10  C   UNL     1       6.486  29.674  57.642  1.00  0.00     0.007 A 
HETATM   11  C   UNL     1       7.236  28.518  57.852  1.00  0.00     0.009 A 
HETATM   12  C   UNL     1       7.465  27.607  56.808  1.00  0.00    -0.035 A 
HETATM   13  C   UNL     1       8.270  26.367  57.093  1.00  0.00     0.050 C 
ENDBRANCH   4   6
ENDBRANCH   1   4
BRANCH   1  14
HETATM   14  C   UNL     1       6.967  24.525  53.893  1.00  0.00     0.102 A 
HETATM   15  N   UNL     1       6.964  23.747  55.011  1.00  0.00    -0.245 NA
HETATM   16  C   UNL     1       7.537  22.528  54.967  1.00  0.00     0.068 A 
HETATM   17  C   UNL     1       8.115  22.010  53.794  1.00  0.00    -0.007 A 
HETATM   18  C   UNL     1       7.562  21.743  56.113  1.00  0.00     0.032 A 
HETATM   19  C   UNL     1       8.083  22.805  52.644  1.00  0.00     0.016 A 
HETATM   20  C   UNL     1       8.697  20.730  53.793  1.00  0.00     0.014 A 
HETATM   21  C   UNL     1       7.503  24.070  52.691  1.00  0.00     0.036 A 
HETATM   22  C   UNL     1       8.708  19.962  54.955  1.00  0.00     0.001 A 
HETATM   23  C   UNL     1       8.140  20.470  56.119  1.00  0.00     0.002 A 
ENDBRANCH   1  14
BRANCH   2  24
HETATM   24  N   UNL     1       4.128  25.166  53.444  1.00  0.00    -0.248 NA
HETATM   25  H   UNL     1       4.486  24.235  53.693  1.00  0.00     0.143 HD
HETATM   26  H   UNL     1       3.884  25.207  52.455  1.00  0.00     0.143 HD
ENDBRANCH   2  24
TORSDOF 4
ENDMDL
MODEL 6
REMARK VINA RESULT:      -8.7      1.566      6.656
REMARK  4 active torsions:
REMARK  status: ('A' for Active; 'I' for Inactive)
REMARK    1  A    between atoms: C_4  and  N_5 
REMARK    2  A    between atoms: N_5  and  C_6 
REMARK    3  A    between atoms: C_6  and  C_7 
REMARK    4  A    between atoms: N_17  and  N_19 
ROOT
HETATM    1  C   UNL     1       6.501  27.185  54.780  1.00  0.00     0.145 C 
HETATM    2  N   UNL     1       6.305  27.447  53.480  1.00  0.00    -0.307 N 
HETATM    3  H   UNL     1       5.996  26.659  52.913  1.00  0.00     0.182 HD
ENDROOT
BRANCH   1   4
HETATM    4  N   UNL     1       6.231  25.839  55.195  1.00  0.00    -0.339 N 
HETATM    5  H   UNL     1       5.291  25.690  55.545  1.00  0.00     0.167 HD
BRANCH   4   6
HETATM    6  C   UNL     1       7.048  24.694  55.239  1.00  0.00     0.040 A 
HETATM    7  C   UNL     1       7.088  23.804  54.152  1.00  0.00     0.036 A 
HETATM    8  C   UNL     1       7.941  22.692  54.146  1.00  0.00    -0.060 A 
HETATM    9  C   UNL     1       7.931  21.727  52.997  1.00  0.00     0.048 C 
HETATM   10  C   UNL     1       8.751  22.457  55.257  1.00  0.00     0.007 A 
HETATM   11  C   UNL     1       8.727  23.330  56.344  1.00  0.00     0.009 A 
HETATM   12  C   UNL     1       7.890  24.459  56.342  1.00  0.00    -0.035 A 
HETATM   13  C   UNL     1       7.913  25.376  57.536  1.00  0.00     0.050 C 
ENDBRANCH   4   6
ENDBRANCH   1   4
BRANCH   1  14
HETATM   14  C   UNL     1       7.008  28.150  55.807  1.00  0.00     0.102 A 
HETATM   15  N   UNL     1       8.309  28.536  55.685  1.00  0.00    -0.245 NA
HETATM   16  C   UNL     1       8.827  29.396  56.583  1.00  0.00     0.068 A 
HETATM   17  C   UNL     1       8.063  29.940  57.633  1.00  0.00    -0.007 A 
HETATM   18  C   UNL     1      10.161  29.770  56.481  1.00  0.00     0.032 A 
HETATM   19  C   UNL     1       6.721  29.560  57.728  1.00  0.00     0.016 A 
HETATM   20  C   UNL     1       8.646  30.838  58.544  1.00  0.00     0.014 A 
HETATM   21  C   UNL     1       6.187  28.662  56.808  1.00  0.00     0.036 A 
HETATM   22  C   UNL     1       9.985  31.198  58.418  1.00  0.00     0.001 A 
HETATM   23  C   UNL     1      10.746  30.662  57.385  1.00  0.00     0.002 A 
ENDBRANCH   1  14
BRANCH   2  24
HETATM   24  N   UNL     1       6.641  28.668  52.931  1.00  0.00    -0.248 NA
HETATM   25  H   UNL     1       6.951  29.329  53.655  1.00  0.00     0.143 HD
HETATM   26  H   UNL     1       5.865  29.057  52.397  1.00  0.00     0.143 HD
ENDBRANCH   2  24
TORSDOF 4
ENDMDL
MODEL 7
REMARK VINA RESULT:      -8.6      1.994      2.487
REMARK  4 active torsions:
REMARK  status: ('A' for Active; 'I' for Inactive)
REMARK    1  A    between atoms: C_4  and  N_5 
REMARK    2  A    between atoms: N_5  and  C_6 
REMARK    3  A    between atoms: C_6  and  C_7 
REMARK    4  A    between atoms: N_17  and  N_19 
ROOT
HETATM    1  C   UNL     1       6.591  25.620  56.801  1.00  0.00     0.145 C 
HETATM    2  N   UNL     1       7.212  25.744  57.983  1.00  0.00    -0.307 N 
HETATM    3  H   UNL     1       6.846  26.468  58.599  1.00  0.00     0.182 HD
ENDROOT
BRANCH   1   4
HETATM    4  N   UNL     1       5.489  26.509  56.576  1.00  0.00    -0.339 N 
HETATM    5  H   UNL     1       4.587  26.049  56.509  1.00  0.00     0.167 HD
BRANCH   4   6
HETATM    6  C   UNL     1       5.436  27.903  56.394  1.00  0.00     0.040 A 
HETATM    7  C   UNL     1       5.919  28.772  57.387  1.00  0.00     0.036 A 
HETATM    8  C   UNL     1       5.936  30.161  57.202  1.00  0.00    -0.060 A 
HETATM    9  C   UNL     1       6.410  31.072  58.296  1.00  0.00     0.048 C 
HETATM   10  C   UNL     1       5.441  30.689  56.010  1.00  0.00     0.007 A 
HETATM   11  C   UNL     1       4.960  29.843  55.011  1.00  0.00     0.009 A 
HETATM   12  C   UNL     1       4.963  28.449  55.185  1.00  0.00    -0.035 A 
HETATM   13  C   UNL     1       4.445  27.581  54.069  1.00  0.00     0.050 C 
ENDBRANCH   4   6
ENDBRANCH   1   4
BRANCH   1  14
HETATM   14  C   UNL     1       6.972  24.678  55.701  1.00  0.00     0.102 A 
HETATM   15  N   UNL     1       7.225  23.390  56.067  1.00  0.00    -0.245 NA
HETATM   16  C   UNL     1       7.581  22.496  55.124  1.00  0.00     0.068 A 
HETATM   17  C   UNL     1       7.672  22.835  53.761  1.00  0.00    -0.007 A 
HETATM   18  C   UNL     1       7.869  21.189  55.496  1.00  0.00     0.032 A 
HETATM   19  C   UNL     1       7.378  24.152  53.395  1.00  0.00     0.016 A 
HETATM   20  C   UNL     1       8.042  21.867  52.811  1.00  0.00     0.014 A 
HETATM   21  C   UNL     1       7.022  25.080  54.369  1.00  0.00     0.036 A 
HETATM   22  C   UNL     1       8.325  20.562  53.210  1.00  0.00     0.001 A 
HETATM   23  C   UNL     1       8.239  20.222  54.555  1.00  0.00     0.002 A 
ENDBRANCH   1  14
BRANCH   2  24
HETATM   24  N   UNL     1       8.358  25.033  58.275  1.00  0.00    -0.248 NA
HETATM   25  H   UNL     1       9.194  25.511  57.916  1.00  0.00     0.143 HD
HETATM   26  H   UNL     1       8.303  24.082  57.913  1.00  0.00     0.143 HD
ENDBRANCH   2  24
TORSDOF 4
ENDMDL
MODEL 8
REMARK VINA RESULT:      -8.6      1.740      2.793
REMARK  4 active torsions:
REMARK  status: ('A' for Active; 'I' for Inactive)
REMARK    1  A    between atoms: C_4  and  N_5 
REMARK    2  A    between atoms: N_5  and  C_6 
REMARK    3  A    between atoms: C_6  and  C_7 
REMARK    4  A    between atoms: N_17  and  N_19 
ROOT
HETATM    1  C   UNL     1       6.591  28.044  57.423  1.00  0.00     0.145 C 
HETATM    2  N   UNL     1       5.513  28.838  57.357  1.00  0.00    -0.307 N 
HETATM    3  H   UNL     1       5.500  29.619  58.011  1.00  0.00     0.182 HD
ENDROOT
BRANCH   1   4
HETATM    4  N   UNL     1       7.583  28.414  58.390  1.00  0.00    -0.339 N 
HETATM    5  H   UNL     1       7.767  27.706  59.093  1.00  0.00     0.167 HD
BRANCH   4   6
HETATM    6  C   UNL     1       8.323  29.599  58.562  1.00  0.00     0.040 A 
HETATM    7  C   UNL     1       7.970  30.521  59.563  1.00  0.00     0.036 A 
HETATM    8  C   UNL     1       8.728  31.676  59.796  1.00  0.00    -0.060 A 
HETATM    9  C   UNL     1       8.304  32.671  60.836  1.00  0.00     0.048 C 
HETATM   10  C   UNL     1       9.845  31.923  58.998  1.00  0.00     0.007 A 
HETATM   11  C   UNL     1      10.212  31.018  58.002  1.00  0.00     0.009 A 
HETATM   12  C   UNL     1       9.468  29.848  57.782  1.00  0.00    -0.035 A 
HETATM   13  C   UNL     1       9.916  28.899  56.702  1.00  0.00     0.050 C 
ENDBRANCH   4   6
ENDBRANCH   1   4
BRANCH   1  14
HETATM   14  C   UNL     1       6.823  26.804  56.616  1.00  0.00     0.102 A 
HETATM   15  N   UNL     1       7.125  26.985  55.300  1.00  0.00    -0.245 NA
HETATM   16  C   UNL     1       7.335  25.907  54.519  1.00  0.00     0.068 A 
HETATM   17  C   UNL     1       7.286  24.593  55.019  1.00  0.00    -0.007 A 
HETATM   18  C   UNL     1       7.614  26.086  53.170  1.00  0.00     0.032 A 
HETATM   19  C   UNL     1       7.006  24.422  56.378  1.00  0.00     0.016 A 
HETATM   20  C   UNL     1       7.517  23.499  54.167  1.00  0.00     0.014 A 
HETATM   21  C   UNL     1       6.777  25.534  57.185  1.00  0.00     0.036 A 
HETATM   22  C   UNL     1       7.797  23.705  52.818  1.00  0.00     0.001 A 
HETATM   23  C   UNL     1       7.845  25.001  52.317  1.00  0.00     0.002 A 
ENDBRANCH   1  14
BRANCH   2  24
HETATM   24  N   UNL     1       4.434  28.526  56.555  1.00  0.00    -0.248 NA
HETATM   25  H   UNL     1       3.628  28.225  57.117  1.00  0.00     0.143 HD
HETATM   26  H   UNL     1       4.681  27.815  55.868  1.00  0.00     0.143 HD
ENDBRANCH   2  24
TORSDOF 4
ENDMDL
MODEL 9
REMARK VINA RESULT:      -8.5      3.235      4.779
REMARK  4 active torsions:
REMARK  status: ('A' for Active; 'I' for Inactive)
REMARK    1  A    between atoms: C_4  and  N_5 
REMARK    2  A    between atoms: N_5  and  C_6 
REMARK    3  A    between atoms: C_6  and  C_7 
REMARK    4  A    between atoms: N_17  and  N_19 
ROOT
HETATM    1  C   UNL     1       6.140  25.746  54.784  1.00  0.00     0.145 C 
HETATM    2  N   UNL     1       6.578  26.593  55.725  1.00  0.00    -0.307 N 
HETATM    3  H   UNL     1       6.013  27.430  55.863  1.00  0.00     0.182 HD
ENDROOT
BRANCH   1   4
HETATM    4  N   UNL     1       4.931  26.124  54.114  1.00  0.00    -0.339 N 
HETATM    5  H   UNL     1       4.097  25.666  54.465  1.00  0.00     0.167 HD
BRANCH   4   6
HETATM    6  C   UNL     1       4.696  26.990  53.029  1.00  0.00     0.040 A 
HETATM    7  C   UNL     1       4.861  26.540  51.708  1.00  0.00     0.036 A 
HETATM    8  C   UNL     1       4.572  27.363  50.612  1.00  0.00    -0.060 A 
HETATM    9  C   UNL     1       4.804  26.879  49.210  1.00  0.00     0.048 C 
HETATM   10  C   UNL     1       4.132  28.666  50.843  1.00  0.00     0.007 A 
HETATM   11  C   UNL     1       3.959  29.130  52.147  1.00  0.00     0.009 A 
HETATM   12  C   UNL     1       4.225  28.299  53.248  1.00  0.00    -0.035 A 
HETATM   13  C   UNL     1       4.010  28.845  54.634  1.00  0.00     0.050 C 
ENDBRANCH   4   6
ENDBRANCH   1   4
BRANCH   1  14
HETATM   14  C   UNL     1       6.819  24.483  54.352  1.00  0.00     0.102 A 
HETATM   15  N   UNL     1       6.974  23.522  55.305  1.00  0.00    -0.245 NA
HETATM   16  C   UNL     1       7.585  22.365  54.982  1.00  0.00     0.068 A 
HETATM   17  C   UNL     1       8.045  22.096  53.679  1.00  0.00    -0.007 A 
HETATM   18  C   UNL     1       7.773  21.395  55.957  1.00  0.00     0.032 A 
HETATM   19  C   UNL     1       7.850  23.077  52.702  1.00  0.00     0.016 A 
HETATM   20  C   UNL     1       8.673  20.872  53.386  1.00  0.00     0.014 A 
HETATM   21  C   UNL     1       7.230  24.277  53.038  1.00  0.00     0.036 A 
HETATM   22  C   UNL     1       8.847  19.915  54.382  1.00  0.00     0.001 A 
HETATM   23  C   UNL     1       8.397  20.177  55.672  1.00  0.00     0.002 A 
ENDBRANCH   1  14
BRANCH   2  24
HETATM   24  N   UNL     1       7.790  26.406  56.360  1.00  0.00    -0.248 NA
HETATM   25  H   UNL     1       7.821  25.498  56.841  1.00  0.00     0.143 HD
HETATM   26  H   UNL     1       7.985  27.166  57.010  1.00  0.00     0.143 HD
ENDBRANCH   2  24
TORSDOF 4
ENDMDL
MODEL 10
REMARK VINA RESULT:      -8.3      2.039      6.841
REMARK  4 active torsions:
REMARK  status: ('A' for Active; 'I' for Inactive)
REMARK    1  A    between atoms: C_4  and  N_5 
REMARK    2  A    between atoms: N_5  and  C_6 
REMARK    3  A    between atoms: C_6  and  C_7 
REMARK    4  A    between atoms: N_17  and  N_19 
ROOT
HETATM    1  C   UNL     1       7.519  25.749  56.344  1.00  0.00     0.145 C 
HETATM    2  N   UNL     1       8.176  25.120  57.329  1.00  0.00    -0.307 N 
HETATM    3  H   UNL     1       8.718  24.304  57.047  1.00  0.00     0.182 HD
ENDROOT
BRANCH   1   4
HETATM    4  N   UNL     1       7.683  25.198  55.030  1.00  0.00    -0.339 N 
HETATM    5  H   UNL     1       7.696  25.887  54.286  1.00  0.00     0.167 HD
BRANCH   4   6
HETATM    6  C   UNL     1       7.791  23.868  54.582  1.00  0.00     0.040 A 
HETATM    7  C   UNL     1       7.782  22.803  55.499  1.00  0.00     0.036 A 
HETATM    8  C   UNL     1       7.824  21.469  55.074  1.00  0.00    -0.060 A 
HETATM    9  C   UNL     1       7.865  20.349  56.072  1.00  0.00     0.048 C 
HETATM   10  C   UNL     1       7.899  21.198  53.708  1.00  0.00     0.007 A 
HETATM   11  C   UNL     1       7.906  22.242  52.782  1.00  0.00     0.009 A 
HETATM   12  C   UNL     1       7.840  23.580  53.205  1.00  0.00    -0.035 A 
HETATM   13  C   UNL     1       7.838  24.667  52.164  1.00  0.00     0.050 C 
ENDBRANCH   4   6
ENDBRANCH   1   4
BRANCH   1  14
HETATM   14  C   UNL     1       6.612  26.929  56.504  1.00  0.00     0.102 A 
HETATM   15  N   UNL     1       7.135  28.013  57.142  1.00  0.00    -0.245 NA
HETATM   16  C   UNL     1       6.366  29.104  57.325  1.00  0.00     0.068 A 
HETATM   17  C   UNL     1       5.043  29.181  56.852  1.00  0.00    -0.007 A 
HETATM   18  C   UNL     1       6.885  30.201  58.001  1.00  0.00     0.032 A 
HETATM   19  C   UNL     1       4.528  28.073  56.172  1.00  0.00     0.016 A 
HETATM   20  C   UNL     1       4.278  30.342  57.063  1.00  0.00     0.014 A 
HETATM   21  C   UNL     1       5.317  26.941  55.992  1.00  0.00     0.036 A 
HETATM   22  C   UNL     1       4.824  31.429  57.742  1.00  0.00     0.001 A 
HETATM   23  C   UNL     1       6.130  31.359  58.214  1.00  0.00     0.002 A 
ENDBRANCH   1  14
BRANCH   2  24
HETATM   24  N   UNL     1       8.008  25.476  58.652  1.00  0.00    -0.248 NA
HETATM   25  H   UNL     1       7.315  26.229  58.749  1.00  0.00     0.143 HD
HETATM   26  H   UNL     1       8.896  25.746  59.075  1.00  0.00     0.143 HD
ENDBRANCH   2  24
TORSDOF 4
ENDMDL
