MODEL 1
REMARK VINA RESULT:      -8.9      0.000      0.000
REMARK  3 active torsions:
REMARK  status: ('A' for Active; 'I' for Inactive)
REMARK    1  A    between atoms: C_6  and  C_7 
REMARK       I    between atoms: C_7  and  N_8 
REMARK    2  A    between atoms: N_8  and  C_9 
REMARK    3  A    between atoms: C_12  and  C_13 
REMARK       I    between atoms: C_13  and  N_14 
ROOT
HETATM    1  C   UNL     1       6.700  25.085  55.750  1.00  0.00     0.257 C 
HETATM    2  N   UNL     1       7.519  26.197  55.703  1.00  0.00    -0.322 N 
HETATM    3  O   UNL     1       5.643  24.973  56.353  1.00  0.00    -0.267 OA
HETATM    4  H   UNL     1       8.370  26.115  55.159  1.00  0.00     0.169 HD
ENDROOT
BRANCH   2   5
HETATM    5  C   UNL     1       7.286  27.432  56.340  1.00  0.00     0.052 A 
HETATM    6  C   UNL     1       6.362  28.389  55.917  1.00  0.00     0.147 A 
HETATM    7  N   UNL     1       6.140  29.571  56.548  1.00  0.00    -0.253 NA
HETATM    8  C   UNL     1       6.888  29.814  57.659  1.00  0.00     0.124 A 
HETATM    9  C   UNL     1       7.836  28.932  58.157  1.00  0.00     0.039 A 
HETATM   10  C   UNL     1       8.030  27.724  57.487  1.00  0.00     0.033 A 
BRANCH   8  11
HETATM   11  C   UNL     1       6.640  31.116  58.355  1.00  0.00     0.268 C 
HETATM   12  N   UNL     1       5.344  31.332  58.739  1.00  0.00    -0.365 N 
HETATM   13  H   UNL     1       4.643  30.626  58.539  1.00  0.00     0.159 HD
HETATM   14  H   UNL     1       5.095  32.184  59.219  1.00  0.00     0.159 HD
HETATM   15  O   UNL     1       7.528  31.929  58.574  1.00  0.00    -0.266 OA
ENDBRANCH   8  11
ENDBRANCH   2   5
BRANCH   1  16
HETATM   16  C   UNL     1       7.221  23.918  54.988  1.00  0.00     0.044 A 
HETATM   17  C   UNL     1       8.048  22.989  55.653  1.00  0.00    -0.045 A 
HETATM   18  C   UNL     1       8.523  21.876  54.942  1.00  0.00     0.014 A 
HETATM   19  C   UNL     1       8.404  23.138  57.108  1.00  0.00     0.049 C 
HETATM   20  C   UNL     1       8.194  21.686  53.595  1.00  0.00    -0.061 A 
HETATM   21  C   UNL     1       8.736  20.502  52.847  1.00  0.00     0.048 C 
HETATM   22  C   UNL     1       7.392  22.630  52.945  1.00  0.00     0.014 A 
HETATM   23  C   UNL     1       6.875  23.740  53.632  1.00  0.00    -0.045 A 
HETATM   24  C   UNL     1       5.982  24.699  52.892  1.00  0.00     0.049 C 
ENDBRANCH   1  16
TORSDOF 3
ENDMDL
MODEL 2
REMARK VINA RESULT:      -8.8      0.539      1.975
REMARK  3 active torsions:
REMARK  status: ('A' for Active; 'I' for Inactive)
REMARK    1  A    between atoms: C_6  and  C_7 
REMARK       I    between atoms: C_7  and  N_8 
REMARK    2  A    between atoms: N_8  and  C_9 
REMARK    3  A    between atoms: C_12  and  C_13 
REMARK       I    between atoms: C_13  and  N_14 
ROOT
HETATM    1  C   UNL     1       6.674  25.101  55.698  1.00  0.00     0.257 C 
HETATM    2  N   UNL     1       7.523  26.191  55.682  1.00  0.00    -0.322 N 
HETATM    3  O   UNL     1       5.586  25.021  56.248  1.00  0.00    -0.267 OA
HETATM    4  H   UNL     1       8.397  26.082  55.181  1.00  0.00     0.169 HD
ENDROOT
BRANCH   2   5
HETATM    5  C   UNL     1       7.291  27.437  56.298  1.00  0.00     0.052 A 
HETATM    6  C   UNL     1       6.425  28.419  55.815  1.00  0.00     0.147 A 
HETATM    7  N   UNL     1       6.203  29.613  56.425  1.00  0.00    -0.253 NA
HETATM    8  C   UNL     1       6.890  29.840  57.577  1.00  0.00     0.124 A 
HETATM    9  C   UNL     1       7.779  28.933  58.136  1.00  0.00     0.039 A 
HETATM   10  C   UNL     1       7.974  27.714  57.485  1.00  0.00     0.033 A 
BRANCH   8  11
HETATM   11  C   UNL     1       6.642  31.154  58.250  1.00  0.00     0.268 C 
HETATM   12  N   UNL     1       6.956  31.193  59.582  1.00  0.00    -0.365 N 
HETATM   13  H   UNL     1       7.326  30.360  60.029  1.00  0.00     0.159 HD
HETATM   14  H   UNL     1       6.822  32.044  60.107  1.00  0.00     0.159 HD
HETATM   15  O   UNL     1       6.196  32.128  57.658  1.00  0.00    -0.266 OA
ENDBRANCH   8  11
ENDBRANCH   2   5
BRANCH   1  16
HETATM   16  C   UNL     1       7.201  23.915  54.971  1.00  0.00     0.044 A 
HETATM   17  C   UNL     1       6.896  23.768  53.602  1.00  0.00    -0.045 A 
HETATM   18  C   UNL     1       7.410  22.662  52.908  1.00  0.00     0.014 A 
HETATM   19  C   UNL     1       6.067  24.781  52.858  1.00  0.00     0.049 C 
HETATM   20  C   UNL     1       8.206  21.711  53.556  1.00  0.00    -0.061 A 
HETATM   21  C   UNL     1       8.724  20.520  52.801  1.00  0.00     0.048 C 
HETATM   22  C   UNL     1       8.480  21.859  54.920  1.00  0.00     0.014 A 
HETATM   23  C   UNL     1       8.007  22.969  55.639  1.00  0.00    -0.045 A 
HETATM   24  C   UNL     1       8.370  23.098  57.093  1.00  0.00     0.049 C 
ENDBRANCH   1  16
TORSDOF 3
ENDMDL
MODEL 3
REMARK VINA RESULT:      -8.3      2.760      3.523
REMARK  3 active torsions:
REMARK  status: ('A' for Active; 'I' for Inactive)
REMARK    1  A    between atoms: C_6  and  C_7 
REMARK       I    between atoms: C_7  and  N_8 
REMARK    2  A    between atoms: N_8  and  C_9 
REMARK    3  A    between atoms: C_12  and  C_13 
REMARK       I    between atoms: C_13  and  N_14 
ROOT
HETATM    1  C   UNL     1       6.731  26.199  54.505  1.00  0.00     0.257 C 
HETATM    2  N   UNL     1       5.370  26.422  54.578  1.00  0.00    -0.322 N 
HETATM    3  O   UNL     1       7.620  27.035  54.572  1.00  0.00    -0.267 OA
HETATM    4  H   UNL     1       4.769  25.610  54.494  1.00  0.00     0.169 HD
ENDROOT
BRANCH   2   5
HETATM    5  C   UNL     1       4.737  27.668  54.753  1.00  0.00     0.052 A 
HETATM    6  C   UNL     1       4.246  28.468  53.720  1.00  0.00     0.147 A 
HETATM    7  N   UNL     1       3.628  29.664  53.904  1.00  0.00    -0.253 NA
HETATM    8  C   UNL     1       3.500  30.088  55.191  1.00  0.00     0.124 A 
HETATM    9  C   UNL     1       3.961  29.371  56.287  1.00  0.00     0.039 A 
HETATM   10  C   UNL     1       4.582  28.143  56.059  1.00  0.00     0.033 A 
BRANCH   8  11
HETATM   11  C   UNL     1       2.816  31.403  55.393  1.00  0.00     0.268 C 
HETATM   12  N   UNL     1       2.238  31.936  54.272  1.00  0.00    -0.365 N 
HETATM   13  H   UNL     1       2.302  31.432  53.394  1.00  0.00     0.159 HD
HETATM   14  H   UNL     1       1.753  32.819  54.326  1.00  0.00     0.159 HD
HETATM   15  O   UNL     1       2.768  31.965  56.480  1.00  0.00    -0.266 OA
ENDBRANCH   8  11
ENDBRANCH   2   5
BRANCH   1  16
HETATM   16  C   UNL     1       7.099  24.773  54.298  1.00  0.00     0.044 A 
HETATM   17  C   UNL     1       7.287  24.305  52.981  1.00  0.00    -0.045 A 
HETATM   18  C   UNL     1       7.656  22.966  52.783  1.00  0.00     0.014 A 
HETATM   19  C   UNL     1       7.139  25.209  51.786  1.00  0.00     0.049 C 
HETATM   20  C   UNL     1       7.830  22.098  53.867  1.00  0.00    -0.061 A 
HETATM   21  C   UNL     1       8.198  20.661  53.632  1.00  0.00     0.048 C 
HETATM   22  C   UNL     1       7.617  22.572  55.167  1.00  0.00     0.014 A 
HETATM   23  C   UNL     1       7.276  23.914  55.403  1.00  0.00    -0.045 A 
HETATM   24  C   UNL     1       7.103  24.378  56.824  1.00  0.00     0.049 C 
ENDBRANCH   1  16
TORSDOF 3
ENDMDL
MODEL 4
REMARK VINA RESULT:      -8.3      3.881      9.430
REMARK  3 active torsions:
REMARK  status: ('A' for Active; 'I' for Inactive)
REMARK    1  A    between atoms: C_6  and  C_7 
REMARK       I    between atoms: C_7  and  N_8 
REMARK    2  A    between atoms: N_8  and  C_9 
REMARK    3  A    between atoms: C_12  and  C_13 
REMARK       I    between atoms: C_13  and  N_14 
ROOT
HETATM    1  C   UNL     1       7.726  31.833  59.731  1.00  0.00     0.257 C 
HETATM    2  N   UNL     1       7.005  30.700  59.404  1.00  0.00    -0.322 N 
HETATM    3  O   UNL     1       8.511  32.439  59.017  1.00  0.00    -0.267 OA
HETATM    4  H   UNL     1       6.401  30.319  60.123  1.00  0.00     0.169 HD
ENDROOT
BRANCH   2   5
HETATM    5  C   UNL     1       7.031  30.023  58.168  1.00  0.00     0.052 A 
HETATM    6  C   UNL     1       6.204  30.310  57.081  1.00  0.00     0.147 A 
HETATM    7  N   UNL     1       6.248  29.656  55.891  1.00  0.00    -0.253 NA
HETATM    8  C   UNL     1       7.163  28.655  55.784  1.00  0.00     0.124 A 
HETATM    9  C   UNL     1       8.025  28.287  56.808  1.00  0.00     0.039 A 
HETATM   10  C   UNL     1       7.957  28.988  58.012  1.00  0.00     0.033 A 
BRANCH   8  11
HETATM   11  C   UNL     1       7.213  27.937  54.472  1.00  0.00     0.268 C 
HETATM   12  N   UNL     1       6.758  28.655  53.399  1.00  0.00    -0.365 N 
HETATM   13  H   UNL     1       6.421  29.602  53.542  1.00  0.00     0.159 HD
HETATM   14  H   UNL     1       6.763  28.244  52.478  1.00  0.00     0.159 HD
HETATM   15  O   UNL     1       7.634  26.793  54.358  1.00  0.00    -0.266 OA
ENDBRANCH   8  11
ENDBRANCH   2   5
BRANCH   1  16
HETATM   16  C   UNL     1       7.502  32.310  61.122  1.00  0.00     0.044 A 
HETATM   17  C   UNL     1       8.435  31.955  62.119  1.00  0.00    -0.045 A 
HETATM   18  C   UNL     1       8.238  32.422  63.427  1.00  0.00     0.014 A 
HETATM   19  C   UNL     1       9.651  31.123  61.811  1.00  0.00     0.049 C 
HETATM   20  C   UNL     1       7.135  33.219  63.751  1.00  0.00    -0.061 A 
HETATM   21  C   UNL     1       6.928  33.685  65.163  1.00  0.00     0.048 C 
HETATM   22  C   UNL     1       6.206  33.542  62.755  1.00  0.00     0.014 A 
HETATM   23  C   UNL     1       6.386  33.117  61.428  1.00  0.00    -0.045 A 
HETATM   24  C   UNL     1       5.379  33.532  60.391  1.00  0.00     0.049 C 
ENDBRANCH   1  16
TORSDOF 3
ENDMDL
MODEL 5
REMARK VINA RESULT:      -8.2      3.879      9.584
REMARK  3 active torsions:
REMARK  status: ('A' for Active; 'I' for Inactive)
REMARK    1  A    between atoms: C_6  and  C_7 
REMARK       I    between atoms: C_7  and  N_8 
REMARK    2  A    between atoms: N_8  and  C_9 
REMARK    3  A    between atoms: C_12  and  C_13 
REMARK       I    between atoms: C_13  and  N_14 
ROOT
HETATM    1  C   UNL     1       7.755  31.841  59.739  1.00  0.00     0.257 C 
HETATM    2  N   UNL     1       7.030  30.710  59.418  1.00  0.00    -0.322 N 
HETATM    3  O   UNL     1       8.540  32.443  59.021  1.00  0.00    -0.267 OA
HETATM    4  H   UNL     1       6.428  30.333  60.140  1.00  0.00     0.169 HD
ENDROOT
BRANCH   2   5
HETATM    5  C   UNL     1       7.051  30.029  58.184  1.00  0.00     0.052 A 
HETATM    6  C   UNL     1       6.204  30.298  57.108  1.00  0.00     0.147 A 
HETATM    7  N   UNL     1       6.242  29.640  55.920  1.00  0.00    -0.253 NA
HETATM    8  C   UNL     1       7.172  28.654  55.804  1.00  0.00     0.124 A 
HETATM    9  C   UNL     1       8.055  28.305  56.816  1.00  0.00     0.039 A 
HETATM   10  C   UNL     1       7.991  29.008  58.019  1.00  0.00     0.033 A 
BRANCH   8  11
HETATM   11  C   UNL     1       7.215  27.932  54.493  1.00  0.00     0.268 C 
HETATM   12  N   UNL     1       6.805  28.665  53.412  1.00  0.00    -0.365 N 
HETATM   13  H   UNL     1       6.501  29.623  53.549  1.00  0.00     0.159 HD
HETATM   14  H   UNL     1       6.808  28.252  52.492  1.00  0.00     0.159 HD
HETATM   15  O   UNL     1       7.595  26.773  54.388  1.00  0.00    -0.266 OA
ENDBRANCH   8  11
ENDBRANCH   2   5
BRANCH   1  16
HETATM   16  C   UNL     1       7.537  32.323  61.129  1.00  0.00     0.044 A 
HETATM   17  C   UNL     1       6.402  33.115  61.402  1.00  0.00    -0.045 A 
HETATM   18  C   UNL     1       6.182  33.553  62.717  1.00  0.00     0.014 A 
HETATM   19  C   UNL     1       5.404  33.472  60.332  1.00  0.00     0.049 C 
HETATM   20  C   UNL     1       7.070  33.222  63.746  1.00  0.00    -0.061 A 
HETATM   21  C   UNL     1       6.830  33.724  65.141  1.00  0.00     0.048 C 
HETATM   22  C   UNL     1       8.204  32.455  63.454  1.00  0.00     0.014 A 
HETATM   23  C   UNL     1       8.441  31.975  62.155  1.00  0.00    -0.045 A 
HETATM   24  C   UNL     1       9.653  31.118  61.910  1.00  0.00     0.049 C 
ENDBRANCH   1  16
TORSDOF 3
ENDMDL
MODEL 6
REMARK VINA RESULT:      -8.2      2.683      3.192
REMARK  3 active torsions:
REMARK  status: ('A' for Active; 'I' for Inactive)
REMARK    1  A    between atoms: C_6  and  C_7 
REMARK       I    between atoms: C_7  and  N_8 
REMARK    2  A    between atoms: N_8  and  C_9 
REMARK    3  A    between atoms: C_12  and  C_13 
REMARK       I    between atoms: C_13  and  N_14 
ROOT
HETATM    1  C   UNL     1       6.758  26.211  54.553  1.00  0.00     0.257 C 
HETATM    2  N   UNL     1       5.393  26.423  54.597  1.00  0.00    -0.322 N 
HETATM    3  O   UNL     1       7.638  27.049  54.685  1.00  0.00    -0.267 OA
HETATM    4  H   UNL     1       4.800  25.613  54.458  1.00  0.00     0.169 HD
ENDROOT
BRANCH   2   5
HETATM    5  C   UNL     1       4.747  27.657  54.810  1.00  0.00     0.052 A 
HETATM    6  C   UNL     1       4.441  28.194  56.062  1.00  0.00     0.147 A 
HETATM    7  N   UNL     1       3.827  29.391  56.253  1.00  0.00    -0.253 NA
HETATM    8  C   UNL     1       3.493  30.085  55.132  1.00  0.00     0.124 A 
HETATM    9  C   UNL     1       3.746  29.637  53.844  1.00  0.00     0.039 A 
HETATM   10  C   UNL     1       4.386  28.407  53.687  1.00  0.00     0.033 A 
BRANCH   8  11
HETATM   11  C   UNL     1       2.820  31.405  55.345  1.00  0.00     0.268 C 
HETATM   12  N   UNL     1       2.313  31.988  54.215  1.00  0.00    -0.365 N 
HETATM   13  H   UNL     1       2.417  31.514  53.323  1.00  0.00     0.159 HD
HETATM   14  H   UNL     1       1.840  32.877  54.274  1.00  0.00     0.159 HD
HETATM   15  O   UNL     1       2.721  31.929  56.447  1.00  0.00    -0.266 OA
ENDBRANCH   8  11
ENDBRANCH   2   5
BRANCH   1  16
HETATM   16  C   UNL     1       7.141  24.798  54.293  1.00  0.00     0.044 A 
HETATM   17  C   UNL     1       7.297  23.925  55.389  1.00  0.00    -0.045 A 
HETATM   18  C   UNL     1       7.638  22.586  55.145  1.00  0.00     0.014 A 
HETATM   19  C   UNL     1       7.074  24.379  56.807  1.00  0.00     0.049 C 
HETATM   20  C   UNL     1       7.829  22.116  53.841  1.00  0.00    -0.061 A 
HETATM   21  C   UNL     1       8.220  20.686  53.604  1.00  0.00     0.048 C 
HETATM   22  C   UNL     1       7.693  23.001  52.766  1.00  0.00     0.014 A 
HETATM   23  C   UNL     1       7.324  24.341  52.971  1.00  0.00    -0.045 A 
HETATM   24  C   UNL     1       7.150  25.235  51.774  1.00  0.00     0.049 C 
ENDBRANCH   1  16
TORSDOF 3
ENDMDL
MODEL 7
REMARK VINA RESULT:      -7.7      5.009      8.184
REMARK  3 active torsions:
REMARK  status: ('A' for Active; 'I' for Inactive)
REMARK    1  A    between atoms: C_6  and  C_7 
REMARK       I    between atoms: C_7  and  N_8 
REMARK    2  A    between atoms: N_8  and  C_9 
REMARK    3  A    between atoms: C_12  and  C_13 
REMARK       I    between atoms: C_13  and  N_14 
ROOT
HETATM    1  C   UNL     1       6.831  31.941  59.737  1.00  0.00     0.257 C 
HETATM    2  N   UNL     1       6.886  31.341  60.980  1.00  0.00    -0.322 N 
HETATM    3  O   UNL     1       6.506  33.093  59.488  1.00  0.00    -0.267 OA
HETATM    4  H   UNL     1       7.169  30.369  61.005  1.00  0.00     0.169 HD
ENDROOT
BRANCH   2   5
HETATM    5  C   UNL     1       6.581  31.949  62.214  1.00  0.00     0.052 A 
HETATM    6  C   UNL     1       5.321  31.952  62.814  1.00  0.00     0.147 A 
HETATM    7  N   UNL     1       5.043  32.534  64.010  1.00  0.00    -0.253 NA
HETATM    8  C   UNL     1       6.079  33.153  64.637  1.00  0.00     0.124 A 
HETATM    9  C   UNL     1       7.367  33.212  64.122  1.00  0.00     0.039 A 
HETATM   10  C   UNL     1       7.616  32.596  62.895  1.00  0.00     0.033 A 
BRANCH   8  11
HETATM   11  C   UNL     1       5.773  33.790  65.957  1.00  0.00     0.268 C 
HETATM   12  N   UNL     1       6.867  34.146  66.698  1.00  0.00    -0.365 N 
HETATM   13  H   UNL     1       7.796  33.965  66.331  1.00  0.00     0.159 HD
HETATM   14  H   UNL     1       6.746  34.585  67.598  1.00  0.00     0.159 HD
HETATM   15  O   UNL     1       4.630  33.987  66.347  1.00  0.00    -0.266 OA
ENDBRANCH   8  11
ENDBRANCH   2   5
BRANCH   1  16
HETATM   16  C   UNL     1       7.194  31.037  58.613  1.00  0.00     0.044 A 
HETATM   17  C   UNL     1       6.161  30.475  57.834  1.00  0.00    -0.045 A 
HETATM   18  C   UNL     1       6.501  29.639  56.760  1.00  0.00     0.014 A 
HETATM   19  C   UNL     1       4.710  30.775  58.100  1.00  0.00     0.049 C 
HETATM   20  C   UNL     1       7.839  29.355  56.462  1.00  0.00    -0.061 A 
HETATM   21  C   UNL     1       8.180  28.436  55.324  1.00  0.00     0.048 C 
HETATM   22  C   UNL     1       8.851  29.903  57.259  1.00  0.00     0.014 A 
HETATM   23  C   UNL     1       8.548  30.767  58.324  1.00  0.00    -0.045 A 
HETATM   24  C   UNL     1       9.679  31.360  59.118  1.00  0.00     0.049 C 
ENDBRANCH   1  16
TORSDOF 3
ENDMDL
MODEL 8
REMARK VINA RESULT:      -7.5      4.600      6.911
REMARK  3 active torsions:
REMARK  status: ('A' for Active; 'I' for Inactive)
REMARK    1  A    between atoms: C_6  and  C_7 
REMARK       I    between atoms: C_7  and  N_8 
REMARK    2  A    between atoms: N_8  and  C_9 
REMARK    3  A    between atoms: C_12  and  C_13 
REMARK       I    between atoms: C_13  and  N_14 
ROOT
HETATM    1  C   UNL     1       5.330  25.433  53.144  1.00  0.00     0.257 C 
HETATM    2  N   UNL     1       5.739  26.410  52.256  1.00  0.00    -0.322 N 
HETATM    3  O   UNL     1       4.287  24.796  53.110  1.00  0.00    -0.267 OA
HETATM    4  H   UNL     1       6.635  26.847  52.438  1.00  0.00     0.169 HD
ENDROOT
BRANCH   2   5
HETATM    5  C   UNL     1       5.029  26.858  51.124  1.00  0.00     0.052 A 
HETATM    6  C   UNL     1       4.404  28.101  51.013  1.00  0.00     0.147 A 
HETATM    7  N   UNL     1       3.731  28.525  49.912  1.00  0.00    -0.253 NA
HETATM    8  C   UNL     1       3.674  27.657  48.866  1.00  0.00     0.124 A 
HETATM    9  C   UNL     1       4.256  26.397  48.879  1.00  0.00     0.039 A 
HETATM   10  C   UNL     1       4.945  25.999  50.024  1.00  0.00     0.033 A 
BRANCH   8  11
HETATM   11  C   UNL     1       2.936  28.126  47.652  1.00  0.00     0.268 C 
HETATM   12  N   UNL     1       2.450  27.133  46.846  1.00  0.00    -0.365 N 
HETATM   13  H   UNL     1       2.610  26.164  47.102  1.00  0.00     0.159 HD
HETATM   14  H   UNL     1       1.937  27.367  46.009  1.00  0.00     0.159 HD
HETATM   15  O   UNL     1       2.770  29.312  47.395  1.00  0.00    -0.266 OA
ENDBRANCH   8  11
ENDBRANCH   2   5
BRANCH   1  16
HETATM   16  C   UNL     1       6.288  25.188  54.255  1.00  0.00     0.044 A 
HETATM   17  C   UNL     1       6.193  25.978  55.419  1.00  0.00    -0.045 A 
HETATM   18  C   UNL     1       7.082  25.734  56.477  1.00  0.00     0.014 A 
HETATM   19  C   UNL     1       5.146  27.049  55.572  1.00  0.00     0.049 C 
HETATM   20  C   UNL     1       8.053  24.731  56.387  1.00  0.00    -0.061 A 
HETATM   21  C   UNL     1       9.012  24.505  57.520  1.00  0.00     0.048 C 
HETATM   22  C   UNL     1       8.149  23.972  55.215  1.00  0.00     0.014 A 
HETATM   23  C   UNL     1       7.258  24.169  54.148  1.00  0.00    -0.045 A 
HETATM   24  C   UNL     1       7.380  23.292  52.931  1.00  0.00     0.049 C 
ENDBRANCH   1  16
TORSDOF 3
ENDMDL
MODEL 9
REMARK VINA RESULT:      -7.4      4.187      9.185
REMARK  3 active torsions:
REMARK  status: ('A' for Active; 'I' for Inactive)
REMARK    1  A    between atoms: C_6  and  C_7 
REMARK       I    between atoms: C_7  and  N_8 
REMARK    2  A    between atoms: N_8  and  C_9 
REMARK    3  A    between atoms: C_12  and  C_13 
REMARK       I    between atoms: C_13  and  N_14 
ROOT
HETATM    1  C   UNL     1       6.549  31.794  59.083  1.00  0.00     0.257 C 
HETATM    2  N   UNL     1       6.540  30.432  58.850  1.00  0.00    -0.322 N 
HETATM    3  O   UNL     1       6.402  32.685  58.259  1.00  0.00    -0.267 OA
HETATM    4  H   UNL     1       6.687  29.830  59.651  1.00  0.00     0.169 HD
ENDROOT
BRANCH   2   5
HETATM    5  C   UNL     1       6.352  29.801  57.604  1.00  0.00     0.052 A 
HETATM    6  C   UNL     1       7.361  29.556  56.671  1.00  0.00     0.147 A 
HETATM    7  N   UNL     1       7.166  28.937  55.477  1.00  0.00    -0.253 NA
HETATM    8  C   UNL     1       5.893  28.547  55.198  1.00  0.00     0.124 A 
HETATM    9  C   UNL     1       4.820  28.750  56.054  1.00  0.00     0.039 A 
HETATM   10  C   UNL     1       5.060  29.382  57.275  1.00  0.00     0.033 A 
BRANCH   8  11
HETATM   11  C   UNL     1       5.682  27.861  53.884  1.00  0.00     0.268 C 
HETATM   12  N   UNL     1       4.616  27.003  53.842  1.00  0.00    -0.365 N 
HETATM   13  H   UNL     1       4.045  26.879  54.672  1.00  0.00     0.159 HD
HETATM   14  H   UNL     1       4.403  26.505  52.991  1.00  0.00     0.159 HD
HETATM   15  O   UNL     1       6.402  28.054  52.913  1.00  0.00    -0.266 OA
ENDBRANCH   8  11
ENDBRANCH   2   5
BRANCH   1  16
HETATM   16  C   UNL     1       6.790  32.161  60.504  1.00  0.00     0.044 A 
HETATM   17  C   UNL     1       8.120  32.238  60.969  1.00  0.00    -0.045 A 
HETATM   18  C   UNL     1       8.351  32.605  62.303  1.00  0.00     0.014 A 
HETATM   19  C   UNL     1       9.295  31.971  60.066  1.00  0.00     0.049 C 
HETATM   20  C   UNL     1       7.288  32.886  63.169  1.00  0.00    -0.061 A 
HETATM   21  C   UNL     1       7.557  33.251  64.600  1.00  0.00     0.048 C 
HETATM   22  C   UNL     1       5.974  32.783  62.698  1.00  0.00     0.014 A 
HETATM   23  C   UNL     1       5.706  32.447  61.361  1.00  0.00    -0.045 A 
HETATM   24  C   UNL     1       4.275  32.395  60.900  1.00  0.00     0.049 C 
ENDBRANCH   1  16
TORSDOF 3
ENDMDL
MODEL 10
REMARK VINA RESULT:      -7.4      3.808      5.818
REMARK  3 active torsions:
REMARK  status: ('A' for Active; 'I' for Inactive)
REMARK    1  A    between atoms: C_6  and  C_7 
REMARK       I    between atoms: C_7  and  N_8 
REMARK    2  A    between atoms: N_8  and  C_9 
REMARK    3  A    between atoms: C_12  and  C_13 
REMARK       I    between atoms: C_13  and  N_14 
ROOT
HETATM    1  C   UNL     1       7.106  25.552  53.604  1.00  0.00     0.257 C 
HETATM    2  N   UNL     1       5.812  25.492  53.122  1.00  0.00    -0.322 N 
HETATM    3  O   UNL     1       7.959  26.381  53.324  1.00  0.00    -0.267 OA
HETATM    4  H   UNL     1       5.237  24.727  53.455  1.00  0.00     0.169 HD
ENDROOT
BRANCH   2   5
HETATM    5  C   UNL     1       5.220  26.387  52.210  1.00  0.00     0.052 A 
HETATM    6  C   UNL     1       4.597  27.587  52.557  1.00  0.00     0.147 A 
HETATM    7  N   UNL     1       4.039  28.446  51.665  1.00  0.00    -0.253 NA
HETATM    8  C   UNL     1       4.098  28.083  50.356  1.00  0.00     0.124 A 
HETATM    9  C   UNL     1       4.688  26.908  49.908  1.00  0.00     0.039 A 
HETATM   10  C   UNL     1       5.258  26.055  50.853  1.00  0.00     0.033 A 
BRANCH   8  11
HETATM   11  C   UNL     1       3.486  29.032  49.374  1.00  0.00     0.268 C 
HETATM   12  N   UNL     1       4.176  30.199  49.185  1.00  0.00    -0.365 N 
HETATM   13  H   UNL     1       5.034  30.357  49.703  1.00  0.00     0.159 HD
HETATM   14  H   UNL     1       3.831  30.890  48.536  1.00  0.00     0.159 HD
HETATM   15  O   UNL     1       2.447  28.786  48.774  1.00  0.00    -0.266 OA
ENDBRANCH   8  11
ENDBRANCH   2   5
BRANCH   1  16
HETATM   16  C   UNL     1       7.452  24.454  54.545  1.00  0.00     0.044 A 
HETATM   17  C   UNL     1       7.796  23.192  54.017  1.00  0.00    -0.045 A 
HETATM   18  C   UNL     1       8.144  22.159  54.900  1.00  0.00     0.014 A 
HETATM   19  C   UNL     1       7.834  22.933  52.534  1.00  0.00     0.049 C 
HETATM   20  C   UNL     1       8.147  22.365  56.285  1.00  0.00    -0.061 A 
HETATM   21  C   UNL     1       8.496  21.238  57.214  1.00  0.00     0.048 C 
HETATM   22  C   UNL     1       7.781  23.616  56.793  1.00  0.00     0.014 A 
HETATM   23  C   UNL     1       7.455  24.681  55.937  1.00  0.00    -0.045 A 
HETATM   24  C   UNL     1       7.112  26.016  56.540  1.00  0.00     0.049 C 
ENDBRANCH   1  16
TORSDOF 3
ENDMDL
