MODEL 1
REMARK VINA RESULT:      -9.2      0.000      0.000
REMARK  3 active torsions:
REMARK  status: ('A' for Active; 'I' for Inactive)
REMARK    1  A    between atoms: N_2  and  C_5 
REMARK    2  A    between atoms: C_5  and  C_6 
REMARK       I    between atoms: C_6  and  N_7 
REMARK    3  A    between atoms: N_7  and  C_8 
ROOT
HETATM    1  C   UNL     1       7.589  27.593  56.272  1.00  0.00     0.036 A 
HETATM    2  C   UNL     1       7.461  26.219  56.492  1.00  0.00     0.059 A 
HETATM    3  C   UNL     1       7.213  25.313  55.442  1.00  0.00     0.041 A 
HETATM    4  C   UNL     1       7.085  25.814  54.143  1.00  0.00    -0.031 A 
HETATM    5  C   UNL     1       6.832  24.893  52.981  1.00  0.00     0.045 C 
HETATM    6  C   UNL     1       7.996  23.930  52.782  1.00  0.00     0.045 C 
HETATM    7  C   UNL     1       7.997  22.740  53.711  1.00  0.00    -0.031 A 
HETATM    8  C   UNL     1       7.598  22.785  55.057  1.00  0.00     0.039 A 
HETATM    9  N   UNL     1       7.207  23.944  55.757  1.00  0.00    -0.355 N 
HETATM   10  C   UNL     1       8.473  21.523  53.176  1.00  0.00     0.009 A 
HETATM   11  C   UNL     1       8.515  20.357  53.937  1.00  0.00     0.001 A 
HETATM   12  C   UNL     1       8.079  20.385  55.251  1.00  0.00     0.002 A 
HETATM   13  C   UNL     1       7.627  21.583  55.800  1.00  0.00     0.030 A 
HETATM   14  C   UNL     1       7.175  27.198  53.921  1.00  0.00     0.012 A 
HETATM   15  C   UNL     1       7.430  28.078  54.974  1.00  0.00     0.030 A 
HETATM   16  H   UNL     1       6.998  23.762  56.732  1.00  0.00     0.166 HD
ENDROOT
BRANCH   1  17
HETATM   17  N   UNL     1       7.930  28.524  57.280  1.00  0.00    -0.326 N 
HETATM   18  C   UNL     1       9.145  29.158  57.432  1.00  0.00     0.247 C 
HETATM   19  O   UNL     1      10.196  28.926  56.836  1.00  0.00    -0.271 OA
HETATM   20  H   UNL     1       7.184  28.725  57.937  1.00  0.00     0.169 HD
BRANCH  18  21
HETATM   21  C   UNL     1       9.143  30.301  58.448  1.00  0.00     0.334 C 
BRANCH  21  22
HETATM   22  N   UNL     1       8.140  30.022  59.547  1.00  0.00    -0.071 N 
HETATM   23  C   UNL     1       8.383  30.757  60.817  1.00  0.00     0.267 C 
HETATM   24  H   UNL     1       8.233  29.012  59.759  1.00  0.00     0.277 HD
HETATM   25  H   UNL     1       7.180  30.174  59.219  1.00  0.00     0.277 HD
ENDBRANCH  21  22
ENDBRANCH  18  21
ENDBRANCH   1  17
TORSDOF 3
ENDMDL
MODEL 2
REMARK VINA RESULT:      -8.9      4.125      6.331
REMARK  3 active torsions:
REMARK  status: ('A' for Active; 'I' for Inactive)
REMARK    1  A    between atoms: N_2  and  C_5 
REMARK    2  A    between atoms: C_5  and  C_6 
REMARK       I    between atoms: C_6  and  N_7 
REMARK    3  A    between atoms: N_7  and  C_8 
ROOT
HETATM    1  C   UNL     1       5.077  26.539  52.013  1.00  0.00     0.036 A 
HETATM    2  C   UNL     1       5.846  25.378  51.895  1.00  0.00     0.059 A 
HETATM    3  C   UNL     1       6.661  24.911  52.946  1.00  0.00     0.041 A 
HETATM    4  C   UNL     1       6.700  25.641  54.137  1.00  0.00    -0.031 A 
HETATM    5  C   UNL     1       7.542  25.183  55.296  1.00  0.00     0.045 C 
HETATM    6  C   UNL     1       7.061  23.837  55.824  1.00  0.00     0.045 C 
HETATM    7  C   UNL     1       7.528  22.642  55.027  1.00  0.00    -0.031 A 
HETATM    8  C   UNL     1       7.657  22.624  53.629  1.00  0.00     0.039 A 
HETATM    9  N   UNL     1       7.310  23.678  52.761  1.00  0.00    -0.355 N 
HETATM   10  C   UNL     1       7.809  21.468  55.759  1.00  0.00     0.009 A 
HETATM   11  C   UNL     1       8.252  20.305  55.133  1.00  0.00     0.001 A 
HETATM   12  C   UNL     1       8.426  20.296  53.759  1.00  0.00     0.002 A 
HETATM   13  C   UNL     1       8.132  21.441  53.021  1.00  0.00     0.030 A 
HETATM   14  C   UNL     1       5.958  26.828  54.248  1.00  0.00     0.012 A 
HETATM   15  C   UNL     1       5.150  27.270  53.199  1.00  0.00     0.030 A 
HETATM   16  H   UNL     1       7.443  23.443  51.784  1.00  0.00     0.166 HD
ENDROOT
BRANCH   1  17
HETATM   17  N   UNL     1       4.177  26.992  51.022  1.00  0.00    -0.326 N 
HETATM   18  C   UNL     1       4.500  27.690  49.879  1.00  0.00     0.247 C 
HETATM   19  O   UNL     1       5.586  28.187  49.581  1.00  0.00    -0.271 OA
HETATM   20  H   UNL     1       3.205  26.760  51.199  1.00  0.00     0.169 HD
BRANCH  18  21
HETATM   21  C   UNL     1       3.361  27.819  48.867  1.00  0.00     0.334 C 
BRANCH  21  22
HETATM   22  N   UNL     1       2.617  26.505  48.748  1.00  0.00    -0.071 N 
HETATM   23  C   UNL     1       3.195  25.547  47.767  1.00  0.00     0.267 C 
HETATM   24  H   UNL     1       1.669  26.751  48.409  1.00  0.00     0.277 HD
HETATM   25  H   UNL     1       2.504  26.060  49.665  1.00  0.00     0.277 HD
ENDBRANCH  21  22
ENDBRANCH  18  21
ENDBRANCH   1  17
TORSDOF 3
ENDMDL
MODEL 3
REMARK VINA RESULT:      -8.3      3.009      4.684
REMARK  3 active torsions:
REMARK  status: ('A' for Active; 'I' for Inactive)
REMARK    1  A    between atoms: N_2  and  C_5 
REMARK    2  A    between atoms: C_5  and  C_6 
REMARK       I    between atoms: C_6  and  N_7 
REMARK    3  A    between atoms: N_7  and  C_8 
ROOT
HETATM    1  C   UNL     1       5.731  26.910  55.270  1.00  0.00     0.036 A 
HETATM    2  C   UNL     1       6.266  25.903  54.464  1.00  0.00     0.059 A 
HETATM    3  C   UNL     1       7.260  25.019  54.931  1.00  0.00     0.041 A 
HETATM    4  C   UNL     1       7.722  25.167  56.242  1.00  0.00    -0.031 A 
HETATM    5  C   UNL     1       8.771  24.245  56.799  1.00  0.00     0.045 C 
HETATM    6  C   UNL     1       8.265  22.809  56.855  1.00  0.00     0.045 C 
HETATM    7  C   UNL     1       8.325  22.066  55.541  1.00  0.00    -0.031 A 
HETATM    8  C   UNL     1       8.068  22.649  54.290  1.00  0.00     0.039 A 
HETATM    9  N   UNL     1       7.653  23.977  54.074  1.00  0.00    -0.355 N 
HETATM   10  C   UNL     1       8.624  20.687  55.610  1.00  0.00     0.009 A 
HETATM   11  C   UNL     1       8.712  19.901  54.464  1.00  0.00     0.001 A 
HETATM   12  C   UNL     1       8.506  20.481  53.223  1.00  0.00     0.002 A 
HETATM   13  C   UNL     1       8.189  21.835  53.141  1.00  0.00     0.030 A 
HETATM   14  C   UNL     1       7.213  26.201  57.045  1.00  0.00     0.012 A 
HETATM   15  C   UNL     1       6.224  27.060  56.566  1.00  0.00     0.030 A 
HETATM   16  H   UNL     1       7.483  24.183  53.096  1.00  0.00     0.166 HD
ENDROOT
BRANCH   1  17
HETATM   17  N   UNL     1       4.670  27.757  54.873  1.00  0.00    -0.326 N 
HETATM   18  C   UNL     1       4.644  28.573  53.763  1.00  0.00     0.247 C 
HETATM   19  O   UNL     1       5.576  28.845  53.006  1.00  0.00    -0.271 OA
HETATM   20  H   UNL     1       3.862  27.734  55.487  1.00  0.00     0.169 HD
BRANCH  18  21
HETATM   21  C   UNL     1       3.274  29.173  53.445  1.00  0.00     0.334 C 
BRANCH  21  22
HETATM   22  N   UNL     1       2.645  28.447  52.275  1.00  0.00    -0.071 N 
HETATM   23  C   UNL     1       2.608  29.221  51.005  1.00  0.00     0.267 C 
HETATM   24  H   UNL     1       1.662  28.271  52.552  1.00  0.00     0.277 HD
HETATM   25  H   UNL     1       3.085  27.531  52.128  1.00  0.00     0.277 HD
ENDBRANCH  21  22
ENDBRANCH  18  21
ENDBRANCH   1  17
TORSDOF 3
ENDMDL
MODEL 4
REMARK VINA RESULT:      -8.2      2.659      3.600
REMARK  3 active torsions:
REMARK  status: ('A' for Active; 'I' for Inactive)
REMARK    1  A    between atoms: N_2  and  C_5 
REMARK    2  A    between atoms: C_5  and  C_6 
REMARK       I    between atoms: C_6  and  N_7 
REMARK    3  A    between atoms: N_7  and  C_8 
ROOT
HETATM    1  C   UNL     1       6.673  27.953  55.213  1.00  0.00     0.036 A 
HETATM    2  C   UNL     1       7.035  26.863  54.417  1.00  0.00     0.059 A 
HETATM    3  C   UNL     1       7.710  25.743  54.943  1.00  0.00     0.041 A 
HETATM    4  C   UNL     1       8.027  25.734  56.305  1.00  0.00    -0.031 A 
HETATM    5  C   UNL     1       8.735  24.561  56.924  1.00  0.00     0.045 C 
HETATM    6  C   UNL     1       7.882  23.301  56.841  1.00  0.00     0.045 C 
HETATM    7  C   UNL     1       7.918  22.601  55.503  1.00  0.00    -0.031 A 
HETATM    8  C   UNL     1       7.972  23.262  54.265  1.00  0.00     0.039 A 
HETATM    9  N   UNL     1       7.933  24.658  54.079  1.00  0.00    -0.355 N 
HETATM   10  C   UNL     1       7.850  21.191  55.527  1.00  0.00     0.009 A 
HETATM   11  C   UNL     1       7.881  20.438  54.356  1.00  0.00     0.001 A 
HETATM   12  C   UNL     1       7.982  21.083  53.134  1.00  0.00     0.002 A 
HETATM   13  C   UNL     1       8.027  22.475  53.093  1.00  0.00     0.030 A 
HETATM   14  C   UNL     1       7.698  26.843  57.102  1.00  0.00     0.012 A 
HETATM   15  C   UNL     1       7.023  27.939  56.563  1.00  0.00     0.030 A 
HETATM   16  H   UNL     1       7.942  24.925  53.101  1.00  0.00     0.166 HD
ENDROOT
BRANCH   1  17
HETATM   17  N   UNL     1       5.915  29.052  54.746  1.00  0.00    -0.326 N 
HETATM   18  C   UNL     1       4.604  29.337  55.063  1.00  0.00     0.247 C 
HETATM   19  O   UNL     1       3.803  28.625  55.669  1.00  0.00    -0.271 OA
HETATM   20  H   UNL     1       6.417  29.674  54.121  1.00  0.00     0.169 HD
BRANCH  18  21
HETATM   21  C   UNL     1       4.129  30.722  54.623  1.00  0.00     0.334 C 
BRANCH  21  22
HETATM   22  N   UNL     1       5.067  31.788  55.152  1.00  0.00    -0.071 N 
HETATM   23  C   UNL     1       5.017  31.989  56.625  1.00  0.00     0.267 C 
HETATM   24  H   UNL     1       4.756  32.674  54.714  1.00  0.00     0.277 HD
HETATM   25  H   UNL     1       6.030  31.620  54.841  1.00  0.00     0.277 HD
ENDBRANCH  21  22
ENDBRANCH  18  21
ENDBRANCH   1  17
TORSDOF 3
ENDMDL
MODEL 5
REMARK VINA RESULT:      -7.5      3.856      7.677
REMARK  3 active torsions:
REMARK  status: ('A' for Active; 'I' for Inactive)
REMARK    1  A    between atoms: N_2  and  C_5 
REMARK    2  A    between atoms: C_5  and  C_6 
REMARK       I    between atoms: C_6  and  N_7 
REMARK    3  A    between atoms: N_7  and  C_8 
ROOT
HETATM    1  C   UNL     1       5.044  25.552  52.438  1.00  0.00     0.036 A 
HETATM    2  C   UNL     1       4.858  26.555  53.393  1.00  0.00     0.059 A 
HETATM    3  C   UNL     1       5.451  26.489  54.670  1.00  0.00     0.041 A 
HETATM    4  C   UNL     1       6.242  25.381  54.984  1.00  0.00    -0.031 A 
HETATM    5  C   UNL     1       6.909  25.264  56.327  1.00  0.00     0.045 C 
HETATM    6  C   UNL     1       7.923  26.383  56.533  1.00  0.00     0.045 C 
HETATM    7  C   UNL     1       7.328  27.705  56.957  1.00  0.00    -0.031 A 
HETATM    8  C   UNL     1       6.103  28.207  56.489  1.00  0.00     0.039 A 
HETATM    9  N   UNL     1       5.286  27.599  55.516  1.00  0.00    -0.355 N 
HETATM   10  C   UNL     1       8.094  28.483  57.852  1.00  0.00     0.009 A 
HETATM   11  C   UNL     1       7.645  29.717  58.316  1.00  0.00     0.001 A 
HETATM   12  C   UNL     1       6.416  30.196  57.895  1.00  0.00     0.002 A 
HETATM   13  C   UNL     1       5.658  29.450  56.995  1.00  0.00     0.030 A 
HETATM   14  C   UNL     1       6.402  24.353  54.040  1.00  0.00     0.012 A 
HETATM   15  C   UNL     1       5.814  24.440  52.778  1.00  0.00     0.030 A 
HETATM   16  H   UNL     1       4.464  28.150  55.292  1.00  0.00     0.166 HD
ENDROOT
BRANCH   1  17
HETATM   17  N   UNL     1       4.547  25.622  51.115  1.00  0.00    -0.326 N 
HETATM   18  C   UNL     1       4.854  26.580  50.174  1.00  0.00     0.247 C 
HETATM   19  O   UNL     1       5.478  27.628  50.341  1.00  0.00    -0.271 OA
HETATM   20  H   UNL     1       3.905  24.876  50.868  1.00  0.00     0.169 HD
BRANCH  18  21
HETATM   21  C   UNL     1       4.375  26.258  48.758  1.00  0.00     0.334 C 
BRANCH  21  22
HETATM   22  N   UNL     1       2.862  26.289  48.698  1.00  0.00    -0.071 N 
HETATM   23  C   UNL     1       2.268  27.649  48.598  1.00  0.00     0.267 C 
HETATM   24  H   UNL     1       2.540  25.882  49.595  1.00  0.00     0.277 HD
HETATM   25  H   UNL     1       2.509  25.683  47.949  1.00  0.00     0.277 HD
ENDBRANCH  21  22
ENDBRANCH  18  21
ENDBRANCH   1  17
TORSDOF 3
ENDMDL
MODEL 6
REMARK VINA RESULT:      -7.5      2.801      2.946
REMARK  3 active torsions:
REMARK  status: ('A' for Active; 'I' for Inactive)
REMARK    1  A    between atoms: N_2  and  C_5 
REMARK    2  A    between atoms: C_5  and  C_6 
REMARK       I    between atoms: C_6  and  N_7 
REMARK    3  A    between atoms: N_7  and  C_8 
ROOT
HETATM    1  C   UNL     1       5.633  28.652  55.154  1.00  0.00     0.036 A 
HETATM    2  C   UNL     1       6.210  27.462  55.604  1.00  0.00     0.059 A 
HETATM    3  C   UNL     1       6.024  26.238  54.930  1.00  0.00     0.041 A 
HETATM    4  C   UNL     1       5.231  26.223  53.779  1.00  0.00    -0.031 A 
HETATM    5  C   UNL     1       5.007  24.949  53.012  1.00  0.00     0.045 C 
HETATM    6  C   UNL     1       6.317  24.417  52.441  1.00  0.00     0.045 C 
HETATM    7  C   UNL     1       7.174  23.660  53.426  1.00  0.00    -0.031 A 
HETATM    8  C   UNL     1       7.311  24.001  54.782  1.00  0.00     0.039 A 
HETATM    9  N   UNL     1       6.733  25.123  55.407  1.00  0.00    -0.355 N 
HETATM   10  C   UNL     1       7.907  22.567  52.914  1.00  0.00     0.009 A 
HETATM   11  C   UNL     1       8.727  21.791  53.730  1.00  0.00     0.001 A 
HETATM   12  C   UNL     1       8.829  22.093  55.078  1.00  0.00     0.002 A 
HETATM   13  C   UNL     1       8.129  23.182  55.593  1.00  0.00     0.030 A 
HETATM   14  C   UNL     1       4.619  27.410  53.343  1.00  0.00     0.012 A 
HETATM   15  C   UNL     1       4.822  28.613  54.020  1.00  0.00     0.030 A 
HETATM   16  H   UNL     1       6.992  25.206  56.384  1.00  0.00     0.166 HD
ENDROOT
BRANCH   1  17
HETATM   17  N   UNL     1       5.869  29.915  55.745  1.00  0.00    -0.326 N 
HETATM   18  C   UNL     1       5.253  30.421  56.868  1.00  0.00     0.247 C 
HETATM   19  O   UNL     1       4.286  29.957  57.472  1.00  0.00    -0.271 OA
HETATM   20  H   UNL     1       6.569  30.477  55.271  1.00  0.00     0.169 HD
BRANCH  18  21
HETATM   21  C   UNL     1       5.891  31.696  57.424  1.00  0.00     0.334 C 
BRANCH  21  22
HETATM   22  N   UNL     1       5.069  32.905  57.031  1.00  0.00    -0.071 N 
HETATM   23  C   UNL     1       4.710  33.809  58.157  1.00  0.00     0.267 C 
HETATM   24  H   UNL     1       4.183  32.527  56.651  1.00  0.00     0.277 HD
HETATM   25  H   UNL     1       5.522  33.430  56.276  1.00  0.00     0.277 HD
ENDBRANCH  21  22
ENDBRANCH  18  21
ENDBRANCH   1  17
TORSDOF 3
ENDMDL
MODEL 7
REMARK VINA RESULT:      -7.5      6.307      9.488
REMARK  3 active torsions:
REMARK  status: ('A' for Active; 'I' for Inactive)
REMARK    1  A    between atoms: N_2  and  C_5 
REMARK    2  A    between atoms: C_5  and  C_6 
REMARK       I    between atoms: C_6  and  N_7 
REMARK    3  A    between atoms: N_7  and  C_8 
ROOT
HETATM    1  C   UNL     1       6.559  32.792  63.268  1.00  0.00     0.036 A 
HETATM    2  C   UNL     1       6.083  32.737  61.956  1.00  0.00     0.059 A 
HETATM    3  C   UNL     1       6.914  32.385  60.873  1.00  0.00     0.041 A 
HETATM    4  C   UNL     1       8.256  32.090  61.129  1.00  0.00    -0.031 A 
HETATM    5  C   UNL     1       9.186  31.697  60.014  1.00  0.00     0.045 C 
HETATM    6  C   UNL     1       8.744  30.389  59.368  1.00  0.00     0.045 C 
HETATM    7  C   UNL     1       7.621  30.527  58.368  1.00  0.00    -0.031 A 
HETATM    8  C   UNL     1       6.543  31.417  58.505  1.00  0.00     0.039 A 
HETATM    9  N   UNL     1       6.310  32.257  59.611  1.00  0.00    -0.355 N 
HETATM   10  C   UNL     1       7.662  29.663  57.252  1.00  0.00     0.009 A 
HETATM   11  C   UNL     1       6.684  29.702  56.261  1.00  0.00     0.001 A 
HETATM   12  C   UNL     1       5.644  30.611  56.366  1.00  0.00     0.002 A 
HETATM   13  C   UNL     1       5.578  31.455  57.473  1.00  0.00     0.030 A 
HETATM   14  C   UNL     1       8.749  32.180  62.441  1.00  0.00     0.012 A 
HETATM   15  C   UNL     1       7.908  32.522  63.501  1.00  0.00     0.030 A 
HETATM   16  H   UNL     1       5.452  32.791  59.526  1.00  0.00     0.166 HD
ENDROOT
BRANCH   1  17
HETATM   17  N   UNL     1       5.742  33.048  64.393  1.00  0.00    -0.326 N 
HETATM   18  C   UNL     1       5.299  34.281  64.820  1.00  0.00     0.247 C 
HETATM   19  O   UNL     1       5.648  35.390  64.415  1.00  0.00    -0.271 OA
HETATM   20  H   UNL     1       5.471  32.220  64.914  1.00  0.00     0.169 HD
BRANCH  18  21
HETATM   21  C   UNL     1       4.222  34.230  65.906  1.00  0.00     0.334 C 
BRANCH  21  22
HETATM   22  N   UNL     1       4.820  33.750  67.212  1.00  0.00    -0.071 N 
HETATM   23  C   UNL     1       5.887  34.624  67.770  1.00  0.00     0.267 C 
HETATM   24  H   UNL     1       5.257  32.835  66.998  1.00  0.00     0.277 HD
HETATM   25  H   UNL     1       4.090  33.578  67.911  1.00  0.00     0.277 HD
ENDBRANCH  21  22
ENDBRANCH  18  21
ENDBRANCH   1  17
TORSDOF 3
ENDMDL
MODEL 8
REMARK VINA RESULT:      -7.5      3.612      5.111
REMARK  3 active torsions:
REMARK  status: ('A' for Active; 'I' for Inactive)
REMARK    1  A    between atoms: N_2  and  C_5 
REMARK    2  A    between atoms: C_5  and  C_6 
REMARK       I    between atoms: C_6  and  N_7 
REMARK    3  A    between atoms: N_7  and  C_8 
ROOT
HETATM    1  C   UNL     1       6.392  27.605  52.959  1.00  0.00     0.036 A 
HETATM    2  C   UNL     1       6.988  26.383  52.637  1.00  0.00     0.059 A 
HETATM    3  C   UNL     1       7.519  25.527  53.622  1.00  0.00     0.041 A 
HETATM    4  C   UNL     1       7.449  25.924  54.961  1.00  0.00    -0.031 A 
HETATM    5  C   UNL     1       7.988  25.046  56.056  1.00  0.00     0.045 C 
HETATM    6  C   UNL     1       7.224  23.729  56.127  1.00  0.00     0.045 C 
HETATM    7  C   UNL     1       7.646  22.698  55.108  1.00  0.00    -0.031 A 
HETATM    8  C   UNL     1       8.023  22.997  53.789  1.00  0.00     0.039 A 
HETATM    9  N   UNL     1       8.001  24.276  53.200  1.00  0.00    -0.355 N 
HETATM   10  C   UNL     1       7.611  21.349  55.525  1.00  0.00     0.009 A 
HETATM   11  C   UNL     1       7.984  20.312  54.674  1.00  0.00     0.001 A 
HETATM   12  C   UNL     1       8.402  20.604  53.386  1.00  0.00     0.002 A 
HETATM   13  C   UNL     1       8.420  21.928  52.953  1.00  0.00     0.030 A 
HETATM   14  C   UNL     1       6.884  27.168  55.287  1.00  0.00     0.012 A 
HETATM   15  C   UNL     1       6.356  27.997  54.297  1.00  0.00     0.030 A 
HETATM   16  H   UNL     1       8.273  24.265  52.224  1.00  0.00     0.166 HD
ENDROOT
BRANCH   1  17
HETATM   17  N   UNL     1       5.764  28.449  52.014  1.00  0.00    -0.326 N 
HETATM   18  C   UNL     1       4.858  28.066  51.048  1.00  0.00     0.247 C 
HETATM   19  O   UNL     1       4.545  26.922  50.719  1.00  0.00    -0.271 OA
HETATM   20  H   UNL     1       6.028  29.426  52.082  1.00  0.00     0.169 HD
BRANCH  18  21
HETATM   21  C   UNL     1       4.152  29.225  50.343  1.00  0.00     0.334 C 
BRANCH  21  22
HETATM   22  N   UNL     1       2.906  29.620  51.106  1.00  0.00    -0.071 N 
HETATM   23  C   UNL     1       3.111  30.674  52.136  1.00  0.00     0.267 C 
HETATM   24  H   UNL     1       2.601  28.764  51.605  1.00  0.00     0.277 HD
HETATM   25  H   UNL     1       2.148  29.882  50.467  1.00  0.00     0.277 HD
ENDBRANCH  21  22
ENDBRANCH  18  21
ENDBRANCH   1  17
TORSDOF 3
ENDMDL
MODEL 9
REMARK VINA RESULT:      -7.5      4.268     10.884
REMARK  3 active torsions:
REMARK  status: ('A' for Active; 'I' for Inactive)
REMARK    1  A    between atoms: N_2  and  C_5 
REMARK    2  A    between atoms: C_5  and  C_6 
REMARK       I    between atoms: C_6  and  N_7 
REMARK    3  A    between atoms: N_7  and  C_8 
ROOT
HETATM    1  C   UNL     1       8.494  31.096  59.700  1.00  0.00     0.036 A 
HETATM    2  C   UNL     1       7.189  31.297  60.155  1.00  0.00     0.059 A 
HETATM    3  C   UNL     1       6.914  31.790  61.447  1.00  0.00     0.041 A 
HETATM    4  C   UNL     1       7.988  32.078  62.294  1.00  0.00    -0.031 A 
HETATM    5  C   UNL     1       7.756  32.617  63.678  1.00  0.00     0.045 C 
HETATM    6  C   UNL     1       7.082  33.984  63.627  1.00  0.00     0.045 C 
HETATM    7  C   UNL     1       5.589  33.944  63.404  1.00  0.00    -0.031 A 
HETATM    8  C   UNL     1       4.938  33.024  62.567  1.00  0.00     0.039 A 
HETATM    9  N   UNL     1       5.571  32.055  61.765  1.00  0.00    -0.355 N 
HETATM   10  C   UNL     1       4.828  34.935  64.062  1.00  0.00     0.009 A 
HETATM   11  C   UNL     1       3.442  34.995  63.936  1.00  0.00     0.001 A 
HETATM   12  C   UNL     1       2.789  34.061  63.149  1.00  0.00     0.002 A 
HETATM   13  C   UNL     1       3.529  33.091  62.476  1.00  0.00     0.030 A 
HETATM   14  C   UNL     1       9.301  31.842  61.855  1.00  0.00     0.012 A 
HETATM   15  C   UNL     1       9.552  31.362  60.569  1.00  0.00     0.030 A 
HETATM   16  H   UNL     1       4.918  31.519  61.205  1.00  0.00     0.166 HD
ENDROOT
BRANCH   1  17
HETATM   17  N   UNL     1       8.816  30.693  58.383  1.00  0.00    -0.326 N 
HETATM   18  C   UNL     1       8.543  29.470  57.810  1.00  0.00     0.247 C 
HETATM   19  O   UNL     1       8.120  28.456  58.365  1.00  0.00    -0.271 OA
HETATM   20  H   UNL     1       9.294  31.399  57.832  1.00  0.00     0.169 HD
BRANCH  18  21
HETATM   21  C   UNL     1       8.772  29.409  56.300  1.00  0.00     0.334 C 
BRANCH  21  22
HETATM   22  N   UNL     1       8.027  28.232  55.705  1.00  0.00    -0.071 N 
HETATM   23  C   UNL     1       7.929  28.239  54.221  1.00  0.00     0.267 C 
HETATM   24  H   UNL     1       7.061  28.300  56.074  1.00  0.00     0.277 HD
HETATM   25  H   UNL     1       8.414  27.343  56.039  1.00  0.00     0.277 HD
ENDBRANCH  21  22
ENDBRANCH  18  21
ENDBRANCH   1  17
TORSDOF 3
ENDMDL
MODEL 10
REMARK VINA RESULT:      -7.4      3.785      6.549
REMARK  3 active torsions:
REMARK  status: ('A' for Active; 'I' for Inactive)
REMARK    1  A    between atoms: N_2  and  C_5 
REMARK    2  A    between atoms: C_5  and  C_6 
REMARK       I    between atoms: C_6  and  N_7 
REMARK    3  A    between atoms: N_7  and  C_8 
ROOT
HETATM    1  C   UNL     1       5.904  25.157  54.599  1.00  0.00     0.036 A 
HETATM    2  C   UNL     1       5.459  25.065  53.278  1.00  0.00     0.059 A 
HETATM    3  C   UNL     1       5.004  26.190  52.561  1.00  0.00     0.041 A 
HETATM    4  C   UNL     1       4.996  27.432  53.203  1.00  0.00    -0.031 A 
HETATM    5  C   UNL     1       4.533  28.669  52.484  1.00  0.00     0.045 C 
HETATM    6  C   UNL     1       5.439  28.986  51.300  1.00  0.00     0.045 C 
HETATM    7  C   UNL     1       5.162  28.174  50.057  1.00  0.00    -0.031 A 
HETATM    8  C   UNL     1       4.787  26.821  50.063  1.00  0.00     0.039 A 
HETATM    9  N   UNL     1       4.678  26.005  51.207  1.00  0.00    -0.355 N 
HETATM   10  C   UNL     1       5.340  28.833  48.821  1.00  0.00     0.009 A 
HETATM   11  C   UNL     1       5.109  28.187  47.609  1.00  0.00     0.001 A 
HETATM   12  C   UNL     1       4.692  26.866  47.610  1.00  0.00     0.002 A 
HETATM   13  C   UNL     1       4.534  26.196  48.821  1.00  0.00     0.030 A 
HETATM   14  C   UNL     1       5.407  27.524  54.542  1.00  0.00     0.012 A 
HETATM   15  C   UNL     1       5.862  26.399  55.232  1.00  0.00     0.030 A 
HETATM   16  H   UNL     1       4.433  25.047  50.985  1.00  0.00     0.166 HD
ENDROOT
BRANCH   1  17
HETATM   17  N   UNL     1       6.455  24.074  55.322  1.00  0.00    -0.326 N 
HETATM   18  C   UNL     1       7.683  23.488  55.110  1.00  0.00     0.247 C 
HETATM   19  O   UNL     1       8.457  23.677  54.171  1.00  0.00    -0.271 OA
HETATM   20  H   UNL     1       5.862  23.720  56.066  1.00  0.00     0.169 HD
BRANCH  18  21
HETATM   21  C   UNL     1       8.122  22.514  56.205  1.00  0.00     0.334 C 
BRANCH  21  22
HETATM   22  N   UNL     1       8.230  23.236  57.532  1.00  0.00    -0.071 N 
HETATM   23  C   UNL     1       9.017  24.498  57.496  1.00  0.00     0.267 C 
HETATM   24  H   UNL     1       8.731  22.584  58.163  1.00  0.00     0.277 HD
HETATM   25  H   UNL     1       7.303  23.399  57.941  1.00  0.00     0.277 HD
ENDBRANCH  21  22
ENDBRANCH  18  21
ENDBRANCH   1  17
TORSDOF 3
ENDMDL
