MODEL 1
REMARK VINA RESULT:      -9.0      0.000      0.000
REMARK  5 active torsions:
REMARK  status: ('A' for Active; 'I' for Inactive)
REMARK    1  A    between atoms: N_2  and  C_4 
REMARK    2  A    between atoms: C_4  and  C_5 
REMARK    3  A    between atoms: C_5  and  N_6 
REMARK    4  A    between atoms: C_11  and  C_12 
REMARK    5  A    between atoms: C_15  and  O_16 
ROOT
HETATM    1  N   UNL     1       6.454  27.300  56.579  1.00  0.00    -0.332 N 
HETATM    2  C   UNL     1       7.389  26.421  57.097  1.00  0.00     0.279 C 
HETATM    3  O   UNL     1       7.984  26.563  58.147  1.00  0.00    -0.265 OA
HETATM    4  C   UNL     1       7.460  25.279  56.168  1.00  0.00     0.156 A 
HETATM    5  C   UNL     1       6.493  25.466  55.268  1.00  0.00     0.060 A 
HETATM    6  C   UNL     1       5.658  26.663  55.529  1.00  0.00     0.161 C 
HETATM    7  O   UNL     1       8.347  24.243  56.251  1.00  0.00    -0.303 OA
HETATM    8  C   UNL     1       8.283  23.317  55.231  1.00  0.00     0.090 A 
HETATM    9  C   UNL     1       7.336  23.388  54.197  1.00  0.00     0.051 A 
HETATM   10  C   UNL     1       6.322  24.469  54.219  1.00  0.00     0.196 A 
HETATM   11  O   UNL     1       5.386  24.514  53.437  1.00  0.00    -0.287 OA
HETATM   12  C   UNL     1       9.217  22.281  55.257  1.00  0.00     0.041 A 
HETATM   13  C   UNL     1       9.216  21.330  54.235  1.00  0.00     0.045 A 
HETATM   14  C   UNL     1       8.286  21.426  53.200  1.00  0.00     0.117 A 
HETATM   15  F   UNL     1       8.304  20.516  52.219  1.00  0.00    -0.206 F 
HETATM   16  C   UNL     1       7.340  22.444  53.170  1.00  0.00     0.060 A 
ENDROOT
BRANCH   6  17
HETATM   17  C   UNL     1       5.311  27.576  54.383  1.00  0.00    -0.030 A 
HETATM   18  C   UNL     1       6.302  27.869  53.425  1.00  0.00     0.012 A 
HETATM   19  C   UNL     1       6.015  28.658  52.310  1.00  0.00     0.037 A 
HETATM   20  C   UNL     1       4.733  29.162  52.150  1.00  0.00     0.065 A 
HETATM   21  C   UNL     1       3.741  28.896  53.088  1.00  0.00     0.037 A 
HETATM   22  C   UNL     1       4.027  28.109  54.205  1.00  0.00     0.012 A 
BRANCH  20  23
HETATM   23  O   UNL     1       4.400  29.927  51.073  1.00  0.00    -0.361 OA
HETATM   24  H   UNL     1       5.205  30.134  50.568  1.00  0.00     0.217 HD
ENDBRANCH  20  23
ENDBRANCH   6  17
BRANCH   1  25
HETATM   25  C   UNL     1       6.284  28.671  57.056  1.00  0.00     0.155 C 
BRANCH  25  26
HETATM   26  C   UNL     1       7.422  29.619  56.671  1.00  0.00     0.254 C 
BRANCH  26  27
HETATM   27  N   UNL     1       8.548  29.607  57.688  1.00  0.00    -0.077 N 
HETATM   28  C   UNL     1       8.523  30.832  58.555  1.00  0.00     0.269 C 
HETATM   29  H   UNL     1       8.407  28.782  58.294  1.00  0.00     0.279 HD
HETATM   30  C   UNL     1       9.910  29.398  57.078  1.00  0.00     0.269 C 
ENDBRANCH  26  27
ENDBRANCH  25  26
ENDBRANCH   1  25
TORSDOF 5
ENDMDL
MODEL 2
REMARK VINA RESULT:      -8.8      2.355      4.776
REMARK  5 active torsions:
REMARK  status: ('A' for Active; 'I' for Inactive)
REMARK    1  A    between atoms: N_2  and  C_4 
REMARK    2  A    between atoms: C_4  and  C_5 
REMARK    3  A    between atoms: C_5  and  N_6 
REMARK    4  A    between atoms: C_11  and  C_12 
REMARK    5  A    between atoms: C_15  and  O_16 
ROOT
HETATM    1  N   UNL     1       6.466  26.949  52.815  1.00  0.00    -0.332 N 
HETATM    2  C   UNL     1       6.588  25.771  52.099  1.00  0.00     0.279 C 
HETATM    3  O   UNL     1       6.348  25.638  50.915  1.00  0.00    -0.265 OA
HETATM    4  C   UNL     1       7.119  24.760  53.030  1.00  0.00     0.156 A 
HETATM    5  C   UNL     1       7.412  25.406  54.160  1.00  0.00     0.060 A 
HETATM    6  C   UNL     1       7.188  26.869  54.086  1.00  0.00     0.161 C 
HETATM    7  O   UNL     1       7.278  23.432  52.752  1.00  0.00    -0.303 OA
HETATM    8  C   UNL     1       7.725  22.650  53.797  1.00  0.00     0.090 A 
HETATM    9  C   UNL     1       8.054  23.179  55.055  1.00  0.00     0.051 A 
HETATM   10  C   UNL     1       7.973  24.644  55.268  1.00  0.00     0.196 A 
HETATM   11  O   UNL     1       8.374  25.188  56.285  1.00  0.00    -0.287 OA
HETATM   12  C   UNL     1       7.839  21.280  53.559  1.00  0.00     0.041 A 
HETATM   13  C   UNL     1       8.261  20.438  54.590  1.00  0.00     0.045 A 
HETATM   14  C   UNL     1       8.561  20.972  55.843  1.00  0.00     0.117 A 
HETATM   15  F   UNL     1       8.951  20.153  56.827  1.00  0.00    -0.206 F 
HETATM   16  C   UNL     1       8.466  22.337  56.089  1.00  0.00     0.060 A 
ENDROOT
BRANCH   6  17
HETATM   17  C   UNL     1       6.496  27.563  55.229  1.00  0.00    -0.030 A 
HETATM   18  C   UNL     1       7.032  28.773  55.714  1.00  0.00     0.012 A 
HETATM   19  C   UNL     1       6.394  29.488  56.728  1.00  0.00     0.037 A 
HETATM   20  C   UNL     1       5.216  28.992  57.267  1.00  0.00     0.065 A 
HETATM   21  C   UNL     1       4.673  27.795  56.813  1.00  0.00     0.037 A 
HETATM   22  C   UNL     1       5.312  27.077  55.800  1.00  0.00     0.012 A 
BRANCH  20  23
HETATM   23  O   UNL     1       4.550  29.660  58.250  1.00  0.00    -0.361 OA
HETATM   24  H   UNL     1       3.625  29.363  58.268  1.00  0.00     0.217 HD
ENDBRANCH  20  23
ENDBRANCH   6  17
BRANCH   1  25
HETATM   25  C   UNL     1       5.729  28.115  52.331  1.00  0.00     0.155 C 
BRANCH  25  26
HETATM   26  C   UNL     1       4.206  27.963  52.378  1.00  0.00     0.254 C 
BRANCH  26  27
HETATM   27  N   UNL     1       3.563  28.216  51.027  1.00  0.00    -0.077 N 
HETATM   28  C   UNL     1       4.593  28.446  49.959  1.00  0.00     0.269 C 
HETATM   29  H   UNL     1       3.027  27.368  50.778  1.00  0.00     0.279 HD
HETATM   30  C   UNL     1       2.538  29.319  51.044  1.00  0.00     0.269 C 
ENDBRANCH  26  27
ENDBRANCH  25  26
ENDBRANCH   1  25
TORSDOF 5
ENDMDL
MODEL 3
REMARK VINA RESULT:      -8.1      2.559      3.638
REMARK  5 active torsions:
REMARK  status: ('A' for Active; 'I' for Inactive)
REMARK    1  A    between atoms: N_2  and  C_4 
REMARK    2  A    between atoms: C_4  and  C_5 
REMARK    3  A    between atoms: C_5  and  N_6 
REMARK    4  A    between atoms: C_11  and  C_12 
REMARK    5  A    between atoms: C_15  and  O_16 
ROOT
HETATM    1  N   UNL     1       6.625  30.078  58.036  1.00  0.00    -0.332 N 
HETATM    2  C   UNL     1       7.745  29.325  58.345  1.00  0.00     0.279 C 
HETATM    3  O   UNL     1       8.694  29.710  58.999  1.00  0.00    -0.265 OA
HETATM    4  C   UNL     1       7.520  27.979  57.789  1.00  0.00     0.156 A 
HETATM    5  C   UNL     1       6.267  27.966  57.332  1.00  0.00     0.060 A 
HETATM    6  C   UNL     1       5.524  29.223  57.588  1.00  0.00     0.161 C 
HETATM    7  O   UNL     1       8.434  26.964  57.774  1.00  0.00    -0.303 OA
HETATM    8  C   UNL     1       8.036  25.808  57.136  1.00  0.00     0.090 A 
HETATM    9  C   UNL     1       6.755  25.648  56.582  1.00  0.00     0.051 A 
HETATM   10  C   UNL     1       5.762  26.738  56.728  1.00  0.00     0.196 A 
HETATM   11  O   UNL     1       4.593  26.618  56.399  1.00  0.00    -0.287 OA
HETATM   12  C   UNL     1       8.971  24.776  57.052  1.00  0.00     0.041 A 
HETATM   13  C   UNL     1       8.630  23.593  56.393  1.00  0.00     0.045 A 
HETATM   14  C   UNL     1       7.364  23.456  55.826  1.00  0.00     0.117 A 
HETATM   15  F   UNL     1       7.054  22.322  55.185  1.00  0.00    -0.206 F 
HETATM   16  C   UNL     1       6.417  24.469  55.916  1.00  0.00     0.060 A 
ENDROOT
BRANCH   6  17
HETATM   17  C   UNL     1       4.695  29.821  56.483  1.00  0.00    -0.030 A 
HETATM   18  C   UNL     1       3.443  30.384  56.803  1.00  0.00     0.012 A 
HETATM   19  C   UNL     1       2.663  31.008  55.827  1.00  0.00     0.037 A 
HETATM   20  C   UNL     1       3.132  31.068  54.523  1.00  0.00     0.065 A 
HETATM   21  C   UNL     1       4.360  30.511  54.181  1.00  0.00     0.037 A 
HETATM   22  C   UNL     1       5.140  29.884  55.155  1.00  0.00     0.012 A 
BRANCH  20  23
HETATM   23  O   UNL     1       2.414  31.677  53.539  1.00  0.00    -0.361 OA
HETATM   24  H   UNL     1       1.483  31.406  53.609  1.00  0.00     0.217 HD
ENDBRANCH  20  23
ENDBRANCH   6  17
BRANCH   1  25
HETATM   25  C   UNL     1       6.566  31.532  58.175  1.00  0.00     0.155 C 
BRANCH  25  26
HETATM   26  C   UNL     1       5.643  32.022  59.294  1.00  0.00     0.254 C 
BRANCH  26  27
HETATM   27  N   UNL     1       6.293  31.914  60.661  1.00  0.00    -0.077 N 
HETATM   28  C   UNL     1       5.418  32.491  61.736  1.00  0.00     0.269 C 
HETATM   29  H   UNL     1       6.426  30.909  60.861  1.00  0.00     0.279 HD
HETATM   30  C   UNL     1       7.681  32.497  60.716  1.00  0.00     0.269 C 
ENDBRANCH  26  27
ENDBRANCH  25  26
ENDBRANCH   1  25
TORSDOF 5
ENDMDL
MODEL 4
REMARK VINA RESULT:      -8.0      4.610      8.023
REMARK  5 active torsions:
REMARK  status: ('A' for Active; 'I' for Inactive)
REMARK    1  A    between atoms: N_2  and  C_4 
REMARK    2  A    between atoms: C_4  and  C_5 
REMARK    3  A    between atoms: C_5  and  N_6 
REMARK    4  A    between atoms: C_11  and  C_12 
REMARK    5  A    between atoms: C_15  and  O_16 
ROOT
HETATM    1  N   UNL     1       7.110  29.232  56.517  1.00  0.00    -0.332 N 
HETATM    2  C   UNL     1       7.966  28.822  57.524  1.00  0.00     0.279 C 
HETATM    3  O   UNL     1       8.683  27.842  57.483  1.00  0.00    -0.265 OA
HETATM    4  C   UNL     1       7.879  29.830  58.595  1.00  0.00     0.156 A 
HETATM    5  C   UNL     1       7.120  30.819  58.119  1.00  0.00     0.060 A 
HETATM    6  C   UNL     1       6.698  30.623  56.712  1.00  0.00     0.161 C 
HETATM    7  O   UNL     1       8.479  29.742  59.819  1.00  0.00    -0.303 OA
HETATM    8  C   UNL     1       8.203  30.768  60.698  1.00  0.00     0.090 A 
HETATM    9  C   UNL     1       7.403  31.869  60.354  1.00  0.00     0.051 A 
HETATM   10  C   UNL     1       6.870  31.973  58.974  1.00  0.00     0.196 A 
HETATM   11  O   UNL     1       6.287  32.963  58.562  1.00  0.00    -0.287 OA
HETATM   12  C   UNL     1       8.755  30.673  61.976  1.00  0.00     0.041 A 
HETATM   13  C   UNL     1       8.485  31.671  62.915  1.00  0.00     0.045 A 
HETATM   14  C   UNL     1       7.669  32.747  62.568  1.00  0.00     0.117 A 
HETATM   15  F   UNL     1       7.407  33.689  63.482  1.00  0.00    -0.206 F 
HETATM   16  C   UNL     1       7.126  32.861  61.294  1.00  0.00     0.060 A 
ENDROOT
BRANCH   6  17
HETATM   17  C   UNL     1       5.267  30.898  56.332  1.00  0.00    -0.030 A 
HETATM   18  C   UNL     1       4.238  30.336  57.114  1.00  0.00     0.012 A 
HETATM   19  C   UNL     1       2.896  30.611  56.844  1.00  0.00     0.037 A 
HETATM   20  C   UNL     1       2.578  31.449  55.786  1.00  0.00     0.065 A 
HETATM   21  C   UNL     1       3.575  32.007  54.993  1.00  0.00     0.037 A 
HETATM   22  C   UNL     1       4.918  31.730  55.260  1.00  0.00     0.012 A 
BRANCH  20  23
HETATM   23  O   UNL     1       1.284  31.757  55.490  1.00  0.00    -0.361 OA
HETATM   24  H   UNL     1       0.925  32.330  56.188  1.00  0.00     0.217 HD
ENDBRANCH  20  23
ENDBRANCH   6  17
BRANCH   1  25
HETATM   25  C   UNL     1       6.707  28.378  55.402  1.00  0.00     0.155 C 
BRANCH  25  26
HETATM   26  C   UNL     1       5.700  27.286  55.775  1.00  0.00     0.254 C 
BRANCH  26  27
HETATM   27  N   UNL     1       4.726  26.996  54.649  1.00  0.00    -0.077 N 
HETATM   28  C   UNL     1       5.311  26.050  53.641  1.00  0.00     0.269 C 
HETATM   29  H   UNL     1       3.896  26.545  55.068  1.00  0.00     0.279 HD
HETATM   30  C   UNL     1       4.185  28.236  53.985  1.00  0.00     0.269 C 
ENDBRANCH  26  27
ENDBRANCH  25  26
ENDBRANCH   1  25
TORSDOF 5
ENDMDL
MODEL 5
REMARK VINA RESULT:      -7.9      3.172      6.494
REMARK  5 active torsions:
REMARK  status: ('A' for Active; 'I' for Inactive)
REMARK    1  A    between atoms: N_2  and  C_4 
REMARK    2  A    between atoms: C_4  and  C_5 
REMARK    3  A    between atoms: C_5  and  N_6 
REMARK    4  A    between atoms: C_11  and  C_12 
REMARK    5  A    between atoms: C_15  and  O_16 
ROOT
HETATM    1  N   UNL     1       7.097  24.973  54.457  1.00  0.00    -0.332 N 
HETATM    2  C   UNL     1       6.813  24.498  53.188  1.00  0.00     0.279 C 
HETATM    3  O   UNL     1       7.127  23.405  52.760  1.00  0.00    -0.265 OA
HETATM    4  C   UNL     1       6.017  25.536  52.512  1.00  0.00     0.156 A 
HETATM    5  C   UNL     1       5.756  26.468  53.431  1.00  0.00     0.060 A 
HETATM    6  C   UNL     1       6.263  26.131  54.782  1.00  0.00     0.161 C 
HETATM    7  O   UNL     1       5.630  25.512  51.202  1.00  0.00    -0.303 OA
HETATM    8  C   UNL     1       4.950  26.626  50.757  1.00  0.00     0.090 A 
HETATM    9  C   UNL     1       4.620  27.702  51.598  1.00  0.00     0.051 A 
HETATM   10  C   UNL     1       4.963  27.626  53.038  1.00  0.00     0.196 A 
HETATM   11  O   UNL     1       4.586  28.453  53.853  1.00  0.00    -0.287 OA
HETATM   12  C   UNL     1       4.595  26.655  49.408  1.00  0.00     0.041 A 
HETATM   13  C   UNL     1       3.929  27.771  48.898  1.00  0.00     0.045 A 
HETATM   14  C   UNL     1       3.629  28.844  49.737  1.00  0.00     0.117 A 
HETATM   15  F   UNL     1       3.003  29.913  49.233  1.00  0.00    -0.206 F 
HETATM   16  C   UNL     1       3.963  28.821  51.086  1.00  0.00     0.060 A 
ENDROOT
BRANCH   6  17
HETATM   17  C   UNL     1       6.973  27.192  55.582  1.00  0.00    -0.030 A 
HETATM   18  C   UNL     1       6.752  27.254  56.973  1.00  0.00     0.012 A 
HETATM   19  C   UNL     1       7.433  28.176  57.770  1.00  0.00     0.037 A 
HETATM   20  C   UNL     1       8.337  29.044  57.177  1.00  0.00     0.065 A 
HETATM   21  C   UNL     1       8.563  29.010  55.805  1.00  0.00     0.037 A 
HETATM   22  C   UNL     1       7.881  28.090  55.006  1.00  0.00     0.012 A 
BRANCH  20  23
HETATM   23  O   UNL     1       9.034  29.954  57.914  1.00  0.00    -0.361 OA
HETATM   24  H   UNL     1       8.416  30.608  58.281  1.00  0.00     0.217 HD
ENDBRANCH  20  23
ENDBRANCH   6  17
BRANCH   1  25
HETATM   25  C   UNL     1       8.085  24.364  55.345  1.00  0.00     0.155 C 
BRANCH  25  26
HETATM   26  C   UNL     1       7.594  23.105  56.066  1.00  0.00     0.254 C 
BRANCH  26  27
HETATM   27  N   UNL     1       8.019  21.835  55.354  1.00  0.00    -0.077 N 
HETATM   28  C   UNL     1       7.807  20.622  56.213  1.00  0.00     0.269 C 
HETATM   29  H   UNL     1       7.426  21.740  54.513  1.00  0.00     0.279 HD
HETATM   30  C   UNL     1       9.427  21.885  54.819  1.00  0.00     0.269 C 
ENDBRANCH  26  27
ENDBRANCH  25  26
ENDBRANCH   1  25
TORSDOF 5
ENDMDL
MODEL 6
REMARK VINA RESULT:      -7.8      3.453      7.145
REMARK  5 active torsions:
REMARK  status: ('A' for Active; 'I' for Inactive)
REMARK    1  A    between atoms: N_2  and  C_4 
REMARK    2  A    between atoms: C_4  and  C_5 
REMARK    3  A    between atoms: C_5  and  N_6 
REMARK    4  A    between atoms: C_11  and  C_12 
REMARK    5  A    between atoms: C_15  and  O_16 
ROOT
HETATM    1  N   UNL     1       4.207  28.355  54.476  1.00  0.00    -0.332 N 
HETATM    2  C   UNL     1       4.083  29.618  55.027  1.00  0.00     0.279 C 
HETATM    3  O   UNL     1       3.259  30.450  54.702  1.00  0.00    -0.265 OA
HETATM    4  C   UNL     1       5.086  29.715  56.102  1.00  0.00     0.156 A 
HETATM    5  C   UNL     1       5.624  28.500  56.224  1.00  0.00     0.060 A 
HETATM    6  C   UNL     1       5.013  27.484  55.333  1.00  0.00     0.161 C 
HETATM    7  O   UNL     1       5.373  30.840  56.821  1.00  0.00    -0.303 OA
HETATM    8  C   UNL     1       6.401  30.723  57.732  1.00  0.00     0.090 A 
HETATM    9  C   UNL     1       7.082  29.517  57.960  1.00  0.00     0.051 A 
HETATM   10  C   UNL     1       6.653  28.297  57.235  1.00  0.00     0.196 A 
HETATM   11  O   UNL     1       7.102  27.188  57.482  1.00  0.00    -0.287 OA
HETATM   12  C   UNL     1       6.756  31.874  58.437  1.00  0.00     0.041 A 
HETATM   13  C   UNL     1       7.809  31.819  59.353  1.00  0.00     0.045 A 
HETATM   14  C   UNL     1       8.494  30.621  59.552  1.00  0.00     0.117 A 
HETATM   15  F   UNL     1       9.509  30.585  60.423  1.00  0.00    -0.206 F 
HETATM   16  C   UNL     1       8.140  29.464  58.868  1.00  0.00     0.060 A 
ENDROOT
BRANCH   6  17
HETATM   17  C   UNL     1       5.911  26.540  54.577  1.00  0.00    -0.030 A 
HETATM   18  C   UNL     1       5.605  25.165  54.581  1.00  0.00     0.012 A 
HETATM   19  C   UNL     1       6.366  24.255  53.844  1.00  0.00     0.037 A 
HETATM   20  C   UNL     1       7.442  24.719  53.102  1.00  0.00     0.065 A 
HETATM   21  C   UNL     1       7.770  26.071  53.092  1.00  0.00     0.037 A 
HETATM   22  C   UNL     1       7.011  26.981  53.830  1.00  0.00     0.012 A 
BRANCH  20  23
HETATM   23  O   UNL     1       8.208  23.873  52.359  1.00  0.00    -0.361 OA
HETATM   24  H   UNL     1       9.088  24.266  52.233  1.00  0.00     0.217 HD
ENDBRANCH  20  23
ENDBRANCH   6  17
BRANCH   1  25
HETATM   25  C   UNL     1       3.581  27.958  53.216  1.00  0.00     0.155 C 
BRANCH  25  26
HETATM   26  C   UNL     1       4.271  28.512  51.966  1.00  0.00     0.254 C 
BRANCH  26  27
HETATM   27  N   UNL     1       4.030  27.644  50.746  1.00  0.00    -0.077 N 
HETATM   28  C   UNL     1       5.022  26.520  50.662  1.00  0.00     0.269 C 
HETATM   29  H   UNL     1       3.087  27.233  50.842  1.00  0.00     0.279 HD
HETATM   30  C   UNL     1       3.974  28.419  49.456  1.00  0.00     0.269 C 
ENDBRANCH  26  27
ENDBRANCH  25  26
ENDBRANCH   1  25
TORSDOF 5
ENDMDL
MODEL 7
REMARK VINA RESULT:      -7.4      6.513     10.493
REMARK  5 active torsions:
REMARK  status: ('A' for Active; 'I' for Inactive)
REMARK    1  A    between atoms: N_2  and  C_4 
REMARK    2  A    between atoms: C_4  and  C_5 
REMARK    3  A    between atoms: C_5  and  N_6 
REMARK    4  A    between atoms: C_11  and  C_12 
REMARK    5  A    between atoms: C_15  and  O_16 
ROOT
HETATM    1  N   UNL     1       7.821  31.197  60.216  1.00  0.00    -0.332 N 
HETATM    2  C   UNL     1       8.334  31.158  61.501  1.00  0.00     0.279 C 
HETATM    3  O   UNL     1       9.253  30.454  61.871  1.00  0.00    -0.265 OA
HETATM    4  C   UNL     1       7.599  32.167  62.283  1.00  0.00     0.156 A 
HETATM    5  C   UNL     1       6.827  32.826  61.417  1.00  0.00     0.060 A 
HETATM    6  C   UNL     1       7.010  32.397  60.010  1.00  0.00     0.161 C 
HETATM    7  O   UNL     1       7.719  32.370  63.629  1.00  0.00    -0.303 OA
HETATM    8  C   UNL     1       6.880  33.321  64.169  1.00  0.00     0.090 A 
HETATM    9  C   UNL     1       5.994  34.083  63.391  1.00  0.00     0.051 A 
HETATM   10  C   UNL     1       5.986  33.905  61.920  1.00  0.00     0.196 A 
HETATM   11  O   UNL     1       5.348  34.625  61.169  1.00  0.00    -0.287 OA
HETATM   12  C   UNL     1       6.939  33.506  65.551  1.00  0.00     0.041 A 
HETATM   13  C   UNL     1       6.092  34.438  66.155  1.00  0.00     0.045 A 
HETATM   14  C   UNL     1       5.198  35.171  65.374  1.00  0.00     0.117 A 
HETATM   15  F   UNL     1       4.382  36.051  65.967  1.00  0.00    -0.206 F 
HETATM   16  C   UNL     1       5.141  35.008  63.995  1.00  0.00     0.060 A 
ENDROOT
BRANCH   6  17
HETATM   17  C   UNL     1       5.794  32.175  59.149  1.00  0.00    -0.030 A 
HETATM   18  C   UNL     1       5.835  32.577  57.799  1.00  0.00     0.012 A 
HETATM   19  C   UNL     1       4.760  32.337  56.943  1.00  0.00     0.037 A 
HETATM   20  C   UNL     1       3.634  31.695  57.435  1.00  0.00     0.065 A 
HETATM   21  C   UNL     1       3.564  31.298  58.767  1.00  0.00     0.037 A 
HETATM   22  C   UNL     1       4.639  31.541  59.626  1.00  0.00     0.012 A 
BRANCH  20  23
HETATM   23  O   UNL     1       2.563  31.427  56.636  1.00  0.00    -0.361 OA
HETATM   24  H   UNL     1       2.033  32.235  56.533  1.00  0.00     0.217 HD
ENDBRANCH  20  23
ENDBRANCH   6  17
BRANCH   1  25
HETATM   25  C   UNL     1       8.092  30.174  59.207  1.00  0.00     0.155 C 
BRANCH  25  26
HETATM   26  C   UNL     1       9.182  30.554  58.201  1.00  0.00     0.254 C 
BRANCH  26  27
HETATM   27  N   UNL     1       9.107  29.723  56.934  1.00  0.00    -0.077 N 
HETATM   28  C   UNL     1       8.696  28.308  57.224  1.00  0.00     0.269 C 
HETATM   29  H   UNL     1       8.386  30.149  56.329  1.00  0.00     0.279 HD
HETATM   30  C   UNL     1      10.367  29.767  56.108  1.00  0.00     0.269 C 
ENDBRANCH  26  27
ENDBRANCH  25  26
ENDBRANCH   1  25
TORSDOF 5
ENDMDL
MODEL 8
REMARK VINA RESULT:      -7.4      2.322      3.034
REMARK  5 active torsions:
REMARK  status: ('A' for Active; 'I' for Inactive)
REMARK    1  A    between atoms: N_2  and  C_4 
REMARK    2  A    between atoms: C_4  and  C_5 
REMARK    3  A    between atoms: C_5  and  N_6 
REMARK    4  A    between atoms: C_11  and  C_12 
REMARK    5  A    between atoms: C_15  and  O_16 
ROOT
HETATM    1  N   UNL     1       4.344  28.374  54.755  1.00  0.00    -0.332 N 
HETATM    2  C   UNL     1       4.988  27.657  55.748  1.00  0.00     0.279 C 
HETATM    3  O   UNL     1       5.013  27.952  56.927  1.00  0.00    -0.265 OA
HETATM    4  C   UNL     1       5.563  26.462  55.107  1.00  0.00     0.156 A 
HETATM    5  C   UNL     1       5.117  26.459  53.849  1.00  0.00     0.060 A 
HETATM    6  C   UNL     1       4.176  27.564  53.547  1.00  0.00     0.161 C 
HETATM    7  O   UNL     1       6.378  25.549  55.714  1.00  0.00    -0.303 OA
HETATM    8  C   UNL     1       6.861  24.544  54.903  1.00  0.00     0.090 A 
HETATM    9  C   UNL     1       6.503  24.419  53.551  1.00  0.00     0.051 A 
HETATM   10  C   UNL     1       5.524  25.369  52.972  1.00  0.00     0.196 A 
HETATM   11  O   UNL     1       5.060  25.239  51.850  1.00  0.00    -0.287 OA
HETATM   12  C   UNL     1       7.744  23.632  55.482  1.00  0.00     0.041 A 
HETATM   13  C   UNL     1       8.286  22.610  54.701  1.00  0.00     0.045 A 
HETATM   14  C   UNL     1       7.942  22.511  53.353  1.00  0.00     0.117 A 
HETATM   15  F   UNL     1       8.478  21.535  52.611  1.00  0.00    -0.206 F 
HETATM   16  C   UNL     1       7.051  23.403  52.767  1.00  0.00     0.060 A 
ENDROOT
BRANCH   6  17
HETATM   17  C   UNL     1       4.341  28.336  52.265  1.00  0.00    -0.030 A 
HETATM   18  C   UNL     1       3.195  28.636  51.501  1.00  0.00     0.012 A 
HETATM   19  C   UNL     1       3.285  29.403  50.338  1.00  0.00     0.037 A 
HETATM   20  C   UNL     1       4.526  29.871  49.931  1.00  0.00     0.065 A 
HETATM   21  C   UNL     1       5.672  29.579  50.662  1.00  0.00     0.037 A 
HETATM   22  C   UNL     1       5.584  28.809  51.824  1.00  0.00     0.012 A 
BRANCH  20  23
HETATM   23  O   UNL     1       4.663  30.633  48.811  1.00  0.00    -0.361 OA
HETATM   24  H   UNL     1       5.470  30.365  48.340  1.00  0.00     0.217 HD
ENDBRANCH  20  23
ENDBRANCH   6  17
BRANCH   1  25
HETATM   25  C   UNL     1       3.876  29.748  54.926  1.00  0.00     0.155 C 
BRANCH  25  26
HETATM   26  C   UNL     1       4.978  30.749  55.283  1.00  0.00     0.254 C 
BRANCH  26  27
HETATM   27  N   UNL     1       4.528  31.744  56.337  1.00  0.00    -0.077 N 
HETATM   28  C   UNL     1       3.562  31.125  57.305  1.00  0.00     0.269 C 
HETATM   29  H   UNL     1       5.368  32.035  56.864  1.00  0.00     0.279 HD
HETATM   30  C   UNL     1       3.981  33.024  55.763  1.00  0.00     0.269 C 
ENDBRANCH  26  27
ENDBRANCH  25  26
ENDBRANCH   1  25
TORSDOF 5
ENDMDL
MODEL 9
REMARK VINA RESULT:      -7.3      3.571      6.947
REMARK  5 active torsions:
REMARK  status: ('A' for Active; 'I' for Inactive)
REMARK    1  A    between atoms: N_2  and  C_4 
REMARK    2  A    between atoms: C_4  and  C_5 
REMARK    3  A    between atoms: C_5  and  N_6 
REMARK    4  A    between atoms: C_11  and  C_12 
REMARK    5  A    between atoms: C_15  and  O_16 
ROOT
HETATM    1  N   UNL     1       5.233  28.516  53.211  1.00  0.00    -0.332 N 
HETATM    2  C   UNL     1       4.182  29.306  52.777  1.00  0.00     0.279 C 
HETATM    3  O   UNL     1       3.752  30.285  53.355  1.00  0.00    -0.265 OA
HETATM    4  C   UNL     1       3.754  28.768  51.475  1.00  0.00     0.156 A 
HETATM    5  C   UNL     1       4.636  27.820  51.151  1.00  0.00     0.060 A 
HETATM    6  C   UNL     1       5.745  27.680  52.125  1.00  0.00     0.161 C 
HETATM    7  O   UNL     1       2.668  29.188  50.760  1.00  0.00    -0.303 OA
HETATM    8  C   UNL     1       2.409  28.493  49.598  1.00  0.00     0.090 A 
HETATM    9  C   UNL     1       3.232  27.454  49.134  1.00  0.00     0.051 A 
HETATM   10  C   UNL     1       4.462  27.114  49.888  1.00  0.00     0.196 A 
HETATM   11  O   UNL     1       5.295  26.323  49.474  1.00  0.00    -0.287 OA
HETATM   12  C   UNL     1       1.272  28.862  48.879  1.00  0.00     0.041 A 
HETATM   13  C   UNL     1       0.947  28.174  47.708  1.00  0.00     0.045 A 
HETATM   14  C   UNL     1       1.758  27.127  47.272  1.00  0.00     0.117 A 
HETATM   15  F   UNL     1       1.428  26.467  46.155  1.00  0.00    -0.206 F 
HETATM   16  C   UNL     1       2.903  26.760  47.969  1.00  0.00     0.060 A 
ENDROOT
BRANCH   6  17
HETATM   17  C   UNL     1       6.166  26.301  52.559  1.00  0.00    -0.030 A 
HETATM   18  C   UNL     1       7.535  25.967  52.524  1.00  0.00     0.012 A 
HETATM   19  C   UNL     1       7.986  24.726  52.976  1.00  0.00     0.037 A 
HETATM   20  C   UNL     1       7.066  23.809  53.463  1.00  0.00     0.065 A 
HETATM   21  C   UNL     1       5.709  24.111  53.498  1.00  0.00     0.037 A 
HETATM   22  C   UNL     1       5.256  25.352  53.044  1.00  0.00     0.012 A 
BRANCH  20  23
HETATM   23  O   UNL     1       7.458  22.589  53.926  1.00  0.00    -0.361 OA
HETATM   24  H   UNL     1       7.103  21.898  53.343  1.00  0.00     0.217 HD
ENDBRANCH  20  23
ENDBRANCH   6  17
BRANCH   1  25
HETATM   25  C   UNL     1       5.761  28.552  54.574  1.00  0.00     0.155 C 
BRANCH  25  26
HETATM   26  C   UNL     1       4.862  27.884  55.617  1.00  0.00     0.254 C 
BRANCH  26  27
HETATM   27  N   UNL     1       5.650  27.020  56.584  1.00  0.00    -0.077 N 
HETATM   28  C   UNL     1       7.067  26.831  56.127  1.00  0.00     0.269 C 
HETATM   29  H   UNL     1       5.669  27.512  57.492  1.00  0.00     0.279 HD
HETATM   30  C   UNL     1       4.993  25.698  56.885  1.00  0.00     0.269 C 
ENDBRANCH  26  27
ENDBRANCH  25  26
ENDBRANCH   1  25
TORSDOF 5
ENDMDL
MODEL 10
REMARK VINA RESULT:      -7.0      7.363     10.335
REMARK  5 active torsions:
REMARK  status: ('A' for Active; 'I' for Inactive)
REMARK    1  A    between atoms: N_2  and  C_4 
REMARK    2  A    between atoms: C_4  and  C_5 
REMARK    3  A    between atoms: C_5  and  N_6 
REMARK    4  A    between atoms: C_11  and  C_12 
REMARK    5  A    between atoms: C_15  and  O_16 
ROOT
HETATM    1  N   UNL     1       5.476  33.703  63.631  1.00  0.00    -0.332 N 
HETATM    2  C   UNL     1       6.734  33.130  63.704  1.00  0.00     0.279 C 
HETATM    3  O   UNL     1       7.442  33.108  64.692  1.00  0.00    -0.265 OA
HETATM    4  C   UNL     1       6.998  32.511  62.393  1.00  0.00     0.156 A 
HETATM    5  C   UNL     1       5.866  32.617  61.693  1.00  0.00     0.060 A 
HETATM    6  C   UNL     1       4.749  33.225  62.454  1.00  0.00     0.161 C 
HETATM    7  O   UNL     1       8.177  31.940  62.007  1.00  0.00    -0.303 OA
HETATM    8  C   UNL     1       8.226  31.486  60.706  1.00  0.00     0.090 A 
HETATM    9  C   UNL     1       7.126  31.548  59.837  1.00  0.00     0.051 A 
HETATM   10  C   UNL     1       5.834  32.072  60.342  1.00  0.00     0.196 A 
HETATM   11  O   UNL     1       4.802  32.027  59.691  1.00  0.00    -0.287 OA
HETATM   12  C   UNL     1       9.438  30.952  60.267  1.00  0.00     0.041 A 
HETATM   13  C   UNL     1       9.553  30.502  58.950  1.00  0.00     0.045 A 
HETATM   14  C   UNL     1       8.459  30.592  58.089  1.00  0.00     0.117 A 
HETATM   15  F   UNL     1       8.586  30.170  56.826  1.00  0.00    -0.206 F 
HETATM   16  C   UNL     1       7.242  31.107  58.518  1.00  0.00     0.060 A 
ENDROOT
BRANCH   6  17
HETATM   17  C   UNL     1       3.898  34.276  61.791  1.00  0.00    -0.030 A 
HETATM   18  C   UNL     1       4.533  35.366  61.163  1.00  0.00     0.012 A 
HETATM   19  C   UNL     1       3.795  36.333  60.479  1.00  0.00     0.037 A 
HETATM   20  C   UNL     1       2.414  36.216  60.423  1.00  0.00     0.065 A 
HETATM   21  C   UNL     1       1.764  35.155  61.044  1.00  0.00     0.037 A 
HETATM   22  C   UNL     1       2.501  34.188  61.731  1.00  0.00     0.012 A 
BRANCH  20  23
HETATM   23  O   UNL     1       1.651  37.127  59.758  1.00  0.00    -0.361 OA
HETATM   24  H   UNL     1       0.851  37.312  60.277  1.00  0.00     0.217 HD
ENDBRANCH  20  23
ENDBRANCH   6  17
BRANCH   1  25
HETATM   25  C   UNL     1       4.956  34.638  64.626  1.00  0.00     0.155 C 
BRANCH  25  26
HETATM   26  C   UNL     1       4.251  33.971  65.810  1.00  0.00     0.254 C 
BRANCH  26  27
HETATM   27  N   UNL     1       4.209  34.869  67.032  1.00  0.00    -0.077 N 
HETATM   28  C   UNL     1       4.541  36.291  66.685  1.00  0.00     0.269 C 
HETATM   29  H   UNL     1       3.244  34.845  67.400  1.00  0.00     0.279 HD
HETATM   30  C   UNL     1       5.059  34.374  68.174  1.00  0.00     0.269 C 
ENDBRANCH  26  27
ENDBRANCH  25  26
ENDBRANCH   1  25
TORSDOF 5
ENDMDL
