MODEL 1
REMARK VINA RESULT:      -9.7      0.000      0.000
REMARK  6 active torsions:
REMARK  status: ('A' for Active; 'I' for Inactive)
REMARK    1  A    between atoms: C_9  and  N_10 
REMARK       I    between atoms: N_10  and  C_11 
REMARK    2  A    between atoms: C_11  and  C_12 
REMARK    3  A    between atoms: C_12  and  N_13 
REMARK    4  A    between atoms: C_12  and  C_21 
REMARK       I    between atoms: N_13  and  C_14 
REMARK    5  A    between atoms: C_14  and  C_15 
REMARK    6  A    between atoms: C_21  and  C_22 
ROOT
HETATM    1  C   UNL     1       7.371  25.345  55.544  1.00  0.00     0.181 C 
ENDROOT
BRANCH   1   2
HETATM    2  C   UNL     1       8.066  26.212  56.637  1.00  0.00     0.245 C 
HETATM    3  N   UNL     1       8.186  27.558  56.323  1.00  0.00    -0.325 N 
HETATM    4  H   UNL     1       7.975  27.843  55.379  1.00  0.00     0.169 HD
HETATM    5  O   UNL     1       8.347  25.724  57.732  1.00  0.00    -0.271 OA
BRANCH   3   6
HETATM    6  C   UNL     1       8.594  28.612  57.177  1.00  0.00     0.037 A 
HETATM    7  C   UNL     1       7.809  29.124  58.217  1.00  0.00     0.063 A 
HETATM    8  C   UNL     1       8.294  30.206  58.972  1.00  0.00     0.087 A 
HETATM    9  N   UNL     1       7.704  30.889  60.009  1.00  0.00    -0.234 NA
HETATM   10  C   UNL     1       9.545  30.735  58.683  1.00  0.00     0.062 A 
HETATM   11  C   UNL     1       8.565  31.820  60.361  1.00  0.00     0.101 A 
HETATM   12  C   UNL     1       8.392  32.831  61.428  1.00  0.00     0.091 C 
HETATM   13  N   UNL     1       9.699  31.754  59.589  1.00  0.00    -0.343 N 
HETATM   14  H   UNL     1      10.502  32.361  59.667  1.00  0.00     0.167 HD
HETATM   15  C   UNL     1      10.364  30.248  57.668  1.00  0.00     0.034 A 
HETATM   16  C   UNL     1       9.856  29.177  56.918  1.00  0.00     0.032 A 
ENDBRANCH   3   6
ENDBRANCH   1   2
BRANCH   1  17
HETATM   17  N   UNL     1       6.378  26.156  54.832  1.00  0.00    -0.343 N 
HETATM   18  C   UNL     1       6.519  26.548  53.519  1.00  0.00     0.259 C 
HETATM   19  O   UNL     1       7.524  26.269  52.868  1.00  0.00    -0.267 OA
HETATM   20  H   UNL     1       5.463  26.270  55.249  1.00  0.00     0.163 HD
BRANCH  18  21
HETATM   21  C   UNL     1       5.427  27.342  52.970  1.00  0.00     0.072 A 
HETATM   22  S   UNL     1       5.304  27.710  51.299  1.00  0.00    -0.097 SA
HETATM   23  C   UNL     1       3.824  28.538  51.517  1.00  0.00     0.050 A 
HETATM   24  C   UNL     1       3.428  28.550  52.834  1.00  0.00     0.009 A 
HETATM   25  C   UNL     1       4.353  27.862  53.671  1.00  0.00     0.025 A 
ENDBRANCH  18  21
ENDBRANCH   1  17
BRANCH   1  26
HETATM   26  C   UNL     1       6.822  23.974  55.994  1.00  0.00     0.073 C 
BRANCH  26  27
HETATM   27  C   UNL     1       7.380  22.835  55.164  1.00  0.00    -0.056 A 
HETATM   28  C   UNL     1       7.529  22.974  53.776  1.00  0.00     0.007 A 
HETATM   29  C   UNL     1       7.991  21.906  53.005  1.00  0.00     0.001 A 
HETATM   30  C   UNL     1       8.301  20.689  53.611  1.00  0.00     0.000 A 
HETATM   31  C   UNL     1       8.161  20.543  54.989  1.00  0.00     0.001 A 
HETATM   32  C   UNL     1       7.709  21.612  55.763  1.00  0.00     0.007 A 
ENDBRANCH  26  27
ENDBRANCH   1  26
TORSDOF 6
ENDMDL
MODEL 2
REMARK VINA RESULT:      -9.5      1.674      2.138
REMARK  6 active torsions:
REMARK  status: ('A' for Active; 'I' for Inactive)
REMARK    1  A    between atoms: C_9  and  N_10 
REMARK       I    between atoms: N_10  and  C_11 
REMARK    2  A    between atoms: C_11  and  C_12 
REMARK    3  A    between atoms: C_12  and  N_13 
REMARK    4  A    between atoms: C_12  and  C_21 
REMARK       I    between atoms: N_13  and  C_14 
REMARK    5  A    between atoms: C_14  and  C_15 
REMARK    6  A    between atoms: C_21  and  C_22 
ROOT
HETATM    1  C   UNL     1       6.557  26.378  54.100  1.00  0.00     0.181 C 
ENDROOT
BRANCH   1   2
HETATM    2  C   UNL     1       6.782  27.600  55.042  1.00  0.00     0.245 C 
HETATM    3  N   UNL     1       7.874  27.488  55.890  1.00  0.00    -0.325 N 
HETATM    4  H   UNL     1       8.330  26.591  55.955  1.00  0.00     0.169 HD
HETATM    5  O   UNL     1       6.100  28.618  54.913  1.00  0.00    -0.271 OA
BRANCH   3   6
HETATM    6  C   UNL     1       8.436  28.494  56.713  1.00  0.00     0.037 A 
HETATM    7  C   UNL     1       7.929  28.851  57.969  1.00  0.00     0.063 A 
HETATM    8  C   UNL     1       8.537  29.899  58.680  1.00  0.00     0.087 A 
HETATM    9  N   UNL     1       8.208  30.441  59.900  1.00  0.00    -0.234 NA
HETATM   10  C   UNL     1       9.635  30.550  58.133  1.00  0.00     0.062 A 
HETATM   11  C   UNL     1       9.079  31.405  60.111  1.00  0.00     0.101 A 
HETATM   12  C   UNL     1       9.141  32.304  61.286  1.00  0.00     0.091 C 
HETATM   13  N   UNL     1       9.968  31.497  59.068  1.00  0.00    -0.343 N 
HETATM   14  H   UNL     1      10.728  32.157  58.998  1.00  0.00     0.167 HD
HETATM   15  C   UNL     1      10.179  30.219  56.895  1.00  0.00     0.034 A 
HETATM   16  C   UNL     1       9.550  29.179  56.195  1.00  0.00     0.032 A 
ENDBRANCH   3   6
ENDBRANCH   1   2
BRANCH   1  17
HETATM   17  N   UNL     1       5.697  26.774  52.980  1.00  0.00    -0.343 N 
HETATM   18  C   UNL     1       5.894  26.346  51.685  1.00  0.00     0.259 C 
HETATM   19  O   UNL     1       6.843  25.627  51.382  1.00  0.00    -0.267 OA
HETATM   20  H   UNL     1       4.811  27.215  53.188  1.00  0.00     0.163 HD
BRANCH  18  21
HETATM   21  C   UNL     1       4.933  26.831  50.702  1.00  0.00     0.072 A 
HETATM   22  S   UNL     1       4.159  28.355  50.843  1.00  0.00    -0.097 SA
HETATM   23  C   UNL     1       3.335  28.155  49.359  1.00  0.00     0.050 A 
HETATM   24  C   UNL     1       3.626  26.948  48.765  1.00  0.00     0.009 A 
HETATM   25  C   UNL     1       4.546  26.186  49.540  1.00  0.00     0.025 A 
ENDBRANCH  18  21
ENDBRANCH   1  17
BRANCH   1  26
HETATM   26  C   UNL     1       6.109  25.062  54.771  1.00  0.00     0.073 C 
BRANCH  26  27
HETATM   27  C   UNL     1       7.138  23.961  54.611  1.00  0.00    -0.056 A 
HETATM   28  C   UNL     1       8.097  23.733  55.610  1.00  0.00     0.007 A 
HETATM   29  C   UNL     1       9.079  22.756  55.437  1.00  0.00     0.001 A 
HETATM   30  C   UNL     1       9.118  22.004  54.265  1.00  0.00     0.000 A 
HETATM   31  C   UNL     1       8.168  22.219  53.268  1.00  0.00     0.001 A 
HETATM   32  C   UNL     1       7.179  23.188  53.443  1.00  0.00     0.007 A 
ENDBRANCH  26  27
ENDBRANCH   1  26
TORSDOF 6
ENDMDL
MODEL 3
REMARK VINA RESULT:      -9.5      2.948      7.548
REMARK  6 active torsions:
REMARK  status: ('A' for Active; 'I' for Inactive)
REMARK    1  A    between atoms: C_9  and  N_10 
REMARK       I    between atoms: N_10  and  C_11 
REMARK    2  A    between atoms: C_11  and  C_12 
REMARK    3  A    between atoms: C_12  and  N_13 
REMARK    4  A    between atoms: C_12  and  C_21 
REMARK       I    between atoms: N_13  and  C_14 
REMARK    5  A    between atoms: C_14  and  C_15 
REMARK    6  A    between atoms: C_21  and  C_22 
ROOT
HETATM    1  C   UNL     1       6.705  25.317  54.282  1.00  0.00     0.181 C 
ENDROOT
BRANCH   1   2
HETATM    2  C   UNL     1       5.534  25.624  53.298  1.00  0.00     0.245 C 
HETATM    3  N   UNL     1       5.757  26.694  52.444  1.00  0.00    -0.325 N 
HETATM    4  H   UNL     1       6.558  27.280  52.621  1.00  0.00     0.169 HD
HETATM    5  O   UNL     1       4.565  24.867  53.230  1.00  0.00    -0.271 OA
BRANCH   3   6
HETATM    6  C   UNL     1       4.974  27.090  51.332  1.00  0.00     0.037 A 
HETATM    7  C   UNL     1       4.169  28.235  51.312  1.00  0.00     0.063 A 
HETATM    8  C   UNL     1       3.393  28.507  50.172  1.00  0.00     0.087 A 
HETATM    9  N   UNL     1       2.517  29.538  49.929  1.00  0.00    -0.234 NA
HETATM   10  C   UNL     1       3.450  27.645  49.085  1.00  0.00     0.062 A 
HETATM   11  C   UNL     1       2.041  29.328  48.721  1.00  0.00     0.101 A 
HETATM   12  C   UNL     1       1.046  30.156  48.002  1.00  0.00     0.091 C 
HETATM   13  N   UNL     1       2.589  28.196  48.170  1.00  0.00    -0.343 N 
HETATM   14  H   UNL     1       2.383  27.827  47.253  1.00  0.00     0.167 HD
HETATM   15  C   UNL     1       4.247  26.504  49.057  1.00  0.00     0.034 A 
HETATM   16  C   UNL     1       5.003  26.243  50.210  1.00  0.00     0.032 A 
ENDBRANCH   3   6
ENDBRANCH   1   2
BRANCH   1  17
HETATM   17  N   UNL     1       7.062  26.536  55.014  1.00  0.00    -0.343 N 
HETATM   18  C   UNL     1       7.301  26.563  56.371  1.00  0.00     0.259 C 
HETATM   19  O   UNL     1       7.186  25.555  57.065  1.00  0.00    -0.267 OA
HETATM   20  H   UNL     1       7.339  27.352  54.484  1.00  0.00     0.163 HD
BRANCH  18  21
HETATM   21  C   UNL     1       7.656  27.862  56.930  1.00  0.00     0.072 A 
HETATM   22  S   UNL     1       6.477  28.995  57.448  1.00  0.00    -0.097 SA
HETATM   23  C   UNL     1       7.669  30.100  57.979  1.00  0.00     0.050 A 
HETATM   24  C   UNL     1       8.943  29.631  57.758  1.00  0.00     0.009 A 
HETATM   25  C   UNL     1       8.934  28.342  57.153  1.00  0.00     0.025 A 
ENDBRANCH  18  21
ENDBRANCH   1  17
BRANCH   1  26
HETATM   26  C   UNL     1       7.929  24.585  53.691  1.00  0.00     0.073 C 
BRANCH  26  27
HETATM   27  C   UNL     1       7.888  23.095  53.962  1.00  0.00    -0.056 A 
HETATM   28  C   UNL     1       7.803  22.613  55.277  1.00  0.00     0.007 A 
HETATM   29  C   UNL     1       7.821  21.240  55.529  1.00  0.00     0.001 A 
HETATM   30  C   UNL     1       7.931  20.337  54.474  1.00  0.00     0.000 A 
HETATM   31  C   UNL     1       8.011  20.804  53.164  1.00  0.00     0.001 A 
HETATM   32  C   UNL     1       7.983  22.176  52.908  1.00  0.00     0.007 A 
ENDBRANCH  26  27
ENDBRANCH   1  26
TORSDOF 6
ENDMDL
MODEL 4
REMARK VINA RESULT:      -9.5      1.980      2.770
REMARK  6 active torsions:
REMARK  status: ('A' for Active; 'I' for Inactive)
REMARK    1  A    between atoms: C_9  and  N_10 
REMARK       I    between atoms: N_10  and  C_11 
REMARK    2  A    between atoms: C_11  and  C_12 
REMARK    3  A    between atoms: C_12  and  N_13 
REMARK    4  A    between atoms: C_12  and  C_21 
REMARK       I    between atoms: N_13  and  C_14 
REMARK    5  A    between atoms: C_14  and  C_15 
REMARK    6  A    between atoms: C_21  and  C_22 
ROOT
HETATM    1  C   UNL     1       7.069  25.964  53.252  1.00  0.00     0.181 C 
ENDROOT
BRANCH   1   2
HETATM    2  C   UNL     1       7.278  27.299  54.029  1.00  0.00     0.245 C 
HETATM    3  N   UNL     1       6.537  27.415  55.196  1.00  0.00    -0.325 N 
HETATM    4  H   UNL     1       5.819  26.729  55.369  1.00  0.00     0.169 HD
HETATM    5  O   UNL     1       8.143  28.100  53.669  1.00  0.00    -0.271 OA
BRANCH   3   6
HETATM    6  C   UNL     1       6.651  28.411  56.197  1.00  0.00     0.037 A 
HETATM    7  C   UNL     1       7.666  28.438  57.161  1.00  0.00     0.063 A 
HETATM    8  C   UNL     1       7.654  29.446  58.140  1.00  0.00     0.087 A 
HETATM    9  N   UNL     1       8.514  29.662  59.190  1.00  0.00    -0.234 NA
HETATM   10  C   UNL     1       6.648  30.403  58.123  1.00  0.00     0.062 A 
HETATM   11  C   UNL     1       8.059  30.728  59.813  1.00  0.00     0.101 A 
HETATM   12  C   UNL     1       8.630  31.360  61.025  1.00  0.00     0.091 C 
HETATM   13  N   UNL     1       6.935  31.214  59.192  1.00  0.00    -0.343 N 
HETATM   14  H   UNL     1       6.404  32.023  59.481  1.00  0.00     0.167 HD
HETATM   15  C   UNL     1       5.629  30.423  57.175  1.00  0.00     0.034 A 
HETATM   16  C   UNL     1       5.650  29.400  56.216  1.00  0.00     0.032 A 
ENDBRANCH   3   6
ENDBRANCH   1   2
BRANCH   1  17
HETATM   17  N   UNL     1       6.571  26.254  51.904  1.00  0.00    -0.343 N 
HETATM   18  C   UNL     1       5.388  26.917  51.660  1.00  0.00     0.259 C 
HETATM   19  O   UNL     1       4.649  27.275  52.574  1.00  0.00    -0.267 OA
HETATM   20  H   UNL     1       7.204  26.144  51.123  1.00  0.00     0.163 HD
BRANCH  18  21
HETATM   21  C   UNL     1       5.055  27.129  50.256  1.00  0.00     0.072 A 
HETATM   22  S   UNL     1       5.400  28.598  49.439  1.00  0.00    -0.097 SA
HETATM   23  C   UNL     1       4.794  27.998  47.957  1.00  0.00     0.050 A 
HETATM   24  C   UNL     1       4.324  26.711  48.074  1.00  0.00     0.009 A 
HETATM   25  C   UNL     1       4.474  26.211  49.399  1.00  0.00     0.025 A 
ENDBRANCH  18  21
ENDBRANCH   1  17
BRANCH   1  26
HETATM   26  C   UNL     1       6.261  24.864  53.973  1.00  0.00     0.073 C 
BRANCH  26  27
HETATM   27  C   UNL     1       7.045  23.574  54.105  1.00  0.00    -0.056 A 
HETATM   28  C   UNL     1       7.475  22.883  52.962  1.00  0.00     0.007 A 
HETATM   29  C   UNL     1       8.148  21.666  53.084  1.00  0.00     0.001 A 
HETATM   30  C   UNL     1       8.393  21.125  54.345  1.00  0.00     0.000 A 
HETATM   31  C   UNL     1       7.974  21.805  55.486  1.00  0.00     0.001 A 
HETATM   32  C   UNL     1       7.309  23.027  55.368  1.00  0.00     0.007 A 
ENDBRANCH  26  27
ENDBRANCH   1  26
TORSDOF 6
ENDMDL
MODEL 5
REMARK VINA RESULT:      -8.9      3.055      7.756
REMARK  6 active torsions:
REMARK  status: ('A' for Active; 'I' for Inactive)
REMARK    1  A    between atoms: C_9  and  N_10 
REMARK       I    between atoms: N_10  and  C_11 
REMARK    2  A    between atoms: C_11  and  C_12 
REMARK    3  A    between atoms: C_12  and  N_13 
REMARK    4  A    between atoms: C_12  and  C_21 
REMARK       I    between atoms: N_13  and  C_14 
REMARK    5  A    between atoms: C_14  and  C_15 
REMARK    6  A    between atoms: C_21  and  C_22 
ROOT
HETATM    1  C   UNL     1       7.023  25.653  54.773  1.00  0.00     0.181 C 
ENDROOT
BRANCH   1   2
HETATM    2  C   UNL     1       5.942  26.302  53.856  1.00  0.00     0.245 C 
HETATM    3  N   UNL     1       6.315  26.444  52.527  1.00  0.00    -0.325 N 
HETATM    4  H   UNL     1       7.280  26.278  52.288  1.00  0.00     0.169 HD
HETATM    5  O   UNL     1       4.812  26.530  54.291  1.00  0.00    -0.271 OA
BRANCH   3   6
HETATM    6  C   UNL     1       5.495  26.818  51.435  1.00  0.00     0.037 A 
HETATM    7  C   UNL     1       4.844  25.905  50.597  1.00  0.00     0.063 A 
HETATM    8  C   UNL     1       4.095  26.386  49.510  1.00  0.00     0.087 A 
HETATM    9  N   UNL     1       3.399  25.695  48.546  1.00  0.00    -0.234 NA
HETATM   10  C   UNL     1       4.001  27.755  49.297  1.00  0.00     0.062 A 
HETATM   11  C   UNL     1       2.882  26.608  47.752  1.00  0.00     0.101 A 
HETATM   12  C   UNL     1       2.054  26.372  46.548  1.00  0.00     0.091 C 
HETATM   13  N   UNL     1       3.214  27.871  48.179  1.00  0.00    -0.343 N 
HETATM   14  H   UNL     1       2.937  28.735  47.737  1.00  0.00     0.167 HD
HETATM   15  C   UNL     1       4.619  28.698  50.113  1.00  0.00     0.034 A 
HETATM   16  C   UNL     1       5.374  28.197  51.184  1.00  0.00     0.032 A 
ENDBRANCH   3   6
ENDBRANCH   1   2
BRANCH   1  17
HETATM   17  N   UNL     1       7.493  26.640  55.751  1.00  0.00    -0.343 N 
HETATM   18  C   UNL     1       7.958  27.890  55.403  1.00  0.00     0.259 C 
HETATM   19  O   UNL     1       8.045  28.240  54.228  1.00  0.00    -0.267 OA
HETATM   20  H   UNL     1       7.287  26.483  56.729  1.00  0.00     0.163 HD
BRANCH  18  21
HETATM   21  C   UNL     1       8.373  28.745  56.508  1.00  0.00     0.072 A 
HETATM   22  S   UNL     1       7.329  29.137  57.812  1.00  0.00    -0.097 SA
HETATM   23  C   UNL     1       8.545  30.037  58.608  1.00  0.00     0.050 A 
HETATM   24  C   UNL     1       9.723  30.056  57.898  1.00  0.00     0.009 A 
HETATM   25  C   UNL     1       9.622  29.312  56.688  1.00  0.00     0.025 A 
ENDBRANCH  18  21
ENDBRANCH   1  17
BRANCH   1  26
HETATM   26  C   UNL     1       8.174  24.908  54.064  1.00  0.00     0.073 C 
BRANCH  26  27
HETATM   27  C   UNL     1       8.069  23.405  54.231  1.00  0.00    -0.056 A 
HETATM   28  C   UNL     1       8.065  22.564  53.108  1.00  0.00     0.007 A 
HETATM   29  C   UNL     1       7.912  21.185  53.260  1.00  0.00     0.001 A 
HETATM   30  C   UNL     1       7.756  20.634  54.530  1.00  0.00     0.000 A 
HETATM   31  C   UNL     1       7.763  21.460  55.652  1.00  0.00     0.001 A 
HETATM   32  C   UNL     1       7.926  22.838  55.504  1.00  0.00     0.007 A 
ENDBRANCH  26  27
ENDBRANCH   1  26
TORSDOF 6
ENDMDL
MODEL 6
REMARK VINA RESULT:      -8.9      3.083      8.307
REMARK  6 active torsions:
REMARK  status: ('A' for Active; 'I' for Inactive)
REMARK    1  A    between atoms: C_9  and  N_10 
REMARK       I    between atoms: N_10  and  C_11 
REMARK    2  A    between atoms: C_11  and  C_12 
REMARK    3  A    between atoms: C_12  and  N_13 
REMARK    4  A    between atoms: C_12  and  C_21 
REMARK       I    between atoms: N_13  and  C_14 
REMARK    5  A    between atoms: C_14  and  C_15 
REMARK    6  A    between atoms: C_21  and  C_22 
ROOT
HETATM    1  C   UNL     1       6.398  29.717  57.121  1.00  0.00     0.181 C 
ENDROOT
BRANCH   1   2
HETATM    2  C   UNL     1       7.309  28.575  56.574  1.00  0.00     0.245 C 
HETATM    3  N   UNL     1       6.952  27.299  56.984  1.00  0.00    -0.325 N 
HETATM    4  H   UNL     1       6.259  27.214  57.711  1.00  0.00     0.169 HD
HETATM    5  O   UNL     1       8.180  28.822  55.739  1.00  0.00    -0.271 OA
BRANCH   3   6
HETATM    6  C   UNL     1       7.462  26.065  56.512  1.00  0.00     0.037 A 
HETATM    7  C   UNL     1       7.039  25.446  55.330  1.00  0.00     0.063 A 
HETATM    8  C   UNL     1       7.578  24.195  54.981  1.00  0.00     0.087 A 
HETATM    9  N   UNL     1       7.305  23.390  53.901  1.00  0.00    -0.234 NA
HETATM   10  C   UNL     1       8.529  23.607  55.805  1.00  0.00     0.062 A 
HETATM   11  C   UNL     1       8.066  22.326  54.045  1.00  0.00     0.101 A 
HETATM   12  C   UNL     1       8.129  21.152  53.145  1.00  0.00     0.091 C 
HETATM   13  N   UNL     1       8.831  22.423  55.181  1.00  0.00    -0.343 N 
HETATM   14  H   UNL     1       9.493  21.734  55.506  1.00  0.00     0.167 HD
HETATM   15  C   UNL     1       8.988  24.194  56.980  1.00  0.00     0.034 A 
HETATM   16  C   UNL     1       8.427  25.435  57.318  1.00  0.00     0.032 A 
ENDBRANCH   3   6
ENDBRANCH   1   2
BRANCH   1  17
HETATM   17  N   UNL     1       6.869  30.126  58.448  1.00  0.00    -0.343 N 
HETATM   18  C   UNL     1       6.866  31.434  58.883  1.00  0.00     0.259 C 
HETATM   19  O   UNL     1       6.500  32.354  58.156  1.00  0.00    -0.267 OA
HETATM   20  H   UNL     1       7.017  29.410  59.147  1.00  0.00     0.163 HD
BRANCH  18  21
HETATM   21  C   UNL     1       7.360  31.655  60.237  1.00  0.00     0.072 A 
HETATM   22  S   UNL     1       8.725  30.829  60.866  1.00  0.00    -0.097 SA
HETATM   23  C   UNL     1       8.642  31.674  62.350  1.00  0.00     0.050 A 
HETATM   24  C   UNL     1       7.592  32.562  62.381  1.00  0.00     0.009 A 
HETATM   25  C   UNL     1       6.853  32.549  61.163  1.00  0.00     0.025 A 
ENDBRANCH  18  21
ENDBRANCH   1  17
BRANCH   1  26
HETATM   26  C   UNL     1       4.875  29.471  57.069  1.00  0.00     0.073 C 
BRANCH  26  27
HETATM   27  C   UNL     1       4.331  29.554  55.657  1.00  0.00    -0.056 A 
HETATM   28  C   UNL     1       4.219  28.399  54.869  1.00  0.00     0.007 A 
HETATM   29  C   UNL     1       3.771  28.485  53.549  1.00  0.00     0.001 A 
HETATM   30  C   UNL     1       3.439  29.723  53.003  1.00  0.00     0.000 A 
HETATM   31  C   UNL     1       3.543  30.876  53.778  1.00  0.00     0.001 A 
HETATM   32  C   UNL     1       3.981  30.792  55.100  1.00  0.00     0.007 A 
ENDBRANCH  26  27
ENDBRANCH   1  26
TORSDOF 6
ENDMDL
MODEL 7
REMARK VINA RESULT:      -8.8      2.909      8.324
REMARK  6 active torsions:
REMARK  status: ('A' for Active; 'I' for Inactive)
REMARK    1  A    between atoms: C_9  and  N_10 
REMARK       I    between atoms: N_10  and  C_11 
REMARK    2  A    between atoms: C_11  and  C_12 
REMARK    3  A    between atoms: C_12  and  N_13 
REMARK    4  A    between atoms: C_12  and  C_21 
REMARK       I    between atoms: N_13  and  C_14 
REMARK    5  A    between atoms: C_14  and  C_15 
REMARK    6  A    between atoms: C_21  and  C_22 
ROOT
HETATM    1  C   UNL     1       7.557  26.633  55.918  1.00  0.00     0.181 C 
ENDROOT
BRANCH   1   2
HETATM    2  C   UNL     1       6.394  26.931  54.923  1.00  0.00     0.245 C 
HETATM    3  N   UNL     1       6.796  27.407  53.684  1.00  0.00    -0.325 N 
HETATM    4  H   UNL     1       7.762  27.674  53.572  1.00  0.00     0.169 HD
HETATM    5  O   UNL     1       5.236  26.626  55.211  1.00  0.00    -0.271 OA
BRANCH   3   6
HETATM    6  C   UNL     1       5.999  27.586  52.527  1.00  0.00     0.037 A 
HETATM    7  C   UNL     1       5.666  26.555  51.640  1.00  0.00     0.063 A 
HETATM    8  C   UNL     1       4.909  26.855  50.494  1.00  0.00     0.087 A 
HETATM    9  N   UNL     1       4.488  26.031  49.478  1.00  0.00    -0.234 NA
HETATM   10  C   UNL     1       4.495  28.162  50.271  1.00  0.00     0.062 A 
HETATM   11  C   UNL     1       3.824  26.802  48.642  1.00  0.00     0.101 A 
HETATM   12  C   UNL     1       3.181  26.390  47.374  1.00  0.00     0.091 C 
HETATM   13  N   UNL     1       3.796  28.099  49.092  1.00  0.00    -0.343 N 
HETATM   14  H   UNL     1       3.349  28.875  48.627  1.00  0.00     0.167 HD
HETATM   15  C   UNL     1       4.791  29.214  51.134  1.00  0.00     0.034 A 
HETATM   16  C   UNL     1       5.559  28.896  52.264  1.00  0.00     0.032 A 
ENDBRANCH   3   6
ENDBRANCH   1   2
BRANCH   1  17
HETATM   17  N   UNL     1       7.718  25.183  56.063  1.00  0.00    -0.343 N 
HETATM   18  C   UNL     1       7.991  24.341  55.007  1.00  0.00     0.259 C 
HETATM   19  O   UNL     1       8.075  24.760  53.855  1.00  0.00    -0.267 OA
HETATM   20  H   UNL     1       7.833  24.803  56.994  1.00  0.00     0.163 HD
BRANCH  18  21
HETATM   21  C   UNL     1       8.131  22.929  55.338  1.00  0.00     0.072 A 
HETATM   22  S   UNL     1       8.054  21.692  54.152  1.00  0.00    -0.097 SA
HETATM   23  C   UNL     1       8.361  20.468  55.305  1.00  0.00     0.050 A 
HETATM   24  C   UNL     1       8.507  20.978  56.574  1.00  0.00     0.009 A 
HETATM   25  C   UNL     1       8.374  22.396  56.592  1.00  0.00     0.025 A 
ENDBRANCH  18  21
ENDBRANCH   1  17
BRANCH   1  26
HETATM   26  C   UNL     1       7.517  27.376  57.271  1.00  0.00     0.073 C 
BRANCH  26  27
HETATM   27  C   UNL     1       8.505  28.524  57.321  1.00  0.00    -0.056 A 
HETATM   28  C   UNL     1       9.546  28.607  56.384  1.00  0.00     0.007 A 
HETATM   29  C   UNL     1      10.489  29.634  56.464  1.00  0.00     0.001 A 
HETATM   30  C   UNL     1      10.405  30.582  57.482  1.00  0.00     0.000 A 
HETATM   31  C   UNL     1       9.372  30.511  58.416  1.00  0.00     0.001 A 
HETATM   32  C   UNL     1       8.423  29.491  58.332  1.00  0.00     0.007 A 
ENDBRANCH  26  27
ENDBRANCH   1  26
TORSDOF 6
ENDMDL
MODEL 8
REMARK VINA RESULT:      -8.8      3.288      8.684
REMARK  6 active torsions:
REMARK  status: ('A' for Active; 'I' for Inactive)
REMARK    1  A    between atoms: C_9  and  N_10 
REMARK       I    between atoms: N_10  and  C_11 
REMARK    2  A    between atoms: C_11  and  C_12 
REMARK    3  A    between atoms: C_12  and  N_13 
REMARK    4  A    between atoms: C_12  and  C_21 
REMARK       I    between atoms: N_13  and  C_14 
REMARK    5  A    between atoms: C_14  and  C_15 
REMARK    6  A    between atoms: C_21  and  C_22 
ROOT
HETATM    1  C   UNL     1       6.608  26.751  54.374  1.00  0.00     0.181 C 
ENDROOT
BRANCH   1   2
HETATM    2  C   UNL     1       5.497  27.041  53.319  1.00  0.00     0.245 C 
HETATM    3  N   UNL     1       5.966  27.327  52.045  1.00  0.00    -0.325 N 
HETATM    4  H   UNL     1       6.955  27.484  51.930  1.00  0.00     0.169 HD
HETATM    5  O   UNL     1       4.310  26.886  53.608  1.00  0.00    -0.271 OA
BRANCH   3   6
HETATM    6  C   UNL     1       5.210  27.445  50.853  1.00  0.00     0.037 A 
HETATM    7  C   UNL     1       4.731  28.661  50.349  1.00  0.00     0.063 A 
HETATM    8  C   UNL     1       3.948  28.657  49.182  1.00  0.00     0.087 A 
HETATM    9  N   UNL     1       3.351  29.703  48.520  1.00  0.00    -0.234 NA
HETATM   10  C   UNL     1       3.676  27.453  48.545  1.00  0.00     0.062 A 
HETATM   11  C   UNL     1       2.724  29.168  47.494  1.00  0.00     0.101 A 
HETATM   12  C   UNL     1       1.914  29.880  46.479  1.00  0.00     0.091 C 
HETATM   13  N   UNL     1       2.905  27.807  47.467  1.00  0.00    -0.343 N 
HETATM   14  H   UNL     1       2.524  27.176  46.778  1.00  0.00     0.167 HD
HETATM   15  C   UNL     1       4.143  26.225  49.003  1.00  0.00     0.034 A 
HETATM   16  C   UNL     1       4.911  26.249  50.177  1.00  0.00     0.032 A 
ENDBRANCH   3   6
ENDBRANCH   1   2
BRANCH   1  17
HETATM   17  N   UNL     1       6.835  25.305  54.462  1.00  0.00    -0.343 N 
HETATM   18  C   UNL     1       7.631  24.607  53.579  1.00  0.00     0.259 C 
HETATM   19  O   UNL     1       8.174  25.161  52.626  1.00  0.00    -0.267 OA
HETATM   20  H   UNL     1       6.563  24.826  55.311  1.00  0.00     0.163 HD
BRANCH  18  21
HETATM   21  C   UNL     1       7.752  23.175  53.826  1.00  0.00     0.072 A 
HETATM   22  S   UNL     1       7.748  22.509  55.407  1.00  0.00    -0.097 SA
HETATM   23  C   UNL     1       7.851  20.910  54.811  1.00  0.00     0.050 A 
HETATM   24  C   UNL     1       7.901  20.874  53.436  1.00  0.00     0.009 A 
HETATM   25  C   UNL     1       7.845  22.179  52.870  1.00  0.00     0.025 A 
ENDBRANCH  18  21
ENDBRANCH   1  17
BRANCH   1  26
HETATM   26  C   UNL     1       6.443  27.422  55.755  1.00  0.00     0.073 C 
BRANCH  26  27
HETATM   27  C   UNL     1       7.644  28.270  56.124  1.00  0.00    -0.056 A 
HETATM   28  C   UNL     1       8.547  28.692  55.136  1.00  0.00     0.007 A 
HETATM   29  C   UNL     1       9.682  29.426  55.484  1.00  0.00     0.001 A 
HETATM   30  C   UNL     1       9.931  29.738  56.819  1.00  0.00     0.000 A 
HETATM   31  C   UNL     1       9.039  29.327  57.807  1.00  0.00     0.001 A 
HETATM   32  C   UNL     1       7.898  28.602  57.461  1.00  0.00     0.007 A 
ENDBRANCH  26  27
ENDBRANCH   1  26
TORSDOF 6
ENDMDL
MODEL 9
REMARK VINA RESULT:      -8.7      2.016      5.192
REMARK  6 active torsions:
REMARK  status: ('A' for Active; 'I' for Inactive)
REMARK    1  A    between atoms: C_9  and  N_10 
REMARK       I    between atoms: N_10  and  C_11 
REMARK    2  A    between atoms: C_11  and  C_12 
REMARK    3  A    between atoms: C_12  and  N_13 
REMARK    4  A    between atoms: C_12  and  C_21 
REMARK       I    between atoms: N_13  and  C_14 
REMARK    5  A    between atoms: C_14  and  C_15 
REMARK    6  A    between atoms: C_21  and  C_22 
ROOT
HETATM    1  C   UNL     1       6.452  26.794  54.535  1.00  0.00     0.181 C 
ENDROOT
BRANCH   1   2
HETATM    2  C   UNL     1       6.547  27.419  55.960  1.00  0.00     0.245 C 
HETATM    3  N   UNL     1       7.142  28.671  56.008  1.00  0.00    -0.325 N 
HETATM    4  H   UNL     1       7.603  29.006  55.176  1.00  0.00     0.169 HD
HETATM    5  O   UNL     1       6.004  26.868  56.918  1.00  0.00    -0.271 OA
BRANCH   3   6
HETATM    6  C   UNL     1       7.202  29.558  57.110  1.00  0.00     0.037 A 
HETATM    7  C   UNL     1       8.088  29.412  58.185  1.00  0.00     0.063 A 
HETATM    8  C   UNL     1       8.027  30.324  59.252  1.00  0.00     0.087 A 
HETATM    9  N   UNL     1       8.762  30.371  60.412  1.00  0.00    -0.234 NA
HETATM   10  C   UNL     1       7.102  31.360  59.214  1.00  0.00     0.062 A 
HETATM   11  C   UNL     1       8.310  31.409  61.082  1.00  0.00     0.101 A 
HETATM   12  C   UNL     1       8.769  31.878  62.410  1.00  0.00     0.091 C 
HETATM   13  N   UNL     1       7.311  32.043  60.386  1.00  0.00    -0.343 N 
HETATM   14  H   UNL     1       6.808  32.863  60.691  1.00  0.00     0.167 HD
HETATM   15  C   UNL     1       6.213  31.551  58.160  1.00  0.00     0.034 A 
HETATM   16  C   UNL     1       6.280  30.621  57.112  1.00  0.00     0.032 A 
ENDBRANCH   3   6
ENDBRANCH   1   2
BRANCH   1  17
HETATM   17  N   UNL     1       7.082  25.470  54.537  1.00  0.00    -0.343 N 
HETATM   18  C   UNL     1       6.541  24.372  53.902  1.00  0.00     0.259 C 
HETATM   19  O   UNL     1       5.460  24.432  53.321  1.00  0.00    -0.267 OA
HETATM   20  H   UNL     1       8.043  25.395  54.843  1.00  0.00     0.163 HD
BRANCH  18  21
HETATM   21  C   UNL     1       7.311  23.138  53.998  1.00  0.00     0.072 A 
HETATM   22  S   UNL     1       7.680  22.397  55.501  1.00  0.00    -0.097 SA
HETATM   23  C   UNL     1       8.472  21.087  54.742  1.00  0.00     0.050 A 
HETATM   24  C   UNL     1       8.474  21.207  53.371  1.00  0.00     0.009 A 
HETATM   25  C   UNL     1       7.805  22.390  52.944  1.00  0.00     0.025 A 
ENDBRANCH  18  21
ENDBRANCH   1  17
BRANCH   1  26
HETATM   26  C   UNL     1       6.913  27.682  53.359  1.00  0.00     0.073 C 
BRANCH  26  27
HETATM   27  C   UNL     1       5.770  28.034  52.428  1.00  0.00    -0.056 A 
HETATM   28  C   UNL     1       4.843  29.025  52.784  1.00  0.00     0.007 A 
HETATM   29  C   UNL     1       3.759  29.310  51.952  1.00  0.00     0.001 A 
HETATM   30  C   UNL     1       3.586  28.605  50.763  1.00  0.00     0.000 A 
HETATM   31  C   UNL     1       4.503  27.622  50.398  1.00  0.00     0.001 A 
HETATM   32  C   UNL     1       5.593  27.342  51.223  1.00  0.00     0.007 A 
ENDBRANCH  26  27
ENDBRANCH   1  26
TORSDOF 6
ENDMDL
MODEL 10
REMARK VINA RESULT:      -8.6      3.709      8.412
REMARK  6 active torsions:
REMARK  status: ('A' for Active; 'I' for Inactive)
REMARK    1  A    between atoms: C_9  and  N_10 
REMARK       I    between atoms: N_10  and  C_11 
REMARK    2  A    between atoms: C_11  and  C_12 
REMARK    3  A    between atoms: C_12  and  N_13 
REMARK    4  A    between atoms: C_12  and  C_21 
REMARK       I    between atoms: N_13  and  C_14 
REMARK    5  A    between atoms: C_14  and  C_15 
REMARK    6  A    between atoms: C_21  and  C_22 
ROOT
HETATM    1  C   UNL     1       6.523  26.538  53.244  1.00  0.00     0.181 C 
ENDROOT
BRANCH   1   2
HETATM    2  C   UNL     1       5.679  27.396  52.252  1.00  0.00     0.245 C 
HETATM    3  N   UNL     1       5.660  26.925  50.947  1.00  0.00    -0.325 N 
HETATM    4  H   UNL     1       6.300  26.185  50.703  1.00  0.00     0.169 HD
HETATM    5  O   UNL     1       4.993  28.331  52.666  1.00  0.00    -0.271 OA
BRANCH   3   6
HETATM    6  C   UNL     1       4.844  27.372  49.879  1.00  0.00     0.037 A 
HETATM    7  C   UNL     1       3.564  26.873  49.610  1.00  0.00     0.063 A 
HETATM    8  C   UNL     1       2.862  27.355  48.492  1.00  0.00     0.087 A 
HETATM    9  N   UNL     1       1.622  27.004  48.015  1.00  0.00    -0.234 NA
HETATM   10  C   UNL     1       3.443  28.325  47.686  1.00  0.00     0.062 A 
HETATM   11  C   UNL     1       1.431  27.738  46.939  1.00  0.00     0.101 A 
HETATM   12  C   UNL     1       0.246  27.720  46.051  1.00  0.00     0.091 C 
HETATM   13  N   UNL     1       2.507  28.560  46.711  1.00  0.00    -0.343 N 
HETATM   14  H   UNL     1       2.597  29.215  45.949  1.00  0.00     0.167 HD
HETATM   15  C   UNL     1       4.706  28.859  47.925  1.00  0.00     0.034 A 
HETATM   16  C   UNL     1       5.396  28.355  49.037  1.00  0.00     0.032 A 
ENDBRANCH   3   6
ENDBRANCH   1   2
BRANCH   1  17
HETATM   17  N   UNL     1       6.995  27.385  54.344  1.00  0.00    -0.343 N 
HETATM   18  C   UNL     1       6.393  27.423  55.584  1.00  0.00     0.259 C 
HETATM   19  O   UNL     1       5.383  26.768  55.829  1.00  0.00    -0.267 OA
HETATM   20  H   UNL     1       7.910  27.809  54.266  1.00  0.00     0.163 HD
BRANCH  18  21
HETATM   21  C   UNL     1       7.006  28.314  56.561  1.00  0.00     0.072 A 
HETATM   22  S   UNL     1       8.632  28.138  57.077  1.00  0.00    -0.097 SA
HETATM   23  C   UNL     1       8.540  29.520  58.079  1.00  0.00     0.050 A 
HETATM   24  C   UNL     1       7.295  30.104  58.039  1.00  0.00     0.009 A 
HETATM   25  C   UNL     1       6.412  29.408  57.165  1.00  0.00     0.025 A 
ENDBRANCH  18  21
ENDBRANCH   1  17
BRANCH   1  26
HETATM   26  C   UNL     1       7.639  25.667  52.628  1.00  0.00     0.073 C 
BRANCH  26  27
HETATM   27  C   UNL     1       7.717  24.299  53.275  1.00  0.00    -0.056 A 
HETATM   28  C   UNL     1       7.924  23.153  52.491  1.00  0.00     0.007 A 
HETATM   29  C   UNL     1       7.940  21.888  53.081  1.00  0.00     0.001 A 
HETATM   30  C   UNL     1       7.741  21.753  54.453  1.00  0.00     0.000 A 
HETATM   31  C   UNL     1       7.538  22.885  55.241  1.00  0.00     0.001 A 
HETATM   32  C   UNL     1       7.532  24.152  54.656  1.00  0.00     0.007 A 
ENDBRANCH  26  27
ENDBRANCH   1  26
TORSDOF 6
ENDMDL
