MODEL 1
REMARK VINA RESULT:     -11.0      0.000      0.000
REMARK  5 active torsions:
REMARK  status: ('A' for Active; 'I' for Inactive)
REMARK    1  A    between atoms: C_2  and  N_3 
REMARK    2  A    between atoms: C_5  and  C_6 
REMARK    3  A    between atoms: C_6  and  C_7 
REMARK       I    between atoms: C_7  and  N_8 
REMARK    4  A    between atoms: N_8  and  C_9 
REMARK    5  A    between atoms: C_16  and  O_17 
ROOT
HETATM    1  C   UNL     1       6.115  25.976  52.781  1.00  0.00     0.224 C 
HETATM    2  N   UNL     1       6.615  26.697  53.840  1.00  0.00    -0.351 N 
HETATM    3  O   UNL     1       5.248  26.392  52.019  1.00  0.00    -0.273 OA
HETATM    4  H   UNL     1       7.100  26.191  54.577  1.00  0.00     0.163 HD
ENDROOT
BRANCH   2   5
HETATM    5  C   UNL     1       6.113  28.016  54.151  1.00  0.00     0.135 C 
HETATM    6  C   UNL     1       7.077  28.680  55.073  1.00  0.00     0.040 A 
HETATM    7  C   UNL     1       6.756  29.466  56.162  1.00  0.00    -0.021 A 
HETATM    8  N   UNL     1       8.439  28.672  54.940  1.00  0.00    -0.357 N 
HETATM    9  C   UNL     1       7.975  29.927  56.731  1.00  0.00     0.002 A 
HETATM   10  C   UNL     1       5.346  29.707  56.587  1.00  0.00     0.042 C 
HETATM   11  C   UNL     1       9.012  29.405  55.955  1.00  0.00     0.043 A 
HETATM   12  C   UNL     1       8.304  30.739  57.835  1.00  0.00     0.051 A 
HETATM   13  C   UNL     1      10.360  29.652  56.238  1.00  0.00     0.033 A 
HETATM   14  C   UNL     1      10.659  30.458  57.345  1.00  0.00     0.039 A 
HETATM   15  C   UNL     1       9.647  31.001  58.139  1.00  0.00     0.069 A 
HETATM   16  C   UNL     1       4.352  29.309  55.476  1.00  0.00     0.007 C 
HETATM   17  C   UNL     1       4.719  27.964  54.818  1.00  0.00     0.032 C 
HETATM   18  H   UNL     1       8.949  28.192  54.212  1.00  0.00     0.166 HD
BRANCH  15  19
HETATM   19  O   UNL     1       9.831  31.804  59.233  1.00  0.00    -0.356 OA
HETATM   20  C   UNL     1       8.718  31.976  60.100  1.00  0.00     0.210 C 
ENDBRANCH  15  19
ENDBRANCH   2   5
BRANCH   1  21
HETATM   21  C   UNL     1       6.753  24.625  52.594  1.00  0.00     0.164 C 
BRANCH  21  22
HETATM   22  C   UNL     1       7.119  23.951  53.895  1.00  0.00     0.075 A 
HETATM   23  N   UNL     1       6.924  24.639  54.977  1.00  0.00    -0.172 NA
HETATM   24  N   UNL     1       7.265  24.099  56.194  1.00  0.00    -0.230 N 
HETATM   25  C   UNL     1       7.909  22.870  56.340  1.00  0.00     0.275 A 
HETATM   26  C   UNL     1       8.082  22.066  55.116  1.00  0.00     0.046 A 
HETATM   27  O   UNL     1       8.324  22.429  57.410  1.00  0.00    -0.266 OA
HETATM   28  C   UNL     1       7.675  22.582  53.890  1.00  0.00     0.006 A 
HETATM   29  C   UNL     1       8.652  20.787  55.191  1.00  0.00     0.018 A 
HETATM   30  C   UNL     1       7.816  21.808  52.732  1.00  0.00     0.014 A 
HETATM   31  C   UNL     1       8.378  20.531  52.809  1.00  0.00     0.001 A 
HETATM   32  C   UNL     1       8.800  20.022  54.035  1.00  0.00     0.001 A 
BRANCH  24  33
HETATM   33  C   UNL     1       7.137  24.981  57.366  1.00  0.00     0.105 C 
HETATM   34  C   UNL     1       5.769  25.663  57.441  1.00  0.00     0.034 C 
HETATM   35  C   UNL     1       8.261  26.019  57.377  1.00  0.00     0.034 C 
ENDBRANCH  24  33
ENDBRANCH  21  22
ENDBRANCH   1  21
TORSDOF 5
ENDMDL
MODEL 2
REMARK VINA RESULT:     -10.7      2.811      5.027
REMARK  5 active torsions:
REMARK  status: ('A' for Active; 'I' for Inactive)
REMARK    1  A    between atoms: C_2  and  N_3 
REMARK    2  A    between atoms: C_5  and  C_6 
REMARK    3  A    between atoms: C_6  and  C_7 
REMARK       I    between atoms: C_7  and  N_8 
REMARK    4  A    between atoms: N_8  and  C_9 
REMARK    5  A    between atoms: C_16  and  O_17 
ROOT
HETATM    1  C   UNL     1       7.745  28.573  57.654  1.00  0.00     0.224 C 
HETATM    2  N   UNL     1       6.600  29.309  57.847  1.00  0.00    -0.351 N 
HETATM    3  O   UNL     1       8.850  29.066  57.447  1.00  0.00    -0.273 OA
HETATM    4  H   UNL     1       5.705  28.844  57.722  1.00  0.00     0.163 HD
ENDROOT
BRANCH   2   5
HETATM    5  C   UNL     1       6.620  30.753  57.784  1.00  0.00     0.135 C 
HETATM    6  C   UNL     1       6.788  31.280  59.168  1.00  0.00     0.040 A 
HETATM    7  C   UNL     1       6.145  32.377  59.707  1.00  0.00    -0.021 A 
HETATM    8  N   UNL     1       7.665  30.799  60.102  1.00  0.00    -0.357 N 
HETATM    9  C   UNL     1       6.629  32.547  61.034  1.00  0.00     0.002 A 
HETATM   10  C   UNL     1       5.127  33.161  58.948  1.00  0.00     0.042 C 
HETATM   11  C   UNL     1       7.569  31.540  61.259  1.00  0.00     0.043 A 
HETATM   12  C   UNL     1       6.360  33.461  62.073  1.00  0.00     0.051 A 
HETATM   13  C   UNL     1       8.244  31.401  62.476  1.00  0.00     0.033 A 
HETATM   14  C   UNL     1       7.954  32.320  63.495  1.00  0.00     0.039 A 
HETATM   15  C   UNL     1       7.025  33.342  63.301  1.00  0.00     0.069 A 
HETATM   16  C   UNL     1       5.183  32.837  57.441  1.00  0.00     0.007 C 
HETATM   17  C   UNL     1       5.321  31.326  57.172  1.00  0.00     0.032 C 
HETATM   18  H   UNL     1       8.283  30.012  59.967  1.00  0.00     0.166 HD
BRANCH  15  19
HETATM   19  O   UNL     1       6.675  34.292  64.224  1.00  0.00    -0.356 OA
HETATM   20  C   UNL     1       6.656  33.890  65.588  1.00  0.00     0.210 C 
ENDBRANCH  15  19
ENDBRANCH   2   5
BRANCH   1  21
HETATM   21  C   UNL     1       7.550  27.084  57.760  1.00  0.00     0.164 C 
BRANCH  21  22
HETATM   22  C   UNL     1       7.101  26.445  56.468  1.00  0.00     0.075 A 
HETATM   23  N   UNL     1       6.395  27.188  55.671  1.00  0.00    -0.172 NA
HETATM   24  N   UNL     1       5.925  26.661  54.492  1.00  0.00    -0.230 N 
HETATM   25  C   UNL     1       6.079  25.322  54.130  1.00  0.00     0.275 A 
HETATM   26  C   UNL     1       6.924  24.493  55.008  1.00  0.00     0.046 A 
HETATM   27  O   UNL     1       5.564  24.811  53.137  1.00  0.00    -0.266 OA
HETATM   28  C   UNL     1       7.458  25.044  56.168  1.00  0.00     0.006 A 
HETATM   29  C   UNL     1       7.189  23.158  54.672  1.00  0.00     0.018 A 
HETATM   30  C   UNL     1       8.282  24.263  56.990  1.00  0.00     0.014 A 
HETATM   31  C   UNL     1       8.550  22.935  56.649  1.00  0.00     0.001 A 
HETATM   32  C   UNL     1       8.000  22.380  55.495  1.00  0.00     0.001 A 
BRANCH  24  33
HETATM   33  C   UNL     1       5.027  27.517  53.699  1.00  0.00     0.105 C 
HETATM   34  C   UNL     1       5.760  28.259  52.580  1.00  0.00     0.034 C 
HETATM   35  C   UNL     1       4.289  28.501  54.609  1.00  0.00     0.034 C 
ENDBRANCH  24  33
ENDBRANCH  21  22
ENDBRANCH   1  21
TORSDOF 5
ENDMDL
MODEL 3
REMARK VINA RESULT:     -10.2      2.514      8.700
REMARK  5 active torsions:
REMARK  status: ('A' for Active; 'I' for Inactive)
REMARK    1  A    between atoms: C_2  and  N_3 
REMARK    2  A    between atoms: C_5  and  C_6 
REMARK    3  A    between atoms: C_6  and  C_7 
REMARK       I    between atoms: C_7  and  N_8 
REMARK    4  A    between atoms: N_8  and  C_9 
REMARK    5  A    between atoms: C_16  and  O_17 
ROOT
HETATM    1  C   UNL     1       7.049  28.582  56.921  1.00  0.00     0.224 C 
HETATM    2  N   UNL     1       7.409  28.375  55.610  1.00  0.00    -0.351 N 
HETATM    3  O   UNL     1       6.083  28.049  57.457  1.00  0.00    -0.273 OA
HETATM    4  H   UNL     1       8.023  29.055  55.169  1.00  0.00     0.163 HD
ENDROOT
BRANCH   2   5
HETATM    5  C   UNL     1       6.630  27.516  54.747  1.00  0.00     0.135 C 
HETATM    6  C   UNL     1       7.147  26.125  54.879  1.00  0.00     0.040 A 
HETATM    7  C   UNL     1       7.312  25.215  53.855  1.00  0.00    -0.021 A 
HETATM    8  N   UNL     1       7.471  25.506  56.056  1.00  0.00    -0.357 N 
HETATM    9  C   UNL     1       7.788  24.004  54.430  1.00  0.00     0.002 A 
HETATM   10  C   UNL     1       7.029  25.554  52.429  1.00  0.00     0.042 C 
HETATM   11  C   UNL     1       7.890  24.218  55.806  1.00  0.00     0.043 A 
HETATM   12  C   UNL     1       8.146  22.741  53.917  1.00  0.00     0.051 A 
HETATM   13  C   UNL     1       8.341  23.230  56.689  1.00  0.00     0.033 A 
HETATM   14  C   UNL     1       8.695  21.985  56.151  1.00  0.00     0.039 A 
HETATM   15  C   UNL     1       8.599  21.735  54.781  1.00  0.00     0.069 A 
HETATM   16  C   UNL     1       6.200  26.850  52.318  1.00  0.00     0.007 C 
HETATM   17  C   UNL     1       6.710  27.953  53.267  1.00  0.00     0.032 C 
HETATM   18  H   UNL     1       7.421  25.932  56.971  1.00  0.00     0.166 HD
BRANCH  15  19
HETATM   19  O   UNL     1       8.912  20.556  54.158  1.00  0.00    -0.356 OA
HETATM   20  C   UNL     1       8.421  20.376  52.836  1.00  0.00     0.210 C 
ENDBRANCH  15  19
ENDBRANCH   2   5
BRANCH   1  21
HETATM   21  C   UNL     1       7.973  29.498  57.680  1.00  0.00     0.164 C 
BRANCH  21  22
HETATM   22  C   UNL     1       7.247  30.564  58.464  1.00  0.00     0.075 A 
HETATM   23  N   UNL     1       6.160  31.034  57.932  1.00  0.00    -0.172 NA
HETATM   24  N   UNL     1       5.467  32.031  58.576  1.00  0.00    -0.230 N 
HETATM   25  C   UNL     1       5.913  32.652  59.743  1.00  0.00     0.275 A 
HETATM   26  C   UNL     1       7.117  32.083  60.375  1.00  0.00     0.046 A 
HETATM   27  O   UNL     1       5.364  33.621  60.264  1.00  0.00    -0.266 OA
HETATM   28  C   UNL     1       7.784  31.028  59.760  1.00  0.00     0.006 A 
HETATM   29  C   UNL     1       7.586  32.603  61.590  1.00  0.00     0.018 A 
HETATM   30  C   UNL     1       8.913  30.471  60.373  1.00  0.00     0.014 A 
HETATM   31  C   UNL     1       9.375  30.986  61.587  1.00  0.00     0.001 A 
HETATM   32  C   UNL     1       8.715  32.054  62.193  1.00  0.00     0.001 A 
BRANCH  24  33
HETATM   33  C   UNL     1       4.318  32.604  57.857  1.00  0.00     0.105 C 
HETATM   34  C   UNL     1       3.466  31.538  57.165  1.00  0.00     0.034 C 
HETATM   35  C   UNL     1       4.790  33.657  56.852  1.00  0.00     0.034 C 
ENDBRANCH  24  33
ENDBRANCH  21  22
ENDBRANCH   1  21
TORSDOF 5
ENDMDL
MODEL 4
REMARK VINA RESULT:     -10.1      2.939      4.006
REMARK  5 active torsions:
REMARK  status: ('A' for Active; 'I' for Inactive)
REMARK    1  A    between atoms: C_2  and  N_3 
REMARK    2  A    between atoms: C_5  and  C_6 
REMARK    3  A    between atoms: C_6  and  C_7 
REMARK       I    between atoms: C_7  and  N_8 
REMARK    4  A    between atoms: N_8  and  C_9 
REMARK    5  A    between atoms: C_16  and  O_17 
ROOT
HETATM    1  C   UNL     1       6.828  25.596  52.218  1.00  0.00     0.224 C 
HETATM    2  N   UNL     1       5.745  26.436  52.105  1.00  0.00    -0.351 N 
HETATM    3  O   UNL     1       7.995  25.968  52.137  1.00  0.00    -0.273 OA
HETATM    4  H   UNL     1       4.840  26.024  51.894  1.00  0.00     0.163 HD
ENDROOT
BRANCH   2   5
HETATM    5  C   UNL     1       5.918  27.847  51.845  1.00  0.00     0.135 C 
HETATM    6  C   UNL     1       5.160  28.611  52.877  1.00  0.00     0.040 A 
HETATM    7  C   UNL     1       4.413  29.751  52.663  1.00  0.00    -0.021 A 
HETATM    8  N   UNL     1       5.148  28.338  54.218  1.00  0.00    -0.357 N 
HETATM    9  C   UNL     1       3.899  30.169  53.922  1.00  0.00     0.002 A 
HETATM   10  C   UNL     1       4.228  30.345  51.306  1.00  0.00     0.042 C 
HETATM   11  C   UNL     1       4.364  29.260  54.875  1.00  0.00     0.043 A 
HETATM   12  C   UNL     1       3.080  31.232  54.350  1.00  0.00     0.051 A 
HETATM   13  C   UNL     1       4.041  29.363  56.232  1.00  0.00     0.033 A 
HETATM   14  C   UNL     1       3.219  30.428  56.630  1.00  0.00     0.039 A 
HETATM   15  C   UNL     1       2.743  31.358  55.705  1.00  0.00     0.069 A 
HETATM   16  C   UNL     1       5.250  29.772  50.302  1.00  0.00     0.007 C 
HETATM   17  C   UNL     1       5.411  28.245  50.440  1.00  0.00     0.032 C 
HETATM   18  H   UNL     1       5.633  27.569  54.659  1.00  0.00     0.166 HD
BRANCH  15  19
HETATM   19  O   UNL     1       1.944  32.433  55.989  1.00  0.00    -0.356 OA
HETATM   20  C   UNL     1       1.147  32.943  54.928  1.00  0.00     0.210 C 
ENDBRANCH  15  19
ENDBRANCH   2   5
BRANCH   1  21
HETATM   21  C   UNL     1       6.472  24.160  52.496  1.00  0.00     0.164 C 
BRANCH  21  22
HETATM   22  C   UNL     1       6.915  23.686  53.860  1.00  0.00     0.075 A 
HETATM   23  N   UNL     1       6.654  24.474  54.858  1.00  0.00    -0.172 NA
HETATM   24  N   UNL     1       7.059  24.120  56.123  1.00  0.00    -0.230 N 
HETATM   25  C   UNL     1       7.832  22.993  56.400  1.00  0.00     0.275 A 
HETATM   26  C   UNL     1       8.083  22.073  55.276  1.00  0.00     0.046 A 
HETATM   27  O   UNL     1       8.298  22.728  57.506  1.00  0.00    -0.266 OA
HETATM   28  C   UNL     1       7.616  22.394  54.006  1.00  0.00     0.006 A 
HETATM   29  C   UNL     1       8.788  20.879  55.489  1.00  0.00     0.018 A 
HETATM   30  C   UNL     1       7.833  21.508  52.943  1.00  0.00     0.014 A 
HETATM   31  C   UNL     1       8.530  20.316  53.159  1.00  0.00     0.001 A 
HETATM   32  C   UNL     1       9.012  20.004  54.428  1.00  0.00     0.001 A 
BRANCH  24  33
HETATM   33  C   UNL     1       6.842  25.116  57.186  1.00  0.00     0.105 C 
HETATM   34  C   UNL     1       5.475  25.794  57.087  1.00  0.00     0.034 C 
HETATM   35  C   UNL     1       7.965  26.157  57.177  1.00  0.00     0.034 C 
ENDBRANCH  24  33
ENDBRANCH  21  22
ENDBRANCH   1  21
TORSDOF 5
ENDMDL
MODEL 5
REMARK VINA RESULT:     -10.0      3.525      5.772
REMARK  5 active torsions:
REMARK  status: ('A' for Active; 'I' for Inactive)
REMARK    1  A    between atoms: C_2  and  N_3 
REMARK    2  A    between atoms: C_5  and  C_6 
REMARK    3  A    between atoms: C_6  and  C_7 
REMARK       I    between atoms: C_7  and  N_8 
REMARK    4  A    between atoms: N_8  and  C_9 
REMARK    5  A    between atoms: C_16  and  O_17 
ROOT
HETATM    1  C   UNL     1       5.638  25.112  52.418  1.00  0.00     0.224 C 
HETATM    2  N   UNL     1       5.774  26.409  52.858  1.00  0.00    -0.351 N 
HETATM    3  O   UNL     1       4.594  24.646  51.973  1.00  0.00    -0.273 OA
HETATM    4  H   UNL     1       6.557  26.628  53.466  1.00  0.00     0.163 HD
ENDROOT
BRANCH   2   5
HETATM    5  C   UNL     1       4.653  27.321  52.851  1.00  0.00     0.135 C 
HETATM    6  C   UNL     1       4.653  28.054  51.553  1.00  0.00     0.040 A 
HETATM    7  C   UNL     1       4.373  29.393  51.372  1.00  0.00    -0.021 A 
HETATM    8  N   UNL     1       4.859  27.491  50.322  1.00  0.00    -0.357 N 
HETATM    9  C   UNL     1       4.446  29.661  49.977  1.00  0.00     0.002 A 
HETATM   10  C   UNL     1       4.080  30.311  52.511  1.00  0.00     0.042 C 
HETATM   11  C   UNL     1       4.764  28.457  49.345  1.00  0.00     0.043 A 
HETATM   12  C   UNL     1       4.275  30.812  49.182  1.00  0.00     0.051 A 
HETATM   13  C   UNL     1       4.925  28.355  47.959  1.00  0.00     0.033 A 
HETATM   14  C   UNL     1       4.754  29.517  47.193  1.00  0.00     0.039 A 
HETATM   15  C   UNL     1       4.430  30.736  47.791  1.00  0.00     0.069 A 
HETATM   16  C   UNL     1       3.758  29.520  53.796  1.00  0.00     0.007 C 
HETATM   17  C   UNL     1       4.725  28.338  54.012  1.00  0.00     0.032 C 
HETATM   18  H   UNL     1       5.061  26.515  50.155  1.00  0.00     0.166 HD
BRANCH  15  19
HETATM   19  O   UNL     1       4.235  31.923  47.136  1.00  0.00    -0.356 OA
HETATM   20  C   UNL     1       4.801  32.043  45.838  1.00  0.00     0.210 C 
ENDBRANCH  15  19
ENDBRANCH   2   5
BRANCH   1  21
HETATM   21  C   UNL     1       6.904  24.300  52.487  1.00  0.00     0.164 C 
BRANCH  21  22
HETATM   22  C   UNL     1       7.225  23.806  53.877  1.00  0.00     0.075 A 
HETATM   23  N   UNL     1       6.980  24.627  54.852  1.00  0.00    -0.172 NA
HETATM   24  N   UNL     1       7.278  24.256  56.142  1.00  0.00    -0.230 N 
HETATM   25  C   UNL     1       7.930  23.067  56.471  1.00  0.00     0.275 A 
HETATM   26  C   UNL     1       8.160  22.113  55.371  1.00  0.00     0.046 A 
HETATM   27  O   UNL     1       8.306  22.776  57.605  1.00  0.00    -0.266 OA
HETATM   28  C   UNL     1       7.796  22.458  54.073  1.00  0.00     0.006 A 
HETATM   29  C   UNL     1       8.740  20.864  55.634  1.00  0.00     0.018 A 
HETATM   30  C   UNL     1       7.991  21.542  53.032  1.00  0.00     0.014 A 
HETATM   31  C   UNL     1       8.564  20.295  53.298  1.00  0.00     0.001 A 
HETATM   32  C   UNL     1       8.943  19.958  54.595  1.00  0.00     0.001 A 
BRANCH  24  33
HETATM   33  C   UNL     1       7.093  25.281  57.182  1.00  0.00     0.105 C 
HETATM   34  C   UNL     1       5.740  25.987  57.077  1.00  0.00     0.034 C 
HETATM   35  C   UNL     1       8.238  26.295  57.139  1.00  0.00     0.034 C 
ENDBRANCH  24  33
ENDBRANCH  21  22
ENDBRANCH   1  21
TORSDOF 5
ENDMDL
MODEL 6
REMARK VINA RESULT:      -9.8      2.599      5.136
REMARK  5 active torsions:
REMARK  status: ('A' for Active; 'I' for Inactive)
REMARK    1  A    between atoms: C_2  and  N_3 
REMARK    2  A    between atoms: C_5  and  C_6 
REMARK    3  A    between atoms: C_6  and  C_7 
REMARK       I    between atoms: C_7  and  N_8 
REMARK    4  A    between atoms: N_8  and  C_9 
REMARK    5  A    between atoms: C_16  and  O_17 
ROOT
HETATM    1  C   UNL     1       5.982  25.625  57.228  1.00  0.00     0.224 C 
HETATM    2  N   UNL     1       6.611  26.847  57.175  1.00  0.00    -0.351 N 
HETATM    3  O   UNL     1       4.781  25.482  57.436  1.00  0.00    -0.273 OA
HETATM    4  H   UNL     1       7.620  26.871  57.290  1.00  0.00     0.163 HD
ENDROOT
BRANCH   2   5
HETATM    5  C   UNL     1       5.880  28.074  57.399  1.00  0.00     0.135 C 
HETATM    6  C   UNL     1       5.238  28.478  56.116  1.00  0.00     0.040 A 
HETATM    7  C   UNL     1       5.141  29.763  55.621  1.00  0.00    -0.021 A 
HETATM    8  N   UNL     1       4.576  27.640  55.261  1.00  0.00    -0.357 N 
HETATM    9  C   UNL     1       4.419  29.697  54.397  1.00  0.00     0.002 A 
HETATM   10  C   UNL     1       5.742  30.937  56.319  1.00  0.00     0.042 C 
HETATM   11  C   UNL     1       4.088  28.356  54.190  1.00  0.00     0.043 A 
HETATM   12  C   UNL     1       4.011  30.646  53.439  1.00  0.00     0.051 A 
HETATM   13  C   UNL     1       3.377  27.923  53.065  1.00  0.00     0.033 A 
HETATM   14  C   UNL     1       2.989  28.888  52.125  1.00  0.00     0.039 A 
HETATM   15  C   UNL     1       3.297  30.237  52.305  1.00  0.00     0.069 A 
HETATM   16  C   UNL     1       6.113  30.591  57.776  1.00  0.00     0.007 C 
HETATM   17  C   UNL     1       6.800  29.215  57.892  1.00  0.00     0.032 C 
HETATM   18  H   UNL     1       4.469  26.644  55.389  1.00  0.00     0.166 HD
BRANCH  15  19
HETATM   19  O   UNL     1       2.959  31.256  51.454  1.00  0.00    -0.356 OA
HETATM   20  C   UNL     1       2.189  30.911  50.309  1.00  0.00     0.210 C 
ENDBRANCH  15  19
ENDBRANCH   2   5
BRANCH   1  21
HETATM   21  C   UNL     1       6.887  24.451  56.964  1.00  0.00     0.164 C 
BRANCH  21  22
HETATM   22  C   UNL     1       7.275  24.308  55.512  1.00  0.00     0.075 A 
HETATM   23  N   UNL     1       7.313  25.402  54.814  1.00  0.00    -0.172 NA
HETATM   24  N   UNL     1       7.627  25.342  53.477  1.00  0.00    -0.230 N 
HETATM   25  C   UNL     1       7.820  24.147  52.783  1.00  0.00     0.275 A 
HETATM   26  C   UNL     1       7.829  22.911  53.585  1.00  0.00     0.046 A 
HETATM   27  O   UNL     1       7.985  24.074  51.567  1.00  0.00    -0.266 OA
HETATM   28  C   UNL     1       7.579  22.976  54.952  1.00  0.00     0.006 A 
HETATM   29  C   UNL     1       8.092  21.678  52.972  1.00  0.00     0.018 A 
HETATM   30  C   UNL     1       7.613  21.804  55.719  1.00  0.00     0.014 A 
HETATM   31  C   UNL     1       7.882  20.577  55.107  1.00  0.00     0.001 A 
HETATM   32  C   UNL     1       8.116  20.512  53.735  1.00  0.00     0.001 A 
BRANCH  24  33
HETATM   33  C   UNL     1       7.526  26.600  52.720  1.00  0.00     0.105 C 
HETATM   34  C   UNL     1       7.641  27.836  53.615  1.00  0.00     0.034 C 
HETATM   35  C   UNL     1       6.226  26.634  51.914  1.00  0.00     0.034 C 
ENDBRANCH  24  33
ENDBRANCH  21  22
ENDBRANCH   1  21
TORSDOF 5
ENDMDL
MODEL 7
REMARK VINA RESULT:      -9.7      2.543      8.195
REMARK  5 active torsions:
REMARK  status: ('A' for Active; 'I' for Inactive)
REMARK    1  A    between atoms: C_2  and  N_3 
REMARK    2  A    between atoms: C_5  and  C_6 
REMARK    3  A    between atoms: C_6  and  C_7 
REMARK       I    between atoms: C_7  and  N_8 
REMARK    4  A    between atoms: N_8  and  C_9 
REMARK    5  A    between atoms: C_16  and  O_17 
ROOT
HETATM    1  C   UNL     1       4.373  31.173  57.192  1.00  0.00     0.224 C 
HETATM    2  N   UNL     1       4.834  30.568  56.047  1.00  0.00    -0.351 N 
HETATM    3  O   UNL     1       3.349  30.837  57.779  1.00  0.00    -0.273 OA
HETATM    4  H   UNL     1       5.503  31.075  55.474  1.00  0.00     0.163 HD
ENDROOT
BRANCH   2   5
HETATM    5  C   UNL     1       4.104  29.486  55.426  1.00  0.00     0.135 C 
HETATM    6  C   UNL     1       4.891  28.232  55.594  1.00  0.00     0.040 A 
HETATM    7  C   UNL     1       5.059  27.241  54.648  1.00  0.00    -0.021 A 
HETATM    8  N   UNL     1       5.514  27.832  56.745  1.00  0.00    -0.357 N 
HETATM    9  C   UNL     1       5.844  26.213  55.239  1.00  0.00     0.002 A 
HETATM   10  C   UNL     1       4.490  27.343  53.272  1.00  0.00     0.042 C 
HETATM   11  C   UNL     1       6.125  26.613  56.547  1.00  0.00     0.043 A 
HETATM   12  C   UNL     1       6.348  24.975  54.792  1.00  0.00     0.051 A 
HETATM   13  C   UNL     1       6.892  25.837  57.422  1.00  0.00     0.033 A 
HETATM   14  C   UNL     1       7.385  24.613  56.950  1.00  0.00     0.039 A 
HETATM   15  C   UNL     1       7.118  24.179  55.651  1.00  0.00     0.069 A 
HETATM   16  C   UNL     1       3.422  28.454  53.191  1.00  0.00     0.007 C 
HETATM   17  C   UNL     1       3.859  29.739  53.921  1.00  0.00     0.032 C 
HETATM   18  H   UNL     1       5.532  28.356  57.609  1.00  0.00     0.166 HD
BRANCH  15  19
HETATM   19  O   UNL     1       7.545  23.002  55.096  1.00  0.00    -0.356 OA
HETATM   20  C   UNL     1       8.169  23.079  53.821  1.00  0.00     0.210 C 
ENDBRANCH  15  19
ENDBRANCH   2   5
BRANCH   1  21
HETATM   21  C   UNL     1       5.257  32.276  57.710  1.00  0.00     0.164 C 
BRANCH  21  22
HETATM   22  C   UNL     1       6.417  31.776  58.537  1.00  0.00     0.075 A 
HETATM   23  N   UNL     1       7.330  31.105  57.904  1.00  0.00    -0.172 NA
HETATM   24  N   UNL     1       8.398  30.591  58.602  1.00  0.00    -0.230 N 
HETATM   25  C   UNL     1       8.520  30.663  59.990  1.00  0.00     0.275 A 
HETATM   26  C   UNL     1       7.512  31.469  60.700  1.00  0.00     0.046 A 
HETATM   27  O   UNL     1       9.407  30.108  60.635  1.00  0.00    -0.266 OA
HETATM   28  C   UNL     1       6.466  32.048  59.988  1.00  0.00     0.006 A 
HETATM   29  C   UNL     1       7.609  31.652  62.087  1.00  0.00     0.018 A 
HETATM   30  C   UNL     1       5.522  32.835  60.659  1.00  0.00     0.014 A 
HETATM   31  C   UNL     1       5.625  33.022  62.041  1.00  0.00     0.001 A 
HETATM   32  C   UNL     1       6.663  32.427  62.755  1.00  0.00     0.001 A 
BRANCH  24  33
HETATM   33  C   UNL     1       9.327  29.735  57.846  1.00  0.00     0.105 C 
HETATM   34  C   UNL     1      10.658  30.429  57.550  1.00  0.00     0.034 C 
HETATM   35  C   UNL     1       8.670  29.249  56.552  1.00  0.00     0.034 C 
ENDBRANCH  24  33
ENDBRANCH  21  22
ENDBRANCH   1  21
TORSDOF 5
ENDMDL
MODEL 8
REMARK VINA RESULT:      -9.6      4.200      6.965
REMARK  5 active torsions:
REMARK  status: ('A' for Active; 'I' for Inactive)
REMARK    1  A    between atoms: C_2  and  N_3 
REMARK    2  A    between atoms: C_5  and  C_6 
REMARK    3  A    between atoms: C_6  and  C_7 
REMARK       I    between atoms: C_7  and  N_8 
REMARK    4  A    between atoms: N_8  and  C_9 
REMARK    5  A    between atoms: C_16  and  O_17 
ROOT
HETATM    1  C   UNL     1       5.493  25.517  51.848  1.00  0.00     0.224 C 
HETATM    2  N   UNL     1       4.446  25.731  50.982  1.00  0.00    -0.351 N 
HETATM    3  O   UNL     1       6.674  25.583  51.523  1.00  0.00    -0.273 OA
HETATM    4  H   UNL     1       3.529  25.380  51.244  1.00  0.00     0.163 HD
ENDROOT
BRANCH   2   5
HETATM    5  C   UNL     1       4.679  26.026  49.586  1.00  0.00     0.135 C 
HETATM    6  C   UNL     1       4.751  27.506  49.426  1.00  0.00     0.040 A 
HETATM    7  C   UNL     1       4.211  28.242  48.390  1.00  0.00    -0.021 A 
HETATM    8  N   UNL     1       5.432  28.363  50.248  1.00  0.00    -0.357 N 
HETATM    9  C   UNL     1       4.550  29.605  48.611  1.00  0.00     0.002 A 
HETATM   10  C   UNL     1       3.414  27.616  47.295  1.00  0.00     0.042 C 
HETATM   11  C   UNL     1       5.303  29.654  49.786  1.00  0.00     0.043 A 
HETATM   12  C   UNL     1       4.291  30.810  47.928  1.00  0.00     0.051 A 
HETATM   13  C   UNL     1       5.800  30.852  50.311  1.00  0.00     0.033 A 
HETATM   14  C   UNL     1       5.522  32.037  49.614  1.00  0.00     0.039 A 
HETATM   15  C   UNL     1       4.778  32.023  48.434  1.00  0.00     0.069 A 
HETATM   16  C   UNL     1       3.605  26.086  47.269  1.00  0.00     0.007 C 
HETATM   17  C   UNL     1       3.559  25.467  48.680  1.00  0.00     0.032 C 
HETATM   18  H   UNL     1       5.944  28.091  51.075  1.00  0.00     0.166 HD
BRANCH  15  19
HETATM   19  O   UNL     1       4.459  33.119  47.676  1.00  0.00    -0.356 OA
HETATM   20  C   UNL     1       3.082  33.466  47.593  1.00  0.00     0.210 C 
ENDBRANCH  15  19
ENDBRANCH   2   5
BRANCH   1  21
HETATM   21  C   UNL     1       5.075  25.229  53.266  1.00  0.00     0.164 C 
BRANCH  21  22
HETATM   22  C   UNL     1       6.227  24.849  54.165  1.00  0.00     0.075 A 
HETATM   23  N   UNL     1       6.763  23.685  53.956  1.00  0.00    -0.172 NA
HETATM   24  N   UNL     1       7.795  23.261  54.759  1.00  0.00    -0.230 N 
HETATM   25  C   UNL     1       8.253  23.974  55.868  1.00  0.00     0.275 A 
HETATM   26  C   UNL     1       7.681  25.317  56.072  1.00  0.00     0.046 A 
HETATM   27  O   UNL     1       9.093  23.553  56.661  1.00  0.00    -0.266 OA
HETATM   28  C   UNL     1       6.684  25.777  55.219  1.00  0.00     0.006 A 
HETATM   29  C   UNL     1       8.144  26.125  57.120  1.00  0.00     0.018 A 
HETATM   30  C   UNL     1       6.159  27.063  55.398  1.00  0.00     0.014 A 
HETATM   31  C   UNL     1       6.626  27.870  56.439  1.00  0.00     0.001 A 
HETATM   32  C   UNL     1       7.614  27.401  57.302  1.00  0.00     0.001 A 
BRANCH  24  33
HETATM   33  C   UNL     1       8.268  21.883  54.550  1.00  0.00     0.105 C 
HETATM   34  C   UNL     1       8.046  21.397  53.117  1.00  0.00     0.034 C 
HETATM   35  C   UNL     1       7.608  20.935  55.553  1.00  0.00     0.034 C 
ENDBRANCH  24  33
ENDBRANCH  21  22
ENDBRANCH   1  21
TORSDOF 5
ENDMDL
MODEL 9
REMARK VINA RESULT:      -9.5      4.130     10.444
REMARK  5 active torsions:
REMARK  status: ('A' for Active; 'I' for Inactive)
REMARK    1  A    between atoms: C_2  and  N_3 
REMARK    2  A    between atoms: C_5  and  C_6 
REMARK    3  A    between atoms: C_6  and  C_7 
REMARK       I    between atoms: C_7  and  N_8 
REMARK    4  A    between atoms: N_8  and  C_9 
REMARK    5  A    between atoms: C_16  and  O_17 
ROOT
HETATM    1  C   UNL     1       8.562  31.830  60.334  1.00  0.00     0.224 C 
HETATM    2  N   UNL     1       8.331  30.656  59.654  1.00  0.00    -0.351 N 
HETATM    3  O   UNL     1       9.085  32.820  59.831  1.00  0.00    -0.273 OA
HETATM    4  H   UNL     1       8.172  29.813  60.198  1.00  0.00     0.163 HD
ENDROOT
BRANCH   2   5
HETATM    5  C   UNL     1       8.730  30.501  58.274  1.00  0.00     0.135 C 
HETATM    6  C   UNL     1       8.085  29.270  57.735  1.00  0.00     0.040 A 
HETATM    7  C   UNL     1       8.669  28.344  56.895  1.00  0.00    -0.021 A 
HETATM    8  N   UNL     1       6.781  28.904  57.933  1.00  0.00    -0.357 N 
HETATM    9  C   UNL     1       7.689  27.357  56.598  1.00  0.00     0.002 A 
HETATM   10  C   UNL     1      10.091  28.447  56.455  1.00  0.00     0.042 C 
HETATM   11  C   UNL     1       6.521  27.725  57.270  1.00  0.00     0.043 A 
HETATM   12  C   UNL     1       7.675  26.181  55.822  1.00  0.00     0.051 A 
HETATM   13  C   UNL     1       5.347  26.967  57.207  1.00  0.00     0.033 A 
HETATM   14  C   UNL     1       5.364  25.798  56.433  1.00  0.00     0.039 A 
HETATM   15  C   UNL     1       6.511  25.404  55.743  1.00  0.00     0.069 A 
HETATM   16  C   UNL     1      10.660  29.855  56.730  1.00  0.00     0.007 C 
HETATM   17  C   UNL     1      10.264  30.383  58.122  1.00  0.00     0.032 C 
HETATM   18  H   UNL     1       6.112  29.416  58.490  1.00  0.00     0.166 HD
BRANCH  15  19
HETATM   19  O   UNL     1       6.630  24.289  54.957  1.00  0.00    -0.356 OA
HETATM   20  C   UNL     1       7.474  24.391  53.818  1.00  0.00     0.210 C 
ENDBRANCH  15  19
ENDBRANCH   2   5
BRANCH   1  21
HETATM   21  C   UNL     1       8.079  31.825  61.760  1.00  0.00     0.164 C 
BRANCH  21  22
HETATM   22  C   UNL     1       6.859  32.688  61.981  1.00  0.00     0.075 A 
HETATM   23  N   UNL     1       6.075  32.852  60.960  1.00  0.00    -0.172 NA
HETATM   24  N   UNL     1       4.964  33.652  61.082  1.00  0.00    -0.230 N 
HETATM   25  C   UNL     1       4.667  34.393  62.226  1.00  0.00     0.275 A 
HETATM   26  C   UNL     1       5.528  34.166  63.401  1.00  0.00     0.046 A 
HETATM   27  O   UNL     1       3.744  35.201  62.307  1.00  0.00    -0.266 OA
HETATM   28  C   UNL     1       6.615  33.303  63.302  1.00  0.00     0.006 A 
HETATM   29  C   UNL     1       5.250  34.816  64.612  1.00  0.00     0.018 A 
HETATM   30  C   UNL     1       7.418  33.068  64.425  1.00  0.00     0.014 A 
HETATM   31  C   UNL     1       7.135  33.712  65.633  1.00  0.00     0.001 A 
HETATM   32  C   UNL     1       6.056  34.588  65.726  1.00  0.00     0.001 A 
BRANCH  24  33
HETATM   33  C   UNL     1       4.190  33.896  59.853  1.00  0.00     0.105 C 
HETATM   34  C   UNL     1       2.828  33.200  59.869  1.00  0.00     0.034 C 
HETATM   35  C   UNL     1       4.998  33.477  58.623  1.00  0.00     0.034 C 
ENDBRANCH  24  33
ENDBRANCH  21  22
ENDBRANCH   1  21
TORSDOF 5
ENDMDL
MODEL 10
REMARK VINA RESULT:      -9.4      4.048      9.995
REMARK  5 active torsions:
REMARK  status: ('A' for Active; 'I' for Inactive)
REMARK    1  A    between atoms: C_2  and  N_3 
REMARK    2  A    between atoms: C_5  and  C_6 
REMARK    3  A    between atoms: C_6  and  C_7 
REMARK       I    between atoms: C_7  and  N_8 
REMARK    4  A    between atoms: N_8  and  C_9 
REMARK    5  A    between atoms: C_16  and  O_17 
ROOT
HETATM    1  C   UNL     1       5.673  32.029  58.576  1.00  0.00     0.224 C 
HETATM    2  N   UNL     1       6.301  30.807  58.649  1.00  0.00    -0.351 N 
HETATM    3  O   UNL     1       5.862  32.842  57.677  1.00  0.00    -0.273 OA
HETATM    4  H   UNL     1       6.316  30.331  59.546  1.00  0.00     0.163 HD
ENDROOT
BRANCH   2   5
HETATM    5  C   UNL     1       7.275  30.407  57.659  1.00  0.00     0.135 C 
HETATM    6  C   UNL     1       6.571  29.644  56.590  1.00  0.00     0.040 A 
HETATM    7  C   UNL     1       7.037  28.510  55.955  1.00  0.00    -0.021 A 
HETATM    8  N   UNL     1       5.378  29.994  56.018  1.00  0.00    -0.357 N 
HETATM    9  C   UNL     1       6.070  28.139  54.979  1.00  0.00     0.002 A 
HETATM   10  C   UNL     1       8.330  27.862  56.320  1.00  0.00     0.042 C 
HETATM   11  C   UNL     1       5.038  29.076  55.049  1.00  0.00     0.043 A 
HETATM   12  C   UNL     1       5.967  27.094  54.040  1.00  0.00     0.051 A 
HETATM   13  C   UNL     1       3.906  29.011  54.228  1.00  0.00     0.033 A 
HETATM   14  C   UNL     1       3.827  27.957  53.306  1.00  0.00     0.039 A 
HETATM   15  C   UNL     1       4.844  27.007  53.206  1.00  0.00     0.069 A 
HETATM   16  C   UNL     1       9.204  28.803  57.174  1.00  0.00     0.007 C 
HETATM   17  C   UNL     1       8.391  29.525  58.266  1.00  0.00     0.032 C 
HETATM   18  H   UNL     1       4.824  30.799  56.274  1.00  0.00     0.166 HD
BRANCH  15  19
HETATM   19  O   UNL     1       4.867  25.948  52.338  1.00  0.00    -0.356 OA
HETATM   20  C   UNL     1       5.179  26.234  50.980  1.00  0.00     0.210 C 
ENDBRANCH  15  19
ENDBRANCH   2   5
BRANCH   1  21
HETATM   21  C   UNL     1       4.683  32.284  59.681  1.00  0.00     0.164 C 
BRANCH  21  22
HETATM   22  C   UNL     1       5.334  32.575  61.012  1.00  0.00     0.075 A 
HETATM   23  N   UNL     1       6.583  32.243  61.129  1.00  0.00    -0.172 NA
HETATM   24  N   UNL     1       7.229  32.450  62.325  1.00  0.00    -0.230 N 
HETATM   25  C   UNL     1       6.592  32.914  63.477  1.00  0.00     0.275 A 
HETATM   26  C   UNL     1       5.189  33.339  63.329  1.00  0.00     0.046 A 
HETATM   27  O   UNL     1       7.130  32.992  64.580  1.00  0.00    -0.266 OA
HETATM   28  C   UNL     1       4.551  33.195  62.101  1.00  0.00     0.006 A 
HETATM   29  C   UNL     1       4.503  33.888  64.422  1.00  0.00     0.018 A 
HETATM   30  C   UNL     1       3.226  33.622  61.954  1.00  0.00     0.014 A 
HETATM   31  C   UNL     1       2.546  34.175  63.043  1.00  0.00     0.001 A 
HETATM   32  C   UNL     1       3.180  34.303  64.276  1.00  0.00     0.001 A 
BRANCH  24  33
HETATM   33  C   UNL     1       8.605  31.935  62.427  1.00  0.00     0.105 C 
HETATM   34  C   UNL     1       9.444  32.253  61.189  1.00  0.00     0.034 C 
HETATM   35  C   UNL     1       8.591  30.430  62.702  1.00  0.00     0.034 C 
ENDBRANCH  24  33
ENDBRANCH  21  22
ENDBRANCH   1  21
TORSDOF 5
ENDMDL
