MODEL 1
REMARK VINA RESULT:      -8.6      0.000      0.000
REMARK  5 active torsions:
REMARK  status: ('A' for Active; 'I' for Inactive)
REMARK    1  A    between atoms: C_2  and  N_3 
REMARK       I    between atoms: N_3  and  C_4 
REMARK    2  A    between atoms: C_4  and  C_5 
REMARK    3  A    between atoms: N_8  and  C_10 
REMARK    4  A    between atoms: C_10  and  C_11 
REMARK    5  A    between atoms: C_12  and  C_13 
ROOT
HETATM    1  C   UNL     1       5.136  27.001  52.556  1.00  0.00     0.081 C 
HETATM    2  C   UNL     1       6.566  27.179  53.065  1.00  0.00     0.042 C 
HETATM    3  C   UNL     1       7.491  26.072  52.568  1.00  0.00     0.236 C 
HETATM    4  N   UNL     1       6.958  24.724  52.991  1.00  0.00    -0.067 N 
HETATM    5  H   UNL     1       6.946  24.716  54.016  1.00  0.00     0.280 HD
HETATM    6  C   UNL     1       5.550  24.472  52.499  1.00  0.00     0.236 C 
HETATM    7  C   UNL     1       4.618  25.604  52.912  1.00  0.00     0.042 C 
ENDROOT
BRANCH   4   8
HETATM    8  C   UNL     1       7.864  23.577  52.556  1.00  0.00     0.277 C 
BRANCH   8   9
HETATM    9  C   UNL     1       7.920  22.442  53.514  1.00  0.00     0.016 A 
HETATM   10  C   UNL     1       7.856  22.459  54.948  1.00  0.00     0.096 A 
HETATM   11  N   UNL     1       7.907  21.209  55.429  1.00  0.00    -0.174 NA
HETATM   12  N   UNL     1       7.940  20.411  54.362  1.00  0.00    -0.288 N 
HETATM   13  H   UNL     1       7.942  19.404  54.512  1.00  0.00     0.188 HD
HETATM   14  C   UNL     1       7.955  21.098  53.187  1.00  0.00     0.120 A 
BRANCH  10  15
HETATM   15  C   UNL     1       7.717  23.583  55.881  1.00  0.00    -0.003 A 
HETATM   16  C   UNL     1       6.518  24.288  56.023  1.00  0.00     0.037 A 
HETATM   17  C   UNL     1       6.424  25.344  56.932  1.00  0.00     0.035 A 
HETATM   18 CL   UNL     1       4.924  26.170  57.099  1.00  0.00    -0.084 Cl
HETATM   19  C   UNL     1       7.521  25.728  57.697  1.00  0.00     0.024 A 
HETATM   20  C   UNL     1       8.727  25.049  57.550  1.00  0.00     0.003 A 
HETATM   21  C   UNL     1       8.824  23.985  56.649  1.00  0.00     0.014 A 
ENDBRANCH  10  15
ENDBRANCH   8   9
ENDBRANCH   4   8
BRANCH   1  22
HETATM   22  C   UNL     1       5.114  27.251  51.053  1.00  0.00     0.222 C 
HETATM   23  N   UNL     1       4.166  26.527  50.373  1.00  0.00    -0.357 N 
HETATM   24  H   UNL     1       3.574  25.870  50.867  1.00  0.00     0.162 HD
HETATM   25  O   UNL     1       5.816  28.113  50.539  1.00  0.00    -0.273 OA
BRANCH  23  26
HETATM   26  C   UNL     1       3.883  26.755  48.959  1.00  0.00     0.076 C 
HETATM   27  C   UNL     1       2.853  27.871  48.807  1.00  0.00     0.032 C 
HETATM   28  C   UNL     1       3.394  25.470  48.303  1.00  0.00     0.032 C 
ENDBRANCH  23  26
ENDBRANCH   1  22
TORSDOF 5
ENDMDL
MODEL 2
REMARK VINA RESULT:      -8.5      5.681      7.833
REMARK  5 active torsions:
REMARK  status: ('A' for Active; 'I' for Inactive)
REMARK    1  A    between atoms: C_2  and  N_3 
REMARK       I    between atoms: N_3  and  C_4 
REMARK    2  A    between atoms: C_4  and  C_5 
REMARK    3  A    between atoms: N_8  and  C_10 
REMARK    4  A    between atoms: C_10  and  C_11 
REMARK    5  A    between atoms: C_12  and  C_13 
ROOT
HETATM    1  C   UNL     1       5.636  27.449  54.759  1.00  0.00     0.081 C 
HETATM    2  C   UNL     1       7.010  28.068  54.503  1.00  0.00     0.042 C 
HETATM    3  C   UNL     1       7.868  28.094  55.764  1.00  0.00     0.236 C 
HETATM    4  N   UNL     1       7.156  28.855  56.858  1.00  0.00    -0.067 N 
HETATM    5  H   UNL     1       7.028  29.814  56.519  1.00  0.00     0.280 HD
HETATM    6  C   UNL     1       5.795  28.280  57.179  1.00  0.00     0.236 C 
HETATM    7  C   UNL     1       4.942  28.166  55.921  1.00  0.00     0.042 C 
ENDROOT
BRANCH   4   8
HETATM    8  C   UNL     1       7.985  28.950  58.135  1.00  0.00     0.277 C 
BRANCH   8   9
HETATM    9  C   UNL     1       8.996  30.038  58.130  1.00  0.00     0.016 A 
HETATM   10  C   UNL     1       9.025  31.257  58.889  1.00  0.00     0.096 A 
HETATM   11  N   UNL     1      10.137  31.951  58.612  1.00  0.00    -0.174 NA
HETATM   12  N   UNL     1      10.832  31.196  57.759  1.00  0.00    -0.288 N 
HETATM   13  H   UNL     1      11.741  31.531  57.449  1.00  0.00     0.188 HD
HETATM   14  C   UNL     1      10.191  30.040  57.432  1.00  0.00     0.120 A 
BRANCH  10  15
HETATM   15  C   UNL     1       8.080  31.781  59.883  1.00  0.00    -0.003 A 
HETATM   16  C   UNL     1       8.434  31.958  61.224  1.00  0.00     0.037 A 
HETATM   17  C   UNL     1       7.508  32.472  62.135  1.00  0.00     0.035 A 
HETATM   18 CL   UNL     1       7.987  32.701  63.772  1.00  0.00    -0.084 Cl
HETATM   19  C   UNL     1       6.217  32.799  61.734  1.00  0.00     0.024 A 
HETATM   20  C   UNL     1       5.845  32.607  60.406  1.00  0.00     0.003 A 
HETATM   21  C   UNL     1       6.770  32.103  59.488  1.00  0.00     0.014 A 
ENDBRANCH  10  15
ENDBRANCH   8   9
ENDBRANCH   4   8
BRANCH   1  22
HETATM   22  C   UNL     1       5.809  25.960  55.029  1.00  0.00     0.222 C 
HETATM   23  N   UNL     1       6.598  25.307  54.116  1.00  0.00    -0.357 N 
HETATM   24  H   UNL     1       6.986  25.808  53.326  1.00  0.00     0.162 HD
HETATM   25  O   UNL     1       5.363  25.440  56.045  1.00  0.00    -0.273 OA
BRANCH  23  26
HETATM   26  C   UNL     1       7.013  23.919  54.301  1.00  0.00     0.076 C 
HETATM   27  C   UNL     1       8.036  23.827  55.430  1.00  0.00     0.032 C 
HETATM   28  C   UNL     1       7.583  23.359  53.003  1.00  0.00     0.032 C 
ENDBRANCH  23  26
ENDBRANCH   1  22
TORSDOF 5
ENDMDL
MODEL 3
REMARK VINA RESULT:      -8.5      3.835      6.791
REMARK  5 active torsions:
REMARK  status: ('A' for Active; 'I' for Inactive)
REMARK    1  A    between atoms: C_2  and  N_3 
REMARK       I    between atoms: N_3  and  C_4 
REMARK    2  A    between atoms: C_4  and  C_5 
REMARK    3  A    between atoms: N_8  and  C_10 
REMARK    4  A    between atoms: C_10  and  C_11 
REMARK    5  A    between atoms: C_12  and  C_13 
ROOT
HETATM    1  C   UNL     1       6.548  28.581  57.809  1.00  0.00     0.081 C 
HETATM    2  C   UNL     1       7.590  27.511  57.485  1.00  0.00     0.042 C 
HETATM    3  C   UNL     1       8.040  27.575  56.029  1.00  0.00     0.236 C 
HETATM    4  N   UNL     1       6.849  27.428  55.112  1.00  0.00    -0.067 N 
HETATM    5  H   UNL     1       6.443  26.505  55.298  1.00  0.00     0.280 HD
HETATM    6  C   UNL     1       5.786  28.473  55.364  1.00  0.00     0.236 C 
HETATM    7  C   UNL     1       5.373  28.487  56.830  1.00  0.00     0.042 C 
ENDROOT
BRANCH   4   8
HETATM    8  C   UNL     1       7.243  27.443  53.639  1.00  0.00     0.277 C 
BRANCH   8   9
HETATM    9  C   UNL     1       6.341  26.661  52.755  1.00  0.00     0.016 A 
HETATM   10  C   UNL     1       6.132  25.241  52.695  1.00  0.00     0.096 A 
HETATM   11  N   UNL     1       5.202  24.947  51.776  1.00  0.00    -0.174 NA
HETATM   12  N   UNL     1       4.779  26.119  51.301  1.00  0.00    -0.288 N 
HETATM   13  H   UNL     1       4.032  26.118  50.609  1.00  0.00     0.188 HD
HETATM   14  C   UNL     1       5.431  27.180  51.849  1.00  0.00     0.120 A 
BRANCH  10  15
HETATM   15  C   UNL     1       6.736  24.157  53.478  1.00  0.00    -0.003 A 
HETATM   16  C   UNL     1       7.327  23.043  52.874  1.00  0.00     0.037 A 
HETATM   17  C   UNL     1       7.903  22.038  53.655  1.00  0.00     0.035 A 
HETATM   18 CL   UNL     1       8.645  20.697  52.875  1.00  0.00    -0.084 Cl
HETATM   19  C   UNL     1       7.883  22.115  55.044  1.00  0.00     0.024 A 
HETATM   20  C   UNL     1       7.278  23.207  55.660  1.00  0.00     0.003 A 
HETATM   21  C   UNL     1       6.710  24.220  54.882  1.00  0.00     0.014 A 
ENDBRANCH  10  15
ENDBRANCH   8   9
ENDBRANCH   4   8
BRANCH   1  22
HETATM   22  C   UNL     1       7.216  29.949  57.767  1.00  0.00     0.222 C 
HETATM   23  N   UNL     1       8.384  30.031  58.484  1.00  0.00    -0.357 N 
HETATM   24  H   UNL     1       8.719  29.231  59.007  1.00  0.00     0.162 HD
HETATM   25  O   UNL     1       6.786  30.848  57.054  1.00  0.00    -0.273 OA
BRANCH  23  26
HETATM   26  C   UNL     1       9.249  31.205  58.426  1.00  0.00     0.076 C 
HETATM   27  C   UNL     1      10.556  30.856  57.719  1.00  0.00     0.032 C 
HETATM   28  C   UNL     1       9.515  31.737  59.829  1.00  0.00     0.032 C 
ENDBRANCH  23  26
ENDBRANCH   1  22
TORSDOF 5
ENDMDL
MODEL 4
REMARK VINA RESULT:      -8.4      2.470      3.861
REMARK  5 active torsions:
REMARK  status: ('A' for Active; 'I' for Inactive)
REMARK    1  A    between atoms: C_2  and  N_3 
REMARK       I    between atoms: N_3  and  C_4 
REMARK    2  A    between atoms: C_4  and  C_5 
REMARK    3  A    between atoms: N_8  and  C_10 
REMARK    4  A    between atoms: C_10  and  C_11 
REMARK    5  A    between atoms: C_12  and  C_13 
ROOT
HETATM    1  C   UNL     1       5.851  25.784  51.258  1.00  0.00     0.081 C 
HETATM    2  C   UNL     1       4.756  24.873  51.813  1.00  0.00     0.042 C 
HETATM    3  C   UNL     1       4.558  25.066  53.313  1.00  0.00     0.236 C 
HETATM    4  N   UNL     1       5.856  24.813  54.042  1.00  0.00    -0.067 N 
HETATM    5  H   UNL     1       6.115  23.838  53.860  1.00  0.00     0.280 HD
HETATM    6  C   UNL     1       6.981  25.700  53.558  1.00  0.00     0.236 C 
HETATM    7  C   UNL     1       7.149  25.589  52.047  1.00  0.00     0.042 C 
ENDROOT
BRANCH   4   8
HETATM    8  C   UNL     1       5.711  24.952  55.554  1.00  0.00     0.277 C 
BRANCH   8   9
HETATM    9  C   UNL     1       6.998  25.098  56.283  1.00  0.00     0.016 A 
HETATM   10  C   UNL     1       8.046  24.136  56.480  1.00  0.00     0.096 A 
HETATM   11  N   UNL     1       9.056  24.685  57.169  1.00  0.00    -0.174 NA
HETATM   12  N   UNL     1       8.714  25.960  57.360  1.00  0.00    -0.288 N 
HETATM   13  H   UNL     1       9.374  26.570  57.837  1.00  0.00     0.188 HD
HETATM   14  C   UNL     1       7.487  26.260  56.854  1.00  0.00     0.120 A 
BRANCH  10  15
HETATM   15  C   UNL     1       8.158  22.745  56.027  1.00  0.00    -0.003 A 
HETATM   16  C   UNL     1       8.154  22.402  54.671  1.00  0.00     0.037 A 
HETATM   17  C   UNL     1       8.276  21.066  54.281  1.00  0.00     0.035 A 
HETATM   18 CL   UNL     1       8.295  20.685  52.604  1.00  0.00    -0.084 Cl
HETATM   19  C   UNL     1       8.382  20.052  55.228  1.00  0.00     0.024 A 
HETATM   20  C   UNL     1       8.364  20.378  56.582  1.00  0.00     0.003 A 
HETATM   21  C   UNL     1       8.254  21.714  56.977  1.00  0.00     0.014 A 
ENDBRANCH  10  15
ENDBRANCH   8   9
ENDBRANCH   4   8
BRANCH   1  22
HETATM   22  C   UNL     1       5.364  27.226  51.308  1.00  0.00     0.222 C 
HETATM   23  N   UNL     1       4.277  27.485  50.512  1.00  0.00    -0.357 N 
HETATM   24  H   UNL     1       3.883  26.754  49.933  1.00  0.00     0.162 HD
HETATM   25  O   UNL     1       5.851  28.037  52.088  1.00  0.00    -0.273 OA
BRANCH  23  26
HETATM   26  C   UNL     1       3.570  28.762  50.556  1.00  0.00     0.076 C 
HETATM   27  C   UNL     1       2.123  28.573  50.104  1.00  0.00     0.032 C 
HETATM   28  C   UNL     1       4.281  29.791  49.685  1.00  0.00     0.032 C 
ENDBRANCH  23  26
ENDBRANCH   1  22
TORSDOF 5
ENDMDL
MODEL 5
REMARK VINA RESULT:      -8.4      3.768      6.079
REMARK  5 active torsions:
REMARK  status: ('A' for Active; 'I' for Inactive)
REMARK    1  A    between atoms: C_2  and  N_3 
REMARK       I    between atoms: N_3  and  C_4 
REMARK    2  A    between atoms: C_4  and  C_5 
REMARK    3  A    between atoms: N_8  and  C_10 
REMARK    4  A    between atoms: C_10  and  C_11 
REMARK    5  A    between atoms: C_12  and  C_13 
ROOT
HETATM    1  C   UNL     1       7.425  28.828  57.930  1.00  0.00     0.081 C 
HETATM    2  C   UNL     1       8.679  28.975  57.069  1.00  0.00     0.042 C 
HETATM    3  C   UNL     1       8.358  28.909  55.579  1.00  0.00     0.236 C 
HETATM    4  N   UNL     1       7.661  27.609  55.257  1.00  0.00    -0.067 N 
HETATM    5  H   UNL     1       8.314  26.854  55.493  1.00  0.00     0.280 HD
HETATM    6  C   UNL     1       6.396  27.410  56.060  1.00  0.00     0.236 C 
HETATM    7  C   UNL     1       6.671  27.550  57.553  1.00  0.00     0.042 C 
ENDROOT
BRANCH   4   8
HETATM    8  C   UNL     1       7.350  27.467  53.771  1.00  0.00     0.277 C 
BRANCH   8   9
HETATM    9  C   UNL     1       6.124  26.683  53.473  1.00  0.00     0.016 A 
HETATM   10  C   UNL     1       5.918  25.263  53.518  1.00  0.00     0.096 A 
HETATM   11  N   UNL     1       4.648  24.967  53.209  1.00  0.00    -0.174 NA
HETATM   12  N   UNL     1       4.037  26.139  53.029  1.00  0.00    -0.288 N 
HETATM   13  H   UNL     1       3.041  26.136  52.822  1.00  0.00     0.188 HD
HETATM   14  C   UNL     1       4.876  27.201  53.170  1.00  0.00     0.120 A 
BRANCH  10  15
HETATM   15  C   UNL     1       6.843  24.178  53.869  1.00  0.00    -0.003 A 
HETATM   16  C   UNL     1       7.135  23.851  55.196  1.00  0.00     0.037 A 
HETATM   17  C   UNL     1       8.012  22.803  55.488  1.00  0.00     0.035 A 
HETATM   18 CL   UNL     1       8.326  22.411  57.133  1.00  0.00    -0.084 Cl
HETATM   19  C   UNL     1       8.625  22.080  54.469  1.00  0.00     0.024 A 
HETATM   20  C   UNL     1       8.360  22.411  53.143  1.00  0.00     0.003 A 
HETATM   21  C   UNL     1       7.475  23.451  52.846  1.00  0.00     0.014 A 
ENDBRANCH  10  15
ENDBRANCH   8   9
ENDBRANCH   4   8
BRANCH   1  22
HETATM   22  C   UNL     1       6.562  30.071  57.760  1.00  0.00     0.222 C 
HETATM   23  N   UNL     1       5.213  29.823  57.718  1.00  0.00    -0.357 N 
HETATM   24  H   UNL     1       4.867  28.872  57.770  1.00  0.00     0.162 HD
HETATM   25  O   UNL     1       7.051  31.195  57.774  1.00  0.00    -0.273 OA
BRANCH  23  26
HETATM   26  C   UNL     1       4.225  30.898  57.728  1.00  0.00     0.076 C 
HETATM   27  C   UNL     1       3.515  30.942  59.079  1.00  0.00     0.032 C 
HETATM   28  C   UNL     1       3.225  30.708  56.593  1.00  0.00     0.032 C 
ENDBRANCH  23  26
ENDBRANCH   1  22
TORSDOF 5
ENDMDL
MODEL 6
REMARK VINA RESULT:      -8.3      4.147      7.276
REMARK  5 active torsions:
REMARK  status: ('A' for Active; 'I' for Inactive)
REMARK    1  A    between atoms: C_2  and  N_3 
REMARK       I    between atoms: N_3  and  C_4 
REMARK    2  A    between atoms: C_4  and  C_5 
REMARK    3  A    between atoms: N_8  and  C_10 
REMARK    4  A    between atoms: C_10  and  C_11 
REMARK    5  A    between atoms: C_12  and  C_13 
ROOT
HETATM    1  C   UNL     1       8.715  29.651  57.060  1.00  0.00     0.081 C 
HETATM    2  C   UNL     1       7.713  29.727  55.908  1.00  0.00     0.042 C 
HETATM    3  C   UNL     1       6.646  28.641  56.008  1.00  0.00     0.236 C 
HETATM    4  N   UNL     1       7.296  27.278  56.036  1.00  0.00    -0.067 N 
HETATM    5  H   UNL     1       7.803  27.172  55.151  1.00  0.00     0.280 HD
HETATM    6  C   UNL     1       8.286  27.127  57.169  1.00  0.00     0.236 C 
HETATM    7  C   UNL     1       9.320  28.246  57.143  1.00  0.00     0.042 C 
ENDROOT
BRANCH   4   8
HETATM    8  C   UNL     1       6.275  26.147  56.094  1.00  0.00     0.277 C 
BRANCH   8   9
HETATM    9  C   UNL     1       5.699  25.773  54.777  1.00  0.00     0.016 A 
HETATM   10  C   UNL     1       5.999  24.645  53.940  1.00  0.00     0.096 A 
HETATM   11  N   UNL     1       5.225  24.660  52.846  1.00  0.00    -0.174 NA
HETATM   12  N   UNL     1       4.416  25.711  52.989  1.00  0.00    -0.288 N 
HETATM   13  H   UNL     1       3.714  25.880  52.272  1.00  0.00     0.188 HD
HETATM   14  C   UNL     1       4.660  26.417  54.127  1.00  0.00     0.120 A 
BRANCH  10  15
HETATM   15  C   UNL     1       6.948  23.543  54.133  1.00  0.00    -0.003 A 
HETATM   16  C   UNL     1       7.211  23.001  55.395  1.00  0.00     0.037 A 
HETATM   17  C   UNL     1       8.112  21.942  55.534  1.00  0.00     0.035 A 
HETATM   18 CL   UNL     1       8.389  21.282  57.099  1.00  0.00    -0.084 Cl
HETATM   19  C   UNL     1       8.779  21.422  54.430  1.00  0.00     0.024 A 
HETATM   20  C   UNL     1       8.544  21.968  53.170  1.00  0.00     0.003 A 
HETATM   21  C   UNL     1       7.635  23.019  53.025  1.00  0.00     0.014 A 
ENDBRANCH  10  15
ENDBRANCH   8   9
ENDBRANCH   4   8
BRANCH   1  22
HETATM   22  C   UNL     1       8.012  30.047  58.352  1.00  0.00     0.222 C 
HETATM   23  N   UNL     1       8.858  30.308  59.400  1.00  0.00    -0.357 N 
HETATM   24  H   UNL     1       9.859  30.204  59.286  1.00  0.00     0.162 HD
HETATM   25  O   UNL     1       6.799  30.218  58.392  1.00  0.00    -0.273 OA
BRANCH  23  26
HETATM   26  C   UNL     1       8.380  30.861  60.664  1.00  0.00     0.076 C 
HETATM   27  C   UNL     1       8.346  32.385  60.587  1.00  0.00     0.032 C 
HETATM   28  C   UNL     1       9.264  30.394  61.814  1.00  0.00     0.032 C 
ENDBRANCH  23  26
ENDBRANCH   1  22
TORSDOF 5
ENDMDL
MODEL 7
REMARK VINA RESULT:      -8.2      4.831      7.144
REMARK  5 active torsions:
REMARK  status: ('A' for Active; 'I' for Inactive)
REMARK    1  A    between atoms: C_2  and  N_3 
REMARK       I    between atoms: N_3  and  C_4 
REMARK    2  A    between atoms: C_4  and  C_5 
REMARK    3  A    between atoms: N_8  and  C_10 
REMARK    4  A    between atoms: C_10  and  C_11 
REMARK    5  A    between atoms: C_12  and  C_13 
ROOT
HETATM    1  C   UNL     1       6.282  25.032  56.680  1.00  0.00     0.081 C 
HETATM    2  C   UNL     1       5.183  25.993  57.133  1.00  0.00     0.042 C 
HETATM    3  C   UNL     1       5.451  27.423  56.673  1.00  0.00     0.236 C 
HETATM    4  N   UNL     1       6.791  27.890  57.191  1.00  0.00    -0.067 N 
HETATM    5  H   UNL     1       6.737  27.871  58.215  1.00  0.00     0.280 HD
HETATM    6  C   UNL     1       7.929  26.994  56.760  1.00  0.00     0.236 C 
HETATM    7  C   UNL     1       7.652  25.543  57.135  1.00  0.00     0.042 C 
ENDROOT
BRANCH   4   8
HETATM    8  C   UNL     1       7.097  29.331  56.797  1.00  0.00     0.277 C 
BRANCH   8   9
HETATM    9  C   UNL     1       8.514  29.733  56.994  1.00  0.00     0.016 A 
HETATM   10  C   UNL     1       9.124  30.401  58.109  1.00  0.00     0.096 A 
HETATM   11  N   UNL     1      10.440  30.545  57.901  1.00  0.00    -0.174 NA
HETATM   12  N   UNL     1      10.690  29.948  56.735  1.00  0.00    -0.288 N 
HETATM   13  H   UNL     1      11.653  29.912  56.409  1.00  0.00     0.188 HD
HETATM   14  C   UNL     1       9.570  29.448  56.145  1.00  0.00     0.120 A 
BRANCH  10  15
HETATM   15  C   UNL     1       8.539  30.877  59.368  1.00  0.00    -0.003 A 
HETATM   16  C   UNL     1       7.399  31.686  59.400  1.00  0.00     0.037 A 
HETATM   17  C   UNL     1       6.867  32.108  60.621  1.00  0.00     0.035 A 
HETATM   18 CL   UNL     1       5.447  33.079  60.621  1.00  0.00    -0.084 Cl
HETATM   19  C   UNL     1       7.468  31.750  61.823  1.00  0.00     0.024 A 
HETATM   20  C   UNL     1       8.617  30.964  61.805  1.00  0.00     0.003 A 
HETATM   21  C   UNL     1       9.147  30.530  60.587  1.00  0.00     0.014 A 
ENDBRANCH  10  15
ENDBRANCH   8   9
ENDBRANCH   4   8
BRANCH   1  22
HETATM   22  C   UNL     1       6.206  24.874  55.167  1.00  0.00     0.222 C 
HETATM   23  N   UNL     1       7.263  24.196  54.615  1.00  0.00    -0.357 N 
HETATM   24  H   UNL     1       8.024  23.872  55.200  1.00  0.00     0.162 HD
HETATM   25  O   UNL     1       5.218  25.233  54.537  1.00  0.00    -0.273 OA
BRANCH  23  26
HETATM   26  C   UNL     1       7.284  23.802  53.209  1.00  0.00     0.076 C 
HETATM   27  C   UNL     1       7.957  22.440  53.058  1.00  0.00     0.032 C 
HETATM   28  C   UNL     1       7.999  24.858  52.374  1.00  0.00     0.032 C 
ENDBRANCH  23  26
ENDBRANCH   1  22
TORSDOF 5
ENDMDL
MODEL 8
REMARK VINA RESULT:      -8.1      2.732      4.265
REMARK  5 active torsions:
REMARK  status: ('A' for Active; 'I' for Inactive)
REMARK    1  A    between atoms: C_2  and  N_3 
REMARK       I    between atoms: N_3  and  C_4 
REMARK    2  A    between atoms: C_4  and  C_5 
REMARK    3  A    between atoms: N_8  and  C_10 
REMARK    4  A    between atoms: C_10  and  C_11 
REMARK    5  A    between atoms: C_12  and  C_13 
ROOT
HETATM    1  C   UNL     1       3.837  29.426  50.435  1.00  0.00     0.081 C 
HETATM    2  C   UNL     1       5.158  28.671  50.288  1.00  0.00     0.042 C 
HETATM    3  C   UNL     1       5.188  27.404  51.137  1.00  0.00     0.236 C 
HETATM    4  N   UNL     1       4.950  27.748  52.588  1.00  0.00    -0.067 N 
HETATM    5  H   UNL     1       5.717  28.364  52.877  1.00  0.00     0.280 HD
HETATM    6  C   UNL     1       3.646  28.479  52.809  1.00  0.00     0.236 C 
HETATM    7  C   UNL     1       3.552  29.708  51.913  1.00  0.00     0.042 C 
ENDROOT
BRANCH   4   8
HETATM    8  C   UNL     1       5.009  26.523  53.494  1.00  0.00     0.277 C 
BRANCH   8   9
HETATM    9  C   UNL     1       5.973  26.638  54.619  1.00  0.00     0.016 A 
HETATM   10  C   UNL     1       6.955  25.695  55.076  1.00  0.00     0.096 A 
HETATM   11  N   UNL     1       7.647  26.206  56.104  1.00  0.00    -0.174 NA
HETATM   12  N   UNL     1       7.183  27.445  56.272  1.00  0.00    -0.288 N 
HETATM   13  H   UNL     1       7.610  28.027  56.990  1.00  0.00     0.188 HD
HETATM   14  C   UNL     1       6.174  27.755  55.412  1.00  0.00     0.120 A 
BRANCH  10  15
HETATM   15  C   UNL     1       7.296  24.358  54.575  1.00  0.00    -0.003 A 
HETATM   16  C   UNL     1       7.296  23.232  55.403  1.00  0.00     0.037 A 
HETATM   17  C   UNL     1       7.614  21.974  54.884  1.00  0.00     0.035 A 
HETATM   18 CL   UNL     1       7.576  20.607  55.927  1.00  0.00    -0.084 Cl
HETATM   19  C   UNL     1       7.956  21.821  53.544  1.00  0.00     0.024 A 
HETATM   20  C   UNL     1       7.982  22.938  52.713  1.00  0.00     0.003 A 
HETATM   21  C   UNL     1       7.654  24.196  53.226  1.00  0.00     0.014 A 
ENDBRANCH  10  15
ENDBRANCH   8   9
ENDBRANCH   4   8
BRANCH   1  22
HETATM   22  C   UNL     1       2.727  28.610  49.786  1.00  0.00     0.222 C 
HETATM   23  N   UNL     1       3.151  27.776  48.781  1.00  0.00    -0.357 N 
HETATM   24  H   UNL     1       4.126  27.761  48.507  1.00  0.00     0.162 HD
HETATM   25  O   UNL     1       1.582  28.632  50.219  1.00  0.00    -0.273 OA
BRANCH  23  26
HETATM   26  C   UNL     1       2.263  26.799  48.158  1.00  0.00     0.076 C 
HETATM   27  C   UNL     1       3.040  25.527  47.826  1.00  0.00     0.032 C 
HETATM   28  C   UNL     1       1.622  27.387  46.907  1.00  0.00     0.032 C 
ENDBRANCH  23  26
ENDBRANCH   1  22
TORSDOF 5
ENDMDL
MODEL 9
REMARK VINA RESULT:      -7.8      3.852      6.756
REMARK  5 active torsions:
REMARK  status: ('A' for Active; 'I' for Inactive)
REMARK    1  A    between atoms: C_2  and  N_3 
REMARK       I    between atoms: N_3  and  C_4 
REMARK    2  A    between atoms: C_4  and  C_5 
REMARK    3  A    between atoms: N_8  and  C_10 
REMARK    4  A    between atoms: C_10  and  C_11 
REMARK    5  A    between atoms: C_12  and  C_13 
ROOT
HETATM    1  C   UNL     1       4.661  29.632  57.279  1.00  0.00     0.081 C 
HETATM    2  C   UNL     1       5.416  28.303  57.280  1.00  0.00     0.042 C 
HETATM    3  C   UNL     1       6.341  28.171  56.074  1.00  0.00     0.236 C 
HETATM    4  N   UNL     1       5.548  28.312  54.797  1.00  0.00    -0.067 N 
HETATM    5  H   UNL     1       4.867  27.546  54.782  1.00  0.00     0.280 HD
HETATM    6  C   UNL     1       4.792  29.619  54.719  1.00  0.00     0.236 C 
HETATM    7  C   UNL     1       3.919  29.817  55.952  1.00  0.00     0.042 C 
ENDROOT
BRANCH   4   8
HETATM    8  C   UNL     1       6.415  28.148  53.552  1.00  0.00     0.277 C 
BRANCH   8   9
HETATM    9  C   UNL     1       5.843  27.245  52.521  1.00  0.00     0.016 A 
HETATM   10  C   UNL     1       6.031  25.833  52.342  1.00  0.00     0.096 A 
HETATM   11  N   UNL     1       5.304  25.394  51.306  1.00  0.00    -0.174 NA
HETATM   12  N   UNL     1       4.625  26.454  50.866  1.00  0.00    -0.288 N 
HETATM   13  H   UNL     1       3.973  26.324  50.095  1.00  0.00     0.188 HD
HETATM   14  C   UNL     1       4.914  27.592  51.555  1.00  0.00     0.120 A 
BRANCH  10  15
HETATM   15  C   UNL     1       6.832  24.875  53.114  1.00  0.00    -0.003 A 
HETATM   16  C   UNL     1       6.920  24.933  54.508  1.00  0.00     0.037 A 
HETATM   17  C   UNL     1       7.683  23.994  55.207  1.00  0.00     0.035 A 
HETATM   18 CL   UNL     1       7.746  24.081  56.924  1.00  0.00    -0.084 Cl
HETATM   19  C   UNL     1       8.383  22.999  54.533  1.00  0.00     0.024 A 
HETATM   20  C   UNL     1       8.322  22.943  53.143  1.00  0.00     0.003 A 
HETATM   21  C   UNL     1       7.552  23.874  52.440  1.00  0.00     0.014 A 
ENDBRANCH  10  15
ENDBRANCH   8   9
ENDBRANCH   4   8
BRANCH   1  22
HETATM   22  C   UNL     1       5.650  30.760  57.541  1.00  0.00     0.222 C 
HETATM   23  N   UNL     1       6.506  30.531  58.590  1.00  0.00    -0.357 N 
HETATM   24  H   UNL     1       6.428  29.682  59.136  1.00  0.00     0.162 HD
HETATM   25  O   UNL     1       5.728  31.728  56.793  1.00  0.00    -0.273 OA
BRANCH  23  26
HETATM   26  C   UNL     1       7.626  31.419  58.885  1.00  0.00     0.076 C 
HETATM   27  C   UNL     1       8.944  30.730  58.539  1.00  0.00     0.032 C 
HETATM   28  C   UNL     1       7.599  31.837  60.350  1.00  0.00     0.032 C 
ENDBRANCH  23  26
ENDBRANCH   1  22
TORSDOF 5
ENDMDL
MODEL 10
REMARK VINA RESULT:      -7.8      3.423      5.812
REMARK  5 active torsions:
REMARK  status: ('A' for Active; 'I' for Inactive)
REMARK    1  A    between atoms: C_2  and  N_3 
REMARK       I    between atoms: N_3  and  C_4 
REMARK    2  A    between atoms: C_4  and  C_5 
REMARK    3  A    between atoms: N_8  and  C_10 
REMARK    4  A    between atoms: C_10  and  C_11 
REMARK    5  A    between atoms: C_12  and  C_13 
ROOT
HETATM    1  C   UNL     1       5.905  29.226  56.165  1.00  0.00     0.081 C 
HETATM    2  C   UNL     1       4.801  28.322  56.711  1.00  0.00     0.042 C 
HETATM    3  C   UNL     1       4.917  26.895  56.182  1.00  0.00     0.236 C 
HETATM    4  N   UNL     1       4.878  26.900  54.672  1.00  0.00    -0.067 N 
HETATM    5  H   UNL     1       3.970  27.287  54.398  1.00  0.00     0.280 HD
HETATM    6  C   UNL     1       5.962  27.760  54.063  1.00  0.00     0.236 C 
HETATM    7  C   UNL     1       5.923  29.172  54.634  1.00  0.00     0.042 C 
ENDROOT
BRANCH   4   8
HETATM    8  C   UNL     1       4.950  25.495  54.084  1.00  0.00     0.277 C 
BRANCH   8   9
HETATM    9  C   UNL     1       6.146  25.244  53.238  1.00  0.00     0.016 A 
HETATM   10  C   UNL     1       7.335  24.499  53.542  1.00  0.00     0.096 A 
HETATM   11  N   UNL     1       8.159  24.489  52.485  1.00  0.00    -0.174 NA
HETATM   12  N   UNL     1       7.514  25.141  51.517  1.00  0.00    -0.288 N 
HETATM   13  H   UNL     1       7.959  25.213  50.604  1.00  0.00     0.188 HD
HETATM   14  C   UNL     1       6.304  25.620  51.915  1.00  0.00     0.120 A 
BRANCH  10  15
HETATM   15  C   UNL     1       7.718  23.773  54.758  1.00  0.00    -0.003 A 
HETATM   16  C   UNL     1       7.714  22.377  54.823  1.00  0.00     0.037 A 
HETATM   17  C   UNL     1       8.098  21.724  55.997  1.00  0.00     0.035 A 
HETATM   18 CL   UNL     1       8.107  20.004  56.031  1.00  0.00    -0.084 Cl
HETATM   19  C   UNL     1       8.472  22.446  57.126  1.00  0.00     0.024 A 
HETATM   20  C   UNL     1       8.459  23.837  57.082  1.00  0.00     0.003 A 
HETATM   21  C   UNL     1       8.086  24.495  55.907  1.00  0.00     0.014 A 
ENDBRANCH  10  15
ENDBRANCH   8   9
ENDBRANCH   4   8
BRANCH   1  22
HETATM   22  C   UNL     1       7.237  28.795  56.765  1.00  0.00     0.222 C 
HETATM   23  N   UNL     1       8.187  29.786  56.806  1.00  0.00    -0.357 N 
HETATM   24  H   UNL     1       7.984  30.703  56.428  1.00  0.00     0.162 HD
HETATM   25  O   UNL     1       7.384  27.686  57.264  1.00  0.00    -0.273 OA
BRANCH  23  26
HETATM   26  C   UNL     1       9.461  29.611  57.495  1.00  0.00     0.076 C 
HETATM   27  C   UNL     1       9.757  30.831  58.364  1.00  0.00     0.032 C 
HETATM   28  C   UNL     1      10.580  29.377  56.487  1.00  0.00     0.032 C 
ENDBRANCH  23  26
ENDBRANCH   1  22
TORSDOF 5
ENDMDL
