MODEL 1
REMARK VINA RESULT:      -8.0      0.000      0.000
REMARK  5 active torsions:
REMARK  status: ('A' for Active; 'I' for Inactive)
REMARK    1  A    between atoms: C_7  and  C_8 
REMARK    2  A    between atoms: C_8  and  N_9 
REMARK    3  A    between atoms: C_12  and  C_13 
REMARK    4  A    between atoms: C_13  and  C_14 
REMARK    5  A    between atoms: C_14  and  O_15 
ROOT
HETATM    1  C   UNL     1       5.612  24.892  52.762  1.00  0.00     0.020 A 
HETATM    2  C   UNL     1       5.302  25.837  53.714  1.00  0.00     0.117 A 
HETATM    3  N   UNL     1       5.882  25.894  54.936  1.00  0.00    -0.260 NA
HETATM    4  C   UNL     1       6.842  24.988  55.230  1.00  0.00     0.076 A 
HETATM    5  C   UNL     1       7.229  23.964  54.333  1.00  0.00     0.011 A 
HETATM    6  C   UNL     1       6.580  23.946  53.079  1.00  0.00     0.016 A 
HETATM    7  C   UNL     1       7.457  25.066  56.484  1.00  0.00    -0.003 A 
HETATM    8  C   UNL     1       8.447  24.147  56.862  1.00  0.00     0.012 A 
HETATM    9  C   UNL     1       8.824  23.132  55.991  1.00  0.00     0.020 A 
HETATM   10  C   UNL     1       8.225  23.040  54.735  1.00  0.00     0.023 A 
HETATM   11 BR   UNL     1       8.815  21.617  53.616  1.00  0.00    -0.050 Br
ENDROOT
BRANCH   7  12
HETATM   12  C   UNL     1       7.089  26.189  57.425  1.00  0.00     0.275 C 
BRANCH  12  13
HETATM   13  N   UNL     1       7.325  27.563  56.859  1.00  0.00    -0.067 N 
HETATM   14  H   UNL     1       7.128  27.437  55.846  1.00  0.00     0.280 HD
HETATM   15  C   UNL     1       8.735  28.068  57.012  1.00  0.00     0.240 C 
HETATM   16  C   UNL     1       8.616  29.202  58.024  1.00  0.00     0.015 C 
HETATM   17  C   UNL     1       7.283  29.828  57.630  1.00  0.00     0.034 C 
HETATM   18  C   UNL     1       6.391  28.627  57.384  1.00  0.00     0.235 C 
BRANCH  16  19
HETATM   19  C   UNL     1       9.828  30.139  57.973  1.00  0.00     0.032 C 
BRANCH  19  20
HETATM   20  C   UNL     1      10.697  29.955  56.732  1.00  0.00     0.164 C 
BRANCH  20  21
HETATM   21  O   UNL     1      12.055  29.822  57.116  1.00  0.00    -0.401 OA
HETATM   22  H   UNL     1      12.065  29.405  57.999  1.00  0.00     0.209 HD
ENDBRANCH  20  21
ENDBRANCH  19  20
ENDBRANCH  16  19
ENDBRANCH  12  13
ENDBRANCH   7  12
TORSDOF 5
ENDMDL
MODEL 2
REMARK VINA RESULT:      -7.7      3.680      6.178
REMARK  5 active torsions:
REMARK  status: ('A' for Active; 'I' for Inactive)
REMARK    1  A    between atoms: C_7  and  C_8 
REMARK    2  A    between atoms: C_8  and  N_9 
REMARK    3  A    between atoms: C_12  and  C_13 
REMARK    4  A    between atoms: C_13  and  C_14 
REMARK    5  A    between atoms: C_14  and  O_15 
ROOT
HETATM    1  C   UNL     1       7.700  25.183  57.338  1.00  0.00     0.020 A 
HETATM    2  C   UNL     1       7.609  26.192  56.406  1.00  0.00     0.117 A 
HETATM    3  N   UNL     1       7.592  25.983  55.068  1.00  0.00    -0.260 NA
HETATM    4  C   UNL     1       7.640  24.708  54.620  1.00  0.00     0.076 A 
HETATM    5  C   UNL     1       7.750  23.595  55.488  1.00  0.00     0.011 A 
HETATM    6  C   UNL     1       7.777  23.875  56.872  1.00  0.00     0.016 A 
HETATM    7  C   UNL     1       7.598  24.495  53.238  1.00  0.00    -0.003 A 
HETATM    8  C   UNL     1       7.662  23.199  52.705  1.00  0.00     0.012 A 
HETATM    9  C   UNL     1       7.782  22.103  53.550  1.00  0.00     0.020 A 
HETATM   10  C   UNL     1       7.823  22.295  54.931  1.00  0.00     0.023 A 
HETATM   11 BR   UNL     1       7.984  20.729  56.000  1.00  0.00    -0.050 Br
ENDROOT
BRANCH   7  12
HETATM   12  C   UNL     1       7.424  25.672  52.309  1.00  0.00     0.275 C 
BRANCH  12  13
HETATM   13  N   UNL     1       6.006  26.167  52.207  1.00  0.00    -0.067 N 
HETATM   14  H   UNL     1       5.539  25.710  53.015  1.00  0.00     0.280 HD
HETATM   15  C   UNL     1       5.290  25.759  50.948  1.00  0.00     0.240 C 
HETATM   16  C   UNL     1       5.125  27.062  50.174  1.00  0.00     0.015 C 
HETATM   17  C   UNL     1       4.850  28.055  51.298  1.00  0.00     0.034 C 
HETATM   18  C   UNL     1       5.850  27.661  52.367  1.00  0.00     0.235 C 
BRANCH  16  19
HETATM   19  C   UNL     1       4.034  26.955  49.104  1.00  0.00     0.032 C 
BRANCH  19  20
HETATM   20  C   UNL     1       4.486  27.399  47.716  1.00  0.00     0.164 C 
BRANCH  20  21
HETATM   21  O   UNL     1       5.560  26.584  47.281  1.00  0.00    -0.401 OA
HETATM   22  H   UNL     1       5.679  25.882  47.949  1.00  0.00     0.209 HD
ENDBRANCH  20  21
ENDBRANCH  19  20
ENDBRANCH  16  19
ENDBRANCH  12  13
ENDBRANCH   7  12
TORSDOF 5
ENDMDL
MODEL 3
REMARK VINA RESULT:      -7.2      3.527      5.409
REMARK  5 active torsions:
REMARK  status: ('A' for Active; 'I' for Inactive)
REMARK    1  A    between atoms: C_7  and  C_8 
REMARK    2  A    between atoms: C_8  and  N_9 
REMARK    3  A    between atoms: C_12  and  C_13 
REMARK    4  A    between atoms: C_13  and  C_14 
REMARK    5  A    between atoms: C_14  and  O_15 
ROOT
HETATM    1  C   UNL     1       7.804  25.092  57.242  1.00  0.00     0.020 A 
HETATM    2  C   UNL     1       7.740  26.025  56.232  1.00  0.00     0.117 A 
HETATM    3  N   UNL     1       7.791  25.713  54.915  1.00  0.00    -0.260 NA
HETATM    4  C   UNL     1       7.882  24.408  54.570  1.00  0.00     0.076 A 
HETATM    5  C   UNL     1       7.970  23.369  55.526  1.00  0.00     0.011 A 
HETATM    6  C   UNL     1       7.926  23.755  56.884  1.00  0.00     0.016 A 
HETATM    7  C   UNL     1       7.910  24.089  53.208  1.00  0.00    -0.003 A 
HETATM    8  C   UNL     1       8.022  22.757  52.781  1.00  0.00     0.012 A 
HETATM    9  C   UNL     1       8.120  21.732  53.713  1.00  0.00     0.020 A 
HETATM   10  C   UNL     1       8.092  22.031  55.076  1.00  0.00     0.023 A 
HETATM   11 BR   UNL     1       8.229  20.555  56.270  1.00  0.00    -0.050 Br
ENDROOT
BRANCH   7  12
HETATM   12  C   UNL     1       7.760  25.188  52.183  1.00  0.00     0.275 C 
BRANCH  12  13
HETATM   13  N   UNL     1       6.331  25.529  51.856  1.00  0.00    -0.067 N 
HETATM   14  H   UNL     1       6.287  25.391  50.827  1.00  0.00     0.280 HD
HETATM   15  C   UNL     1       5.941  26.950  52.165  1.00  0.00     0.240 C 
HETATM   16  C   UNL     1       4.973  26.825  53.336  1.00  0.00     0.015 C 
HETATM   17  C   UNL     1       4.215  25.552  52.973  1.00  0.00     0.034 C 
HETATM   18  C   UNL     1       5.307  24.618  52.491  1.00  0.00     0.235 C 
BRANCH  16  19
HETATM   19  C   UNL     1       4.114  28.083  53.501  1.00  0.00     0.032 C 
BRANCH  19  20
HETATM   20  C   UNL     1       3.634  28.678  52.180  1.00  0.00     0.164 C 
BRANCH  20  21
HETATM   21  O   UNL     1       2.228  28.537  52.076  1.00  0.00    -0.401 OA
HETATM   22  H   UNL     1       1.829  29.134  52.738  1.00  0.00     0.209 HD
ENDBRANCH  20  21
ENDBRANCH  19  20
ENDBRANCH  16  19
ENDBRANCH  12  13
ENDBRANCH   7  12
TORSDOF 5
ENDMDL
MODEL 4
REMARK VINA RESULT:      -6.9      3.767      6.967
REMARK  5 active torsions:
REMARK  status: ('A' for Active; 'I' for Inactive)
REMARK    1  A    between atoms: C_7  and  C_8 
REMARK    2  A    between atoms: C_8  and  N_9 
REMARK    3  A    between atoms: C_12  and  C_13 
REMARK    4  A    between atoms: C_13  and  C_14 
REMARK    5  A    between atoms: C_14  and  O_15 
ROOT
HETATM    1  C   UNL     1       8.221  30.339  58.162  1.00  0.00     0.020 A 
HETATM    2  C   UNL     1       8.980  29.255  57.781  1.00  0.00     0.117 A 
HETATM    3  N   UNL     1       8.484  28.184  57.118  1.00  0.00    -0.260 NA
HETATM    4  C   UNL     1       7.173  28.190  56.785  1.00  0.00     0.076 A 
HETATM    5  C   UNL     1       6.298  29.244  57.140  1.00  0.00     0.011 A 
HETATM    6  C   UNL     1       6.868  30.328  57.843  1.00  0.00     0.016 A 
HETATM    7  C   UNL     1       6.670  27.092  56.078  1.00  0.00    -0.003 A 
HETATM    8  C   UNL     1       5.316  27.025  55.717  1.00  0.00     0.012 A 
HETATM    9  C   UNL     1       4.448  28.051  56.072  1.00  0.00     0.020 A 
HETATM   10  C   UNL     1       4.932  29.154  56.775  1.00  0.00     0.023 A 
HETATM   11 BR   UNL     1       3.664  30.505  57.208  1.00  0.00    -0.050 Br
ENDROOT
BRANCH   7  12
HETATM   12  C   UNL     1       7.608  25.991  55.648  1.00  0.00     0.275 C 
BRANCH  12  13
HETATM   13  N   UNL     1       7.050  25.095  54.576  1.00  0.00    -0.067 N 
HETATM   14  H   UNL     1       6.044  25.354  54.553  1.00  0.00     0.280 HD
HETATM   15  C   UNL     1       7.157  23.623  54.872  1.00  0.00     0.240 C 
HETATM   16  C   UNL     1       8.185  23.115  53.868  1.00  0.00     0.015 C 
HETATM   17  C   UNL     1       7.848  23.945  52.634  1.00  0.00     0.034 C 
HETATM   18  C   UNL     1       7.621  25.334  53.198  1.00  0.00     0.235 C 
BRANCH  16  19
HETATM   19  C   UNL     1       8.101  21.595  53.686  1.00  0.00     0.032 C 
BRANCH  19  20
HETATM   20  C   UNL     1       8.638  20.803  54.874  1.00  0.00     0.164 C 
BRANCH  20  21
HETATM   21  O   UNL     1       8.961  19.486  54.463  1.00  0.00    -0.401 OA
HETATM   22  H   UNL     1       9.432  19.558  53.612  1.00  0.00     0.209 HD
ENDBRANCH  20  21
ENDBRANCH  19  20
ENDBRANCH  16  19
ENDBRANCH  12  13
ENDBRANCH   7  12
TORSDOF 5
ENDMDL
MODEL 5
REMARK VINA RESULT:      -6.8      3.711      5.642
REMARK  5 active torsions:
REMARK  status: ('A' for Active; 'I' for Inactive)
REMARK    1  A    between atoms: C_7  and  C_8 
REMARK    2  A    between atoms: C_8  and  N_9 
REMARK    3  A    between atoms: C_12  and  C_13 
REMARK    4  A    between atoms: C_13  and  C_14 
REMARK    5  A    between atoms: C_14  and  O_15 
ROOT
HETATM    1  C   UNL     1       8.771  22.232  53.809  1.00  0.00     0.020 A 
HETATM    2  C   UNL     1       7.828  22.516  52.847  1.00  0.00     0.117 A 
HETATM    3  N   UNL     1       6.853  23.443  53.000  1.00  0.00    -0.260 NA
HETATM    4  C   UNL     1       6.819  24.151  54.152  1.00  0.00     0.076 A 
HETATM    5  C   UNL     1       7.729  23.931  55.212  1.00  0.00     0.011 A 
HETATM    6  C   UNL     1       8.716  22.942  55.002  1.00  0.00     0.016 A 
HETATM    7  C   UNL     1       5.825  25.125  54.295  1.00  0.00    -0.003 A 
HETATM    8  C   UNL     1       5.721  25.883  55.471  1.00  0.00     0.012 A 
HETATM    9  C   UNL     1       6.604  25.665  56.521  1.00  0.00     0.020 A 
HETATM   10  C   UNL     1       7.603  24.699  56.396  1.00  0.00     0.023 A 
HETATM   11 BR   UNL     1       8.763  24.481  57.889  1.00  0.00    -0.050 Br
ENDROOT
BRANCH   7  12
HETATM   12  C   UNL     1       4.885  25.405  53.146  1.00  0.00     0.275 C 
BRANCH  12  13
HETATM   13  N   UNL     1       5.489  26.241  52.051  1.00  0.00    -0.067 N 
HETATM   14  H   UNL     1       6.505  26.035  52.131  1.00  0.00     0.280 HD
HETATM   15  C   UNL     1       5.289  27.724  52.214  1.00  0.00     0.240 C 
HETATM   16  C   UNL     1       4.326  28.095  51.092  1.00  0.00     0.015 C 
HETATM   17  C   UNL     1       4.805  27.189  49.963  1.00  0.00     0.034 C 
HETATM   18  C   UNL     1       5.049  25.863  50.657  1.00  0.00     0.235 C 
BRANCH  16  19
HETATM   19  C   UNL     1       4.355  29.598  50.792  1.00  0.00     0.032 C 
BRANCH  19  20
HETATM   20  C   UNL     1       5.527  30.028  49.916  1.00  0.00     0.164 C 
BRANCH  20  21
HETATM   21  O   UNL     1       6.283  31.022  50.585  1.00  0.00    -0.401 OA
HETATM   22  H   UNL     1       5.734  31.357  51.318  1.00  0.00     0.209 HD
ENDBRANCH  20  21
ENDBRANCH  19  20
ENDBRANCH  16  19
ENDBRANCH  12  13
ENDBRANCH   7  12
TORSDOF 5
ENDMDL
MODEL 6
REMARK VINA RESULT:      -6.8      5.007      7.118
REMARK  5 active torsions:
REMARK  status: ('A' for Active; 'I' for Inactive)
REMARK    1  A    between atoms: C_7  and  C_8 
REMARK    2  A    between atoms: C_8  and  N_9 
REMARK    3  A    between atoms: C_12  and  C_13 
REMARK    4  A    between atoms: C_13  and  C_14 
REMARK    5  A    between atoms: C_14  and  O_15 
ROOT
HETATM    1  C   UNL     1      10.962  29.737  56.923  1.00  0.00     0.020 A 
HETATM    2  C   UNL     1      10.806  30.732  57.862  1.00  0.00     0.117 A 
HETATM    3  N   UNL     1       9.604  31.138  58.336  1.00  0.00    -0.260 NA
HETATM    4  C   UNL     1       8.494  30.513  57.884  1.00  0.00     0.076 A 
HETATM    5  C   UNL     1       8.537  29.488  56.908  1.00  0.00     0.011 A 
HETATM    6  C   UNL     1       9.817  29.116  56.440  1.00  0.00     0.016 A 
HETATM    7  C   UNL     1       7.257  30.918  58.395  1.00  0.00    -0.003 A 
HETATM    8  C   UNL     1       6.064  30.325  57.955  1.00  0.00     0.012 A 
HETATM    9  C   UNL     1       6.098  29.326  56.990  1.00  0.00     0.020 A 
HETATM   10  C   UNL     1       7.322  28.906  56.470  1.00  0.00     0.023 A 
HETATM   11 BR   UNL     1       7.259  27.531  55.157  1.00  0.00    -0.050 Br
ENDROOT
BRANCH   7  12
HETATM   12  C   UNL     1       7.207  31.971  59.476  1.00  0.00     0.275 C 
BRANCH  12  13
HETATM   13  N   UNL     1       7.103  31.414  60.869  1.00  0.00    -0.067 N 
HETATM   14  H   UNL     1       6.522  30.562  60.738  1.00  0.00     0.280 HD
HETATM   15  C   UNL     1       6.412  32.317  61.855  1.00  0.00     0.240 C 
HETATM   16  C   UNL     1       7.524  32.756  62.801  1.00  0.00     0.015 C 
HETATM   17  C   UNL     1       8.359  31.485  62.905  1.00  0.00     0.034 C 
HETATM   18  C   UNL     1       8.419  30.987  61.475  1.00  0.00     0.235 C 
BRANCH  16  19
HETATM   19  C   UNL     1       6.966  33.292  64.124  1.00  0.00     0.032 C 
BRANCH  19  20
HETATM   20  C   UNL     1       5.511  33.743  64.041  1.00  0.00     0.164 C 
BRANCH  20  21
HETATM   21  O   UNL     1       4.703  32.896  64.839  1.00  0.00    -0.401 OA
HETATM   22  H   UNL     1       4.581  33.340  65.699  1.00  0.00     0.209 HD
ENDBRANCH  20  21
ENDBRANCH  19  20
ENDBRANCH  16  19
ENDBRANCH  12  13
ENDBRANCH   7  12
TORSDOF 5
ENDMDL
MODEL 7
REMARK VINA RESULT:      -6.7      4.311      5.814
REMARK  5 active torsions:
REMARK  status: ('A' for Active; 'I' for Inactive)
REMARK    1  A    between atoms: C_7  and  C_8 
REMARK    2  A    between atoms: C_8  and  N_9 
REMARK    3  A    between atoms: C_12  and  C_13 
REMARK    4  A    between atoms: C_13  and  C_14 
REMARK    5  A    between atoms: C_14  and  O_15 
ROOT
HETATM    1  C   UNL     1       8.118  20.374  53.562  1.00  0.00     0.020 A 
HETATM    2  C   UNL     1       7.883  21.381  52.652  1.00  0.00     0.117 A 
HETATM    3  N   UNL     1       7.759  22.687  52.990  1.00  0.00    -0.260 NA
HETATM    4  C   UNL     1       7.901  23.027  54.291  1.00  0.00     0.076 A 
HETATM    5  C   UNL     1       8.129  22.072  55.311  1.00  0.00     0.011 A 
HETATM    6  C   UNL     1       8.236  20.725  54.902  1.00  0.00     0.016 A 
HETATM    7  C   UNL     1       7.796  24.379  54.632  1.00  0.00    -0.003 A 
HETATM    8  C   UNL     1       7.915  24.800  55.965  1.00  0.00     0.012 A 
HETATM    9  C   UNL     1       8.128  23.867  56.973  1.00  0.00     0.020 A 
HETATM   10  C   UNL     1       8.237  22.514  56.653  1.00  0.00     0.023 A 
HETATM   11 BR   UNL     1       8.532  21.320  58.105  1.00  0.00    -0.050 Br
ENDROOT
BRANCH   7  12
HETATM   12  C   UNL     1       7.609  25.409  53.543  1.00  0.00     0.275 C 
BRANCH  12  13
HETATM   13  N   UNL     1       6.195  25.516  53.040  1.00  0.00    -0.067 N 
HETATM   14  H   UNL     1       5.816  24.562  53.198  1.00  0.00     0.280 HD
HETATM   15  C   UNL     1       6.076  25.841  51.575  1.00  0.00     0.240 C 
HETATM   16  C   UNL     1       5.515  27.258  51.551  1.00  0.00     0.015 C 
HETATM   17  C   UNL     1       4.549  27.226  52.731  1.00  0.00     0.034 C 
HETATM   18  C   UNL     1       5.329  26.491  53.803  1.00  0.00     0.235 C 
BRANCH  16  19
HETATM   19  C   UNL     1       4.890  27.600  50.194  1.00  0.00     0.032 C 
BRANCH  19  20
HETATM   20  C   UNL     1       4.429  26.380  49.403  1.00  0.00     0.164 C 
BRANCH  20  21
HETATM   21  O   UNL     1       3.093  26.567  48.971  1.00  0.00    -0.401 OA
HETATM   22  H   UNL     1       2.940  25.951  48.231  1.00  0.00     0.209 HD
ENDBRANCH  20  21
ENDBRANCH  19  20
ENDBRANCH  16  19
ENDBRANCH  12  13
ENDBRANCH   7  12
TORSDOF 5
ENDMDL
MODEL 8
REMARK VINA RESULT:      -6.6      4.436      6.978
REMARK  5 active torsions:
REMARK  status: ('A' for Active; 'I' for Inactive)
REMARK    1  A    between atoms: C_7  and  C_8 
REMARK    2  A    between atoms: C_8  and  N_9 
REMARK    3  A    between atoms: C_12  and  C_13 
REMARK    4  A    between atoms: C_13  and  C_14 
REMARK    5  A    between atoms: C_14  and  O_15 
ROOT
HETATM    1  C   UNL     1       8.509  21.596  54.414  1.00  0.00     0.020 A 
HETATM    2  C   UNL     1       8.105  21.875  53.128  1.00  0.00     0.117 A 
HETATM    3  N   UNL     1       7.651  23.086  52.727  1.00  0.00    -0.260 NA
HETATM    4  C   UNL     1       7.618  24.088  53.634  1.00  0.00     0.076 A 
HETATM    5  C   UNL     1       7.997  23.909  54.986  1.00  0.00     0.011 A 
HETATM    6  C   UNL     1       8.448  22.621  55.350  1.00  0.00     0.016 A 
HETATM    7  C   UNL     1       7.172  25.345  53.210  1.00  0.00    -0.003 A 
HETATM    8  C   UNL     1       7.096  26.424  54.103  1.00  0.00     0.012 A 
HETATM    9  C   UNL     1       7.455  26.253  55.434  1.00  0.00     0.020 A 
HETATM   10  C   UNL     1       7.905  25.008  55.876  1.00  0.00     0.023 A 
HETATM   11 BR   UNL     1       8.375  24.881  57.715  1.00  0.00    -0.050 Br
ENDROOT
BRANCH   7  12
HETATM   12  C   UNL     1       6.821  25.557  51.757  1.00  0.00     0.275 C 
BRANCH  12  13
HETATM   13  N   UNL     1       5.505  26.255  51.542  1.00  0.00    -0.067 N 
HETATM   14  H   UNL     1       5.052  26.196  52.475  1.00  0.00     0.280 HD
HETATM   15  C   UNL     1       4.605  25.595  50.532  1.00  0.00     0.240 C 
HETATM   16  C   UNL     1       4.585  26.568  49.358  1.00  0.00     0.015 C 
HETATM   17  C   UNL     1       4.598  27.914  50.074  1.00  0.00     0.034 C 
HETATM   18  C   UNL     1       5.621  27.716  51.175  1.00  0.00     0.235 C 
BRANCH  16  19
HETATM   19  C   UNL     1       3.387  26.321  48.435  1.00  0.00     0.032 C 
BRANCH  19  20
HETATM   20  C   UNL     1       2.436  27.509  48.330  1.00  0.00     0.164 C 
BRANCH  20  21
HETATM   21  O   UNL     1       1.132  27.113  48.720  1.00  0.00    -0.401 OA
HETATM   22  H   UNL     1       0.576  27.125  47.919  1.00  0.00     0.209 HD
ENDBRANCH  20  21
ENDBRANCH  19  20
ENDBRANCH  16  19
ENDBRANCH  12  13
ENDBRANCH   7  12
TORSDOF 5
ENDMDL
MODEL 9
REMARK VINA RESULT:      -6.5      5.650      9.138
REMARK  5 active torsions:
REMARK  status: ('A' for Active; 'I' for Inactive)
REMARK    1  A    between atoms: C_7  and  C_8 
REMARK    2  A    between atoms: C_8  and  N_9 
REMARK    3  A    between atoms: C_12  and  C_13 
REMARK    4  A    between atoms: C_13  and  C_14 
REMARK    5  A    between atoms: C_14  and  O_15 
ROOT
HETATM    1  C   UNL     1       9.525  30.774  61.657  1.00  0.00     0.020 A 
HETATM    2  C   UNL     1       9.069  30.555  60.377  1.00  0.00     0.117 A 
HETATM    3  N   UNL     1       7.944  31.114  59.872  1.00  0.00    -0.260 NA
HETATM    4  C   UNL     1       7.241  31.959  60.661  1.00  0.00     0.076 A 
HETATM    5  C   UNL     1       7.611  32.244  61.997  1.00  0.00     0.011 A 
HETATM    6  C   UNL     1       8.785  31.621  62.473  1.00  0.00     0.016 A 
HETATM    7  C   UNL     1       6.093  32.554  60.128  1.00  0.00    -0.003 A 
HETATM    8  C   UNL     1       5.308  33.426  60.897  1.00  0.00     0.012 A 
HETATM    9  C   UNL     1       5.658  33.702  62.212  1.00  0.00     0.020 A 
HETATM   10  C   UNL     1       6.801  33.120  62.761  1.00  0.00     0.023 A 
HETATM   11 BR   UNL     1       7.194  33.565  64.569  1.00  0.00    -0.050 Br
ENDROOT
BRANCH   7  12
HETATM   12  C   UNL     1       5.724  32.299  58.686  1.00  0.00     0.275 C 
BRANCH  12  13
HETATM   13  N   UNL     1       4.889  31.065  58.477  1.00  0.00    -0.067 N 
HETATM   14  H   UNL     1       4.874  30.629  59.420  1.00  0.00     0.280 HD
HETATM   15  C   UNL     1       5.468  30.075  57.502  1.00  0.00     0.240 C 
HETATM   16  C   UNL     1       4.528  30.138  56.304  1.00  0.00     0.015 C 
HETATM   17  C   UNL     1       3.175  30.317  56.984  1.00  0.00     0.034 C 
HETATM   18  C   UNL     1       3.460  31.336  58.070  1.00  0.00     0.235 C 
BRANCH  16  19
HETATM   19  C   UNL     1       4.661  28.900  55.411  1.00  0.00     0.032 C 
BRANCH  19  20
HETATM   20  C   UNL     1       5.300  27.703  56.109  1.00  0.00     0.164 C 
BRANCH  20  21
HETATM   21  O   UNL     1       4.295  26.917  56.723  1.00  0.00    -0.401 OA
HETATM   22  H   UNL     1       3.604  26.756  56.053  1.00  0.00     0.209 HD
ENDBRANCH  20  21
ENDBRANCH  19  20
ENDBRANCH  16  19
ENDBRANCH  12  13
ENDBRANCH   7  12
TORSDOF 5
ENDMDL
MODEL 10
REMARK VINA RESULT:      -6.4      8.698     11.937
REMARK  5 active torsions:
REMARK  status: ('A' for Active; 'I' for Inactive)
REMARK    1  A    between atoms: C_7  and  C_8 
REMARK    2  A    between atoms: C_8  and  N_9 
REMARK    3  A    between atoms: C_12  and  C_13 
REMARK    4  A    between atoms: C_13  and  C_14 
REMARK    5  A    between atoms: C_14  and  O_15 
ROOT
HETATM    1  C   UNL     1       4.649  35.373  66.380  1.00  0.00     0.020 A 
HETATM    2  C   UNL     1       4.196  34.130  66.000  1.00  0.00     0.117 A 
HETATM    3  N   UNL     1       4.099  33.725  64.711  1.00  0.00    -0.260 NA
HETATM    4  C   UNL     1       4.497  34.580  63.741  1.00  0.00     0.076 A 
HETATM    5  C   UNL     1       4.965  35.886  64.018  1.00  0.00     0.011 A 
HETATM    6  C   UNL     1       5.031  36.258  65.379  1.00  0.00     0.016 A 
HETATM    7  C   UNL     1       4.419  34.148  62.413  1.00  0.00    -0.003 A 
HETATM    8  C   UNL     1       4.798  34.990  61.356  1.00  0.00     0.012 A 
HETATM    9  C   UNL     1       5.248  36.278  61.619  1.00  0.00     0.020 A 
HETATM   10  C   UNL     1       5.335  36.725  62.938  1.00  0.00     0.023 A 
HETATM   11 BR   UNL     1       5.967  38.503  63.190  1.00  0.00    -0.050 Br
ENDROOT
BRANCH   7  12
HETATM   12  C   UNL     1       3.974  32.737  62.114  1.00  0.00     0.275 C 
BRANCH  12  13
HETATM   13  N   UNL     1       5.050  31.868  61.522  1.00  0.00    -0.067 N 
HETATM   14  H   UNL     1       4.564  30.962  61.370  1.00  0.00     0.280 HD
HETATM   15  C   UNL     1       6.230  31.631  62.426  1.00  0.00     0.240 C 
HETATM   16  C   UNL     1       7.369  32.393  61.760  1.00  0.00     0.015 C 
HETATM   17  C   UNL     1       7.077  32.154  60.282  1.00  0.00     0.034 C 
HETATM   18  C   UNL     1       5.576  32.340  60.187  1.00  0.00     0.235 C 
BRANCH  16  19
HETATM   19  C   UNL     1       8.740  31.913  62.250  1.00  0.00     0.032 C 
BRANCH  19  20
HETATM   20  C   UNL     1       9.249  30.668  61.529  1.00  0.00     0.164 C 
BRANCH  20  21
HETATM   21  O   UNL     1       9.195  29.555  62.404  1.00  0.00    -0.401 OA
HETATM   22  H   UNL     1       8.681  29.828  63.187  1.00  0.00     0.209 HD
ENDBRANCH  20  21
ENDBRANCH  19  20
ENDBRANCH  16  19
ENDBRANCH  12  13
ENDBRANCH   7  12
TORSDOF 5
ENDMDL
