MODEL 1
REMARK VINA RESULT:      -9.4      0.000      0.000
REMARK  5 active torsions:
REMARK  status: ('A' for Active; 'I' for Inactive)
REMARK    1  A    between atoms: N_2  and  C_4 
REMARK    2  A    between atoms: C_4  and  C_5 
REMARK    3  A    between atoms: C_5  and  N_6 
REMARK    4  A    between atoms: C_11  and  C_12 
REMARK    5  A    between atoms: C_14  and  O_15 
ROOT
HETATM    1  N   UNL     1       5.171  27.281  54.874  1.00  0.00    -0.332 N 
HETATM    2  C   UNL     1       5.348  26.511  53.726  1.00  0.00     0.279 C 
HETATM    3  O   UNL     1       4.931  26.779  52.615  1.00  0.00    -0.265 OA
HETATM    4  C   UNL     1       6.144  25.335  54.113  1.00  0.00     0.156 A 
HETATM    5  C   UNL     1       6.484  25.518  55.387  1.00  0.00     0.060 A 
HETATM    6  C   UNL     1       6.000  26.786  55.975  1.00  0.00     0.161 C 
HETATM    7  O   UNL     1       6.466  24.283  53.304  1.00  0.00    -0.303 OA
HETATM    8  C   UNL     1       7.261  23.310  53.875  1.00  0.00     0.090 A 
HETATM    9  C   UNL     1       7.674  23.351  55.218  1.00  0.00     0.051 A 
HETATM   10  C   UNL     1       7.245  24.482  56.071  1.00  0.00     0.196 A 
HETATM   11  O   UNL     1       7.484  24.550  57.266  1.00  0.00    -0.287 OA
HETATM   12  C   UNL     1       7.655  22.252  53.054  1.00  0.00     0.041 A 
HETATM   13  C   UNL     1       8.463  21.242  53.578  1.00  0.00     0.045 A 
HETATM   14  C   UNL     1       8.865  21.294  54.912  1.00  0.00     0.117 A 
HETATM   15  F   UNL     1       9.642  20.320  55.401  1.00  0.00    -0.206 F 
HETATM   16  C   UNL     1       8.478  22.339  55.743  1.00  0.00     0.060 A 
ENDROOT
BRANCH   6  17
HETATM   17  C   UNL     1       7.102  27.755  56.360  1.00  0.00    -0.028 A 
HETATM   18  C   UNL     1       7.224  28.164  57.699  1.00  0.00     0.046 A 
HETATM   19  C   UNL     1       8.200  29.089  58.059  1.00  0.00     0.066 A 
HETATM   20  C   UNL     1       9.068  29.618  57.114  1.00  0.00     0.036 A 
HETATM   21  C   UNL     1       8.979  29.202  55.788  1.00  0.00     0.003 A 
HETATM   22  C   UNL     1       8.005  28.275  55.413  1.00  0.00     0.010 A 
BRANCH  19  23
HETATM   23  O   UNL     1       8.332  29.513  59.347  1.00  0.00    -0.361 OA
HETATM   24  H   UNL     1       7.501  29.929  59.632  1.00  0.00     0.217 HD
ENDBRANCH  19  23
ENDBRANCH   6  17
BRANCH   1  25
HETATM   25  C   UNL     1       4.661  28.645  54.825  1.00  0.00     0.155 C 
BRANCH  25  26
HETATM   26  C   UNL     1       3.768  29.033  56.020  1.00  0.00     0.254 C 
BRANCH  26  27
HETATM   27  N   UNL     1       4.438  30.072  56.910  1.00  0.00    -0.077 N 
HETATM   28  C   UNL     1       3.486  30.834  57.788  1.00  0.00     0.269 C 
HETATM   29  H   UNL     1       5.088  29.561  57.525  1.00  0.00     0.279 HD
HETATM   30  C   UNL     1       5.297  31.006  56.096  1.00  0.00     0.269 C 
ENDBRANCH  26  27
ENDBRANCH  25  26
ENDBRANCH   1  25
TORSDOF 5
ENDMDL
MODEL 2
REMARK VINA RESULT:      -9.4      2.186      4.174
REMARK  5 active torsions:
REMARK  status: ('A' for Active; 'I' for Inactive)
REMARK    1  A    between atoms: N_2  and  C_4 
REMARK    2  A    between atoms: C_4  and  C_5 
REMARK    3  A    between atoms: C_5  and  N_6 
REMARK    4  A    between atoms: C_11  and  C_12 
REMARK    5  A    between atoms: C_14  and  O_15 
ROOT
HETATM    1  N   UNL     1       7.398  27.223  56.097  1.00  0.00    -0.332 N 
HETATM    2  C   UNL     1       7.224  26.054  56.835  1.00  0.00     0.279 C 
HETATM    3  O   UNL     1       6.916  25.990  58.010  1.00  0.00    -0.265 OA
HETATM    4  C   UNL     1       7.465  24.925  55.921  1.00  0.00     0.156 A 
HETATM    5  C   UNL     1       7.644  25.456  54.713  1.00  0.00     0.060 A 
HETATM    6  C   UNL     1       7.531  26.930  54.668  1.00  0.00     0.161 C 
HETATM    7  O   UNL     1       7.484  23.605  56.265  1.00  0.00    -0.303 OA
HETATM    8  C   UNL     1       7.688  22.718  55.227  1.00  0.00     0.090 A 
HETATM    9  C   UNL     1       7.924  23.131  53.903  1.00  0.00     0.051 A 
HETATM   10  C   UNL     1       7.955  24.578  53.594  1.00  0.00     0.196 A 
HETATM   11  O   UNL     1       8.239  25.024  52.493  1.00  0.00    -0.287 OA
HETATM   12  C   UNL     1       7.654  21.358  55.538  1.00  0.00     0.041 A 
HETATM   13  C   UNL     1       7.851  20.417  54.527  1.00  0.00     0.045 A 
HETATM   14  C   UNL     1       8.083  20.840  53.219  1.00  0.00     0.117 A 
HETATM   15  F   UNL     1       8.268  19.927  52.258  1.00  0.00    -0.206 F 
HETATM   16  C   UNL     1       8.124  22.191  52.893  1.00  0.00     0.060 A 
ENDROOT
BRANCH   6  17
HETATM   17  C   UNL     1       6.356  27.440  53.854  1.00  0.00    -0.028 A 
HETATM   18  C   UNL     1       6.570  28.431  52.880  1.00  0.00     0.046 A 
HETATM   19  C   UNL     1       5.495  28.942  52.158  1.00  0.00     0.066 A 
HETATM   20  C   UNL     1       4.203  28.486  52.379  1.00  0.00     0.036 A 
HETATM   21  C   UNL     1       3.979  27.485  53.320  1.00  0.00     0.003 A 
HETATM   22  C   UNL     1       5.046  26.963  54.051  1.00  0.00     0.010 A 
BRANCH  19  23
HETATM   23  O   UNL     1       5.673  29.912  51.218  1.00  0.00    -0.361 OA
HETATM   24  H   UNL     1       5.393  30.767  51.585  1.00  0.00     0.217 HD
ENDBRANCH  19  23
ENDBRANCH   6  17
BRANCH   1  25
HETATM   25  C   UNL     1       6.986  28.527  56.597  1.00  0.00     0.155 C 
BRANCH  25  26
HETATM   26  C   UNL     1       8.091  29.601  56.559  1.00  0.00     0.254 C 
BRANCH  26  27
HETATM   27  N   UNL     1       9.030  29.484  57.754  1.00  0.00    -0.077 N 
HETATM   28  C   UNL     1       8.502  30.112  59.013  1.00  0.00     0.269 C 
HETATM   29  H   UNL     1       9.155  28.478  57.937  1.00  0.00     0.279 HD
HETATM   30  C   UNL     1      10.402  30.010  57.416  1.00  0.00     0.269 C 
ENDBRANCH  26  27
ENDBRANCH  25  26
ENDBRANCH   1  25
TORSDOF 5
ENDMDL
MODEL 3
REMARK VINA RESULT:      -9.3      1.501      1.970
REMARK  5 active torsions:
REMARK  status: ('A' for Active; 'I' for Inactive)
REMARK    1  A    between atoms: N_2  and  C_4 
REMARK    2  A    between atoms: C_4  and  C_5 
REMARK    3  A    between atoms: C_5  and  N_6 
REMARK    4  A    between atoms: C_11  and  C_12 
REMARK    5  A    between atoms: C_14  and  O_15 
ROOT
HETATM    1  N   UNL     1       5.814  28.795  56.530  1.00  0.00    -0.332 N 
HETATM    2  C   UNL     1       5.614  28.124  55.325  1.00  0.00     0.279 C 
HETATM    3  O   UNL     1       4.953  28.524  54.386  1.00  0.00    -0.265 OA
HETATM    4  C   UNL     1       6.365  26.860  55.404  1.00  0.00     0.156 A 
HETATM    5  C   UNL     1       7.039  26.898  56.552  1.00  0.00     0.060 A 
HETATM    6  C   UNL     1       6.847  28.138  57.334  1.00  0.00     0.161 C 
HETATM    7  O   UNL     1       6.364  25.867  54.467  1.00  0.00    -0.303 OA
HETATM    8  C   UNL     1       7.181  24.788  54.737  1.00  0.00     0.090 A 
HETATM    9  C   UNL     1       7.928  24.673  55.923  1.00  0.00     0.051 A 
HETATM   10  C   UNL     1       7.846  25.748  56.936  1.00  0.00     0.196 A 
HETATM   11  O   UNL     1       8.390  25.687  58.027  1.00  0.00    -0.287 OA
HETATM   12  C   UNL     1       7.246  23.784  53.770  1.00  0.00     0.041 A 
HETATM   13  C   UNL     1       8.060  22.671  53.989  1.00  0.00     0.045 A 
HETATM   14  C   UNL     1       8.795  22.569  55.169  1.00  0.00     0.117 A 
HETATM   15  F   UNL     1       9.574  21.498  55.365  1.00  0.00    -0.206 F 
HETATM   16  C   UNL     1       8.739  23.559  56.144  1.00  0.00     0.060 A 
ENDROOT
BRANCH   6  17
HETATM   17  C   UNL     1       8.100  28.982  57.480  1.00  0.00    -0.028 A 
HETATM   18  C   UNL     1       8.290  29.738  58.650  1.00  0.00     0.046 A 
HETATM   19  C   UNL     1       9.411  30.553  58.779  1.00  0.00     0.066 A 
HETATM   20  C   UNL     1      10.358  30.633  57.767  1.00  0.00     0.036 A 
HETATM   21  C   UNL     1      10.198  29.869  56.614  1.00  0.00     0.003 A 
HETATM   22  C   UNL     1       9.080  29.047  56.471  1.00  0.00     0.010 A 
BRANCH  19  23
HETATM   23  O   UNL     1       9.613  31.306  59.896  1.00  0.00    -0.361 OA
HETATM   24  H   UNL     1      10.033  30.756  60.579  1.00  0.00     0.217 HD
ENDBRANCH  19  23
ENDBRANCH   6  17
BRANCH   1  25
HETATM   25  C   UNL     1       5.444  30.191  56.714  1.00  0.00     0.155 C 
BRANCH  25  26
HETATM   26  C   UNL     1       4.252  30.413  57.664  1.00  0.00     0.254 C 
BRANCH  26  27
HETATM   27  N   UNL     1       4.654  31.219  58.894  1.00  0.00    -0.077 N 
HETATM   28  C   UNL     1       3.493  31.771  59.673  1.00  0.00     0.269 C 
HETATM   29  H   UNL     1       5.168  30.577  59.514  1.00  0.00     0.279 HD
HETATM   30  C   UNL     1       5.634  32.305  58.530  1.00  0.00     0.269 C 
ENDBRANCH  26  27
ENDBRANCH  25  26
ENDBRANCH   1  25
TORSDOF 5
ENDMDL
MODEL 4
REMARK VINA RESULT:      -9.3      1.680      2.303
REMARK  5 active torsions:
REMARK  status: ('A' for Active; 'I' for Inactive)
REMARK    1  A    between atoms: N_2  and  C_4 
REMARK    2  A    between atoms: C_4  and  C_5 
REMARK    3  A    between atoms: C_5  and  N_6 
REMARK    4  A    between atoms: C_11  and  C_12 
REMARK    5  A    between atoms: C_14  and  O_15 
ROOT
HETATM    1  N   UNL     1       5.320  26.870  53.847  1.00  0.00    -0.332 N 
HETATM    2  C   UNL     1       5.730  25.992  52.844  1.00  0.00     0.279 C 
HETATM    3  O   UNL     1       5.598  26.164  51.647  1.00  0.00    -0.265 OA
HETATM    4  C   UNL     1       6.363  24.841  53.509  1.00  0.00     0.156 A 
HETATM    5  C   UNL     1       6.401  25.136  54.807  1.00  0.00     0.060 A 
HETATM    6  C   UNL     1       5.846  26.462  55.151  1.00  0.00     0.161 C 
HETATM    7  O   UNL     1       6.821  23.713  52.893  1.00  0.00    -0.303 OA
HETATM    8  C   UNL     1       7.419  22.781  53.718  1.00  0.00     0.090 A 
HETATM    9  C   UNL     1       7.505  22.939  55.113  1.00  0.00     0.051 A 
HETATM   10  C   UNL     1       6.936  24.153  55.739  1.00  0.00     0.196 A 
HETATM   11  O   UNL     1       6.890  24.327  56.946  1.00  0.00    -0.287 OA
HETATM   12  C   UNL     1       7.950  21.643  53.109  1.00  0.00     0.041 A 
HETATM   13  C   UNL     1       8.569  20.670  53.895  1.00  0.00     0.045 A 
HETATM   14  C   UNL     1       8.648  20.838  55.276  1.00  0.00     0.117 A 
HETATM   15  F   UNL     1       9.247  19.898  56.018  1.00  0.00    -0.206 F 
HETATM   16  C   UNL     1       8.121  21.964  55.898  1.00  0.00     0.060 A 
ENDROOT
BRANCH   6  17
HETATM   17  C   UNL     1       6.866  27.441  55.703  1.00  0.00    -0.028 A 
HETATM   18  C   UNL     1       6.853  27.751  57.074  1.00  0.00     0.046 A 
HETATM   19  C   UNL     1       7.752  28.682  57.586  1.00  0.00     0.066 A 
HETATM   20  C   UNL     1       8.674  29.314  56.763  1.00  0.00     0.036 A 
HETATM   21  C   UNL     1       8.719  28.997  55.409  1.00  0.00     0.003 A 
HETATM   22  C   UNL     1       7.824  28.065  54.881  1.00  0.00     0.010 A 
BRANCH  19  23
HETATM   23  O   UNL     1       7.753  29.011  58.908  1.00  0.00    -0.361 OA
HETATM   24  H   UNL     1       7.694  28.199  59.438  1.00  0.00     0.217 HD
ENDBRANCH  19  23
ENDBRANCH   6  17
BRANCH   1  25
HETATM   25  C   UNL     1       4.894  28.232  53.561  1.00  0.00     0.155 C 
BRANCH  25  26
HETATM   26  C   UNL     1       3.477  28.344  52.965  1.00  0.00     0.254 C 
BRANCH  26  27
HETATM   27  N   UNL     1       3.516  28.542  51.455  1.00  0.00    -0.077 N 
HETATM   28  C   UNL     1       4.661  29.390  50.976  1.00  0.00     0.269 C 
HETATM   29  H   UNL     1       3.624  27.607  51.035  1.00  0.00     0.279 HD
HETATM   30  C   UNL     1       2.198  29.067  50.946  1.00  0.00     0.269 C 
ENDBRANCH  26  27
ENDBRANCH  25  26
ENDBRANCH   1  25
TORSDOF 5
ENDMDL
MODEL 5
REMARK VINA RESULT:      -8.3      2.018      4.169
REMARK  5 active torsions:
REMARK  status: ('A' for Active; 'I' for Inactive)
REMARK    1  A    between atoms: N_2  and  C_4 
REMARK    2  A    between atoms: C_4  and  C_5 
REMARK    3  A    between atoms: C_5  and  N_6 
REMARK    4  A    between atoms: C_11  and  C_12 
REMARK    5  A    between atoms: C_14  and  O_15 
ROOT
HETATM    1  N   UNL     1       6.544  27.558  55.011  1.00  0.00    -0.332 N 
HETATM    2  C   UNL     1       6.257  26.481  55.847  1.00  0.00     0.279 C 
HETATM    3  O   UNL     1       5.645  26.535  56.897  1.00  0.00    -0.265 OA
HETATM    4  C   UNL     1       6.816  25.276  55.210  1.00  0.00     0.156 A 
HETATM    5  C   UNL     1       7.281  25.665  54.024  1.00  0.00     0.060 A 
HETATM    6  C   UNL     1       7.082  27.100  53.728  1.00  0.00     0.161 C 
HETATM    7  O   UNL     1       6.831  24.021  55.744  1.00  0.00    -0.303 OA
HETATM    8  C   UNL     1       7.372  23.035  54.943  1.00  0.00     0.090 A 
HETATM    9  C   UNL     1       7.930  23.299  53.679  1.00  0.00     0.051 A 
HETATM   10  C   UNL     1       7.945  24.689  53.172  1.00  0.00     0.196 A 
HETATM   11  O   UNL     1       8.487  25.018  52.128  1.00  0.00    -0.287 OA
HETATM   12  C   UNL     1       7.348  21.731  55.438  1.00  0.00     0.041 A 
HETATM   13  C   UNL     1       7.878  20.695  54.668  1.00  0.00     0.045 A 
HETATM   14  C   UNL     1       8.428  20.969  53.417  1.00  0.00     0.117 A 
HETATM   15  F   UNL     1       8.931  19.966  52.687  1.00  0.00    -0.206 F 
HETATM   16  C   UNL     1       8.463  22.263  52.911  1.00  0.00     0.060 A 
ENDROOT
BRANCH   6  17
HETATM   17  C   UNL     1       6.142  27.373  52.568  1.00  0.00    -0.028 A 
HETATM   18  C   UNL     1       5.532  26.292  51.906  1.00  0.00     0.046 A 
HETATM   19  C   UNL     1       4.705  26.524  50.811  1.00  0.00     0.066 A 
HETATM   20  C   UNL     1       4.462  27.813  50.358  1.00  0.00     0.036 A 
HETATM   21  C   UNL     1       5.035  28.895  51.020  1.00  0.00     0.003 A 
HETATM   22  C   UNL     1       5.867  28.678  52.119  1.00  0.00     0.010 A 
BRANCH  19  23
HETATM   23  O   UNL     1       4.112  25.495  50.144  1.00  0.00    -0.361 OA
HETATM   24  H   UNL     1       3.860  25.795  49.254  1.00  0.00     0.217 HD
ENDBRANCH  19  23
ENDBRANCH   6  17
BRANCH   1  25
HETATM   25  C   UNL     1       5.923  28.863  55.182  1.00  0.00     0.155 C 
BRANCH  25  26
HETATM   26  C   UNL     1       4.408  28.814  55.466  1.00  0.00     0.254 C 
BRANCH  26  27
HETATM   27  N   UNL     1       4.075  29.379  56.841  1.00  0.00    -0.077 N 
HETATM   28  C   UNL     1       2.996  30.425  56.830  1.00  0.00     0.269 C 
HETATM   29  H   UNL     1       3.739  28.591  57.413  1.00  0.00     0.279 HD
HETATM   30  C   UNL     1       5.316  29.884  57.533  1.00  0.00     0.269 C 
ENDBRANCH  26  27
ENDBRANCH  25  26
ENDBRANCH   1  25
TORSDOF 5
ENDMDL
MODEL 6
REMARK VINA RESULT:      -7.8      7.180     11.627
REMARK  5 active torsions:
REMARK  status: ('A' for Active; 'I' for Inactive)
REMARK    1  A    between atoms: N_2  and  C_4 
REMARK    2  A    between atoms: C_4  and  C_5 
REMARK    3  A    between atoms: C_5  and  N_6 
REMARK    4  A    between atoms: C_11  and  C_12 
REMARK    5  A    between atoms: C_14  and  O_15 
ROOT
HETATM    1  N   UNL     1       5.089  32.588  60.281  1.00  0.00    -0.332 N 
HETATM    2  C   UNL     1       6.290  32.721  60.974  1.00  0.00     0.279 C 
HETATM    3  O   UNL     1       7.404  32.593  60.504  1.00  0.00    -0.265 OA
HETATM    4  C   UNL     1       5.950  33.060  62.366  1.00  0.00     0.156 A 
HETATM    5  C   UNL     1       4.629  33.221  62.399  1.00  0.00     0.060 A 
HETATM    6  C   UNL     1       3.957  33.039  61.094  1.00  0.00     0.161 C 
HETATM    7  O   UNL     1       6.834  33.189  63.398  1.00  0.00    -0.303 OA
HETATM    8  C   UNL     1       6.289  33.556  64.612  1.00  0.00     0.090 A 
HETATM    9  C   UNL     1       4.907  33.732  64.807  1.00  0.00     0.051 A 
HETATM   10  C   UNL     1       3.984  33.519  63.670  1.00  0.00     0.196 A 
HETATM   11  O   UNL     1       2.769  33.564  63.773  1.00  0.00    -0.287 OA
HETATM   12  C   UNL     1       7.174  33.754  65.672  1.00  0.00     0.041 A 
HETATM   13  C   UNL     1       6.678  34.129  66.921  1.00  0.00     0.045 A 
HETATM   14  C   UNL     1       5.306  34.301  67.101  1.00  0.00     0.117 A 
HETATM   15  F   UNL     1       4.843  34.664  68.303  1.00  0.00    -0.206 F 
HETATM   16  C   UNL     1       4.410  34.104  66.056  1.00  0.00     0.060 A 
ENDROOT
BRANCH   6  17
HETATM   17  C   UNL     1       3.308  34.297  60.547  1.00  0.00    -0.028 A 
HETATM   18  C   UNL     1       1.953  34.267  60.173  1.00  0.00     0.046 A 
HETATM   19  C   UNL     1       1.356  35.399  59.626  1.00  0.00     0.066 A 
HETATM   20  C   UNL     1       2.077  36.571  59.444  1.00  0.00     0.036 A 
HETATM   21  C   UNL     1       3.412  36.626  59.835  1.00  0.00     0.003 A 
HETATM   22  C   UNL     1       4.024  35.499  60.385  1.00  0.00     0.010 A 
BRANCH  19  23
HETATM   23  O   UNL     1       0.048  35.394  59.244  1.00  0.00    -0.361 OA
HETATM   24  H   UNL     1       0.000  35.399  58.273  1.00  0.00     0.217 HD
ENDBRANCH  19  23
ENDBRANCH   6  17
BRANCH   1  25
HETATM   25  C   UNL     1       5.033  32.517  58.827  1.00  0.00     0.155 C 
BRANCH  25  26
HETATM   26  C   UNL     1       4.233  31.319  58.279  1.00  0.00     0.254 C 
BRANCH  26  27
HETATM   27  N   UNL     1       5.138  30.134  57.966  1.00  0.00    -0.077 N 
HETATM   28  C   UNL     1       6.584  30.499  57.778  1.00  0.00     0.269 C 
HETATM   29  H   UNL     1       5.081  29.495  58.773  1.00  0.00     0.279 HD
HETATM   30  C   UNL     1       4.615  29.351  56.789  1.00  0.00     0.269 C 
ENDBRANCH  26  27
ENDBRANCH  25  26
ENDBRANCH   1  25
TORSDOF 5
ENDMDL
MODEL 7
REMARK VINA RESULT:      -7.8      2.811      4.996
REMARK  5 active torsions:
REMARK  status: ('A' for Active; 'I' for Inactive)
REMARK    1  A    between atoms: N_2  and  C_4 
REMARK    2  A    between atoms: C_4  and  C_5 
REMARK    3  A    between atoms: C_5  and  N_6 
REMARK    4  A    between atoms: C_11  and  C_12 
REMARK    5  A    between atoms: C_14  and  O_15 
ROOT
HETATM    1  N   UNL     1       5.724  27.982  53.751  1.00  0.00    -0.332 N 
HETATM    2  C   UNL     1       5.432  27.061  54.756  1.00  0.00     0.279 C 
HETATM    3  O   UNL     1       4.655  27.230  55.676  1.00  0.00    -0.265 OA
HETATM    4  C   UNL     1       6.225  25.852  54.478  1.00  0.00     0.156 A 
HETATM    5  C   UNL     1       6.829  26.063  53.310  1.00  0.00     0.060 A 
HETATM    6  C   UNL     1       6.514  27.365  52.683  1.00  0.00     0.161 C 
HETATM    7  O   UNL     1       6.301  24.744  55.271  1.00  0.00    -0.303 OA
HETATM    8  C   UNL     1       7.078  23.711  54.784  1.00  0.00     0.090 A 
HETATM    9  C   UNL     1       7.800  23.800  53.581  1.00  0.00     0.051 A 
HETATM   10  C   UNL     1       7.735  25.049  52.789  1.00  0.00     0.196 A 
HETATM   11  O   UNL     1       8.397  25.241  51.782  1.00  0.00    -0.287 OA
HETATM   12  C   UNL     1       7.127  22.542  55.544  1.00  0.00     0.041 A 
HETATM   13  C   UNL     1       7.894  21.465  55.098  1.00  0.00     0.045 A 
HETATM   14  C   UNL     1       8.606  21.566  53.903  1.00  0.00     0.117 A 
HETATM   15  F   UNL     1       9.335  20.524  53.485  1.00  0.00    -0.206 F 
HETATM   16  C   UNL     1       8.570  22.725  53.137  1.00  0.00     0.060 A 
ENDROOT
BRANCH   6  17
HETATM   17  C   UNL     1       5.751  27.259  51.376  1.00  0.00    -0.028 A 
HETATM   18  C   UNL     1       4.966  26.119  51.126  1.00  0.00     0.046 A 
HETATM   19  C   UNL     1       4.298  25.986  49.913  1.00  0.00     0.066 A 
HETATM   20  C   UNL     1       4.387  26.967  48.935  1.00  0.00     0.036 A 
HETATM   21  C   UNL     1       5.137  28.115  49.179  1.00  0.00     0.003 A 
HETATM   22  C   UNL     1       5.812  28.263  50.391  1.00  0.00     0.010 A 
BRANCH  19  23
HETATM   23  O   UNL     1       3.542  24.886  49.639  1.00  0.00    -0.361 OA
HETATM   24  H   UNL     1       2.995  24.675  50.414  1.00  0.00     0.217 HD
ENDBRANCH  19  23
ENDBRANCH   6  17
BRANCH   1  25
HETATM   25  C   UNL     1       4.933  29.188  53.547  1.00  0.00     0.155 C 
BRANCH  25  26
HETATM   26  C   UNL     1       3.455  28.927  53.197  1.00  0.00     0.254 C 
BRANCH  26  27
HETATM   27  N   UNL     1       2.903  29.992  52.257  1.00  0.00    -0.077 N 
HETATM   28  C   UNL     1       2.299  29.443  50.995  1.00  0.00     0.269 C 
HETATM   29  H   UNL     1       2.158  30.484  52.770  1.00  0.00     0.279 HD
HETATM   30  C   UNL     1       3.947  31.036  51.953  1.00  0.00     0.269 C 
ENDBRANCH  26  27
ENDBRANCH  25  26
ENDBRANCH   1  25
TORSDOF 5
ENDMDL
MODEL 8
REMARK VINA RESULT:      -7.1      5.325      8.040
REMARK  5 active torsions:
REMARK  status: ('A' for Active; 'I' for Inactive)
REMARK    1  A    between atoms: N_2  and  C_4 
REMARK    2  A    between atoms: C_4  and  C_5 
REMARK    3  A    between atoms: C_5  and  N_6 
REMARK    4  A    between atoms: C_11  and  C_12 
REMARK    5  A    between atoms: C_14  and  O_15 
ROOT
HETATM    1  N   UNL     1       5.219  29.748  49.373  1.00  0.00    -0.332 N 
HETATM    2  C   UNL     1       5.195  30.267  50.666  1.00  0.00     0.279 C 
HETATM    3  O   UNL     1       5.079  31.441  50.963  1.00  0.00    -0.265 OA
HETATM    4  C   UNL     1       5.318  29.128  51.592  1.00  0.00     0.156 A 
HETATM    5  C   UNL     1       5.290  28.031  50.838  1.00  0.00     0.060 A 
HETATM    6  C   UNL     1       5.132  28.286  49.390  1.00  0.00     0.161 C 
HETATM    7  O   UNL     1       5.427  29.207  52.950  1.00  0.00    -0.303 OA
HETATM    8  C   UNL     1       5.489  28.000  53.617  1.00  0.00     0.090 A 
HETATM    9  C   UNL     1       5.500  26.760  52.954  1.00  0.00     0.051 A 
HETATM   10  C   UNL     1       5.444  26.731  51.476  1.00  0.00     0.196 A 
HETATM   11  O   UNL     1       5.538  25.706  50.820  1.00  0.00    -0.287 OA
HETATM   12  C   UNL     1       5.540  28.049  55.011  1.00  0.00     0.041 A 
HETATM   13  C   UNL     1       5.600  26.858  55.737  1.00  0.00     0.045 A 
HETATM   14  C   UNL     1       5.610  25.635  55.068  1.00  0.00     0.117 A 
HETATM   15  F   UNL     1       5.665  24.501  55.776  1.00  0.00    -0.206 F 
HETATM   16  C   UNL     1       5.563  25.570  53.680  1.00  0.00     0.060 A 
ENDROOT
BRANCH   6  17
HETATM   17  C   UNL     1       3.830  27.770  48.805  1.00  0.00    -0.028 A 
HETATM   18  C   UNL     1       3.867  26.836  47.755  1.00  0.00     0.046 A 
HETATM   19  C   UNL     1       2.682  26.390  47.177  1.00  0.00     0.066 A 
HETATM   20  C   UNL     1       1.451  26.848  47.624  1.00  0.00     0.036 A 
HETATM   21  C   UNL     1       1.396  27.752  48.681  1.00  0.00     0.003 A 
HETATM   22  C   UNL     1       2.576  28.208  49.271  1.00  0.00     0.010 A 
BRANCH  19  23
HETATM   23  O   UNL     1       2.691  25.495  46.150  1.00  0.00    -0.361 OA
HETATM   24  H   UNL     1       2.263  25.895  45.375  1.00  0.00     0.217 HD
ENDBRANCH  19  23
ENDBRANCH   6  17
BRANCH   1  25
HETATM   25  C   UNL     1       4.857  30.544  48.209  1.00  0.00     0.155 C 
BRANCH  25  26
HETATM   26  C   UNL     1       3.666  31.496  48.435  1.00  0.00     0.254 C 
BRANCH  26  27
HETATM   27  N   UNL     1       2.685  31.458  47.269  1.00  0.00    -0.077 N 
HETATM   28  C   UNL     1       1.242  31.390  47.684  1.00  0.00     0.269 C 
HETATM   29  H   UNL     1       2.817  32.333  46.741  1.00  0.00     0.279 HD
HETATM   30  C   UNL     1       3.031  30.348  46.310  1.00  0.00     0.269 C 
ENDBRANCH  26  27
ENDBRANCH  25  26
ENDBRANCH   1  25
TORSDOF 5
ENDMDL
MODEL 9
REMARK VINA RESULT:      -7.0      8.588     11.148
REMARK  5 active torsions:
REMARK  status: ('A' for Active; 'I' for Inactive)
REMARK    1  A    between atoms: N_2  and  C_4 
REMARK    2  A    between atoms: C_4  and  C_5 
REMARK    3  A    between atoms: C_5  and  N_6 
REMARK    4  A    between atoms: C_11  and  C_12 
REMARK    5  A    between atoms: C_14  and  O_15 
ROOT
HETATM    1  N   UNL     1       5.900  34.142  63.280  1.00  0.00    -0.332 N 
HETATM    2  C   UNL     1       5.596  35.374  62.703  1.00  0.00     0.279 C 
HETATM    3  O   UNL     1       5.829  36.466  63.187  1.00  0.00    -0.265 OA
HETATM    4  C   UNL     1       4.963  35.099  61.403  1.00  0.00     0.156 A 
HETATM    5  C   UNL     1       5.028  33.781  61.229  1.00  0.00     0.060 A 
HETATM    6  C   UNL     1       5.698  33.050  62.326  1.00  0.00     0.161 C 
HETATM    7  O   UNL     1       4.432  36.030  60.557  1.00  0.00    -0.303 OA
HETATM    8  C   UNL     1       3.927  35.541  59.369  1.00  0.00     0.090 A 
HETATM    9  C   UNL     1       3.898  34.169  59.058  1.00  0.00     0.051 A 
HETATM   10  C   UNL     1       4.430  33.195  60.037  1.00  0.00     0.196 A 
HETATM   11  O   UNL     1       4.363  31.986  59.885  1.00  0.00    -0.287 OA
HETATM   12  C   UNL     1       3.431  36.474  58.458  1.00  0.00     0.041 A 
HETATM   13  C   UNL     1       2.912  36.035  57.239  1.00  0.00     0.045 A 
HETATM   14  C   UNL     1       2.890  34.674  56.943  1.00  0.00     0.117 A 
HETATM   15  F   UNL     1       2.391  34.266  55.769  1.00  0.00    -0.206 F 
HETATM   16  C   UNL     1       3.376  33.731  57.841  1.00  0.00     0.060 A 
ENDROOT
BRANCH   6  17
HETATM   17  C   UNL     1       6.997  32.376  61.923  1.00  0.00    -0.028 A 
HETATM   18  C   UNL     1       7.665  32.804  60.763  1.00  0.00     0.046 A 
HETATM   19  C   UNL     1       8.832  32.164  60.356  1.00  0.00     0.066 A 
HETATM   20  C   UNL     1       9.358  31.104  61.081  1.00  0.00     0.036 A 
HETATM   21  C   UNL     1       8.723  30.687  62.247  1.00  0.00     0.003 A 
HETATM   22  C   UNL     1       7.553  31.319  62.669  1.00  0.00     0.010 A 
BRANCH  19  23
HETATM   23  O   UNL     1       9.493  32.551  59.228  1.00  0.00    -0.361 OA
HETATM   24  H   UNL     1       8.970  33.229  58.769  1.00  0.00     0.217 HD
ENDBRANCH  19  23
ENDBRANCH   6  17
BRANCH   1  25
HETATM   25  C   UNL     1       6.768  34.021  64.442  1.00  0.00     0.155 C 
BRANCH  25  26
HETATM   26  C   UNL     1       6.023  33.782  65.770  1.00  0.00     0.254 C 
BRANCH  26  27
HETATM   27  N   UNL     1       5.107  34.949  66.119  1.00  0.00    -0.077 N 
HETATM   28  C   UNL     1       5.259  35.449  67.528  1.00  0.00     0.269 C 
HETATM   29  H   UNL     1       5.356  35.722  65.485  1.00  0.00     0.279 HD
HETATM   30  C   UNL     1       3.669  34.617  65.809  1.00  0.00     0.269 C 
ENDBRANCH  26  27
ENDBRANCH  25  26
ENDBRANCH   1  25
TORSDOF 5
ENDMDL
MODEL 10
REMARK VINA RESULT:      -7.0      9.129     13.578
REMARK  5 active torsions:
REMARK  status: ('A' for Active; 'I' for Inactive)
REMARK    1  A    between atoms: N_2  and  C_4 
REMARK    2  A    between atoms: C_4  and  C_5 
REMARK    3  A    between atoms: C_5  and  N_6 
REMARK    4  A    between atoms: C_11  and  C_12 
REMARK    5  A    between atoms: C_14  and  O_15 
ROOT
HETATM    1  N   UNL     1       5.415  33.645  62.407  1.00  0.00    -0.332 N 
HETATM    2  C   UNL     1       4.444  34.040  61.489  1.00  0.00     0.279 C 
HETATM    3  O   UNL     1       3.745  33.299  60.824  1.00  0.00    -0.265 OA
HETATM    4  C   UNL     1       4.418  35.513  61.494  1.00  0.00     0.156 A 
HETATM    5  C   UNL     1       5.253  35.896  62.458  1.00  0.00     0.060 A 
HETATM    6  C   UNL     1       5.893  34.784  63.194  1.00  0.00     0.161 C 
HETATM    7  O   UNL     1       3.670  36.304  60.672  1.00  0.00    -0.303 OA
HETATM    8  C   UNL     1       3.776  37.663  60.889  1.00  0.00     0.090 A 
HETATM    9  C   UNL     1       4.640  38.218  61.850  1.00  0.00     0.051 A 
HETATM   10  C   UNL     1       5.478  37.318  62.674  1.00  0.00     0.196 A 
HETATM   11  O   UNL     1       6.316  37.719  63.466  1.00  0.00    -0.287 OA
HETATM   12  C   UNL     1       2.978  38.495  60.103  1.00  0.00     0.041 A 
HETATM   13  C   UNL     1       3.043  39.878  60.283  1.00  0.00     0.045 A 
HETATM   14  C   UNL     1       3.903  40.416  61.239  1.00  0.00     0.117 A 
HETATM   15  F   UNL     1       3.954  41.743  61.403  1.00  0.00    -0.206 F 
HETATM   16  C   UNL     1       4.707  39.601  62.027  1.00  0.00     0.060 A 
ENDROOT
BRANCH   6  17
HETATM   17  C   UNL     1       5.496  34.694  64.656  1.00  0.00    -0.028 A 
HETATM   18  C   UNL     1       4.214  35.116  65.050  1.00  0.00     0.046 A 
HETATM   19  C   UNL     1       3.852  35.083  66.393  1.00  0.00     0.066 A 
HETATM   20  C   UNL     1       4.738  34.634  67.362  1.00  0.00     0.036 A 
HETATM   21  C   UNL     1       6.001  34.186  66.985  1.00  0.00     0.003 A 
HETATM   22  C   UNL     1       6.378  34.212  65.642  1.00  0.00     0.010 A 
BRANCH  19  23
HETATM   23  O   UNL     1       2.621  35.499  66.804  1.00  0.00    -0.361 OA
HETATM   24  H   UNL     1       1.995  34.759  66.731  1.00  0.00     0.217 HD
ENDBRANCH  19  23
ENDBRANCH   6  17
BRANCH   1  25
HETATM   25  C   UNL     1       5.538  32.267  62.863  1.00  0.00     0.155 C 
BRANCH  25  26
HETATM   26  C   UNL     1       6.865  31.586  62.476  1.00  0.00     0.254 C 
BRANCH  26  27
HETATM   27  N   UNL     1       7.510  32.255  61.268  1.00  0.00    -0.077 N 
HETATM   28  C   UNL     1       6.992  31.766  59.945  1.00  0.00     0.269 C 
HETATM   29  H   UNL     1       7.293  33.260  61.335  1.00  0.00     0.279 HD
HETATM   30  C   UNL     1       9.013  32.158  61.336  1.00  0.00     0.269 C 
ENDBRANCH  26  27
ENDBRANCH  25  26
ENDBRANCH   1  25
TORSDOF 5
ENDMDL
