MODEL 1
REMARK VINA RESULT:      -9.1      0.000      0.000
REMARK  10 active torsions:
REMARK  status: ('A' for Active; 'I' for Inactive)
REMARK    1  A    between atoms: O_2  and  C_3 
REMARK    2  A    between atoms: C_3  and  C_4 
REMARK    3  A    between atoms: C_6  and  C_7 
REMARK    4  A    between atoms: C_7  and  C_8 
REMARK    5  A    between atoms: C_8  and  N_9 
REMARK       I    between atoms: N_9  and  C_10 
REMARK       I    between atoms: C_10  and  N_17 
REMARK    6  A    between atoms: N_17  and  CA_18 
REMARK    7  A    between atoms: CA_18  and  C_19 
REMARK    8  A    between atoms: CA_18  and  CB_21 
REMARK    9  A    between atoms: C_19  and  O_20 
REMARK   10  A    between atoms: CB_21  and  CG_22 
ROOT
HETATM    1  N   UNK A   0       7.446  28.309  56.219  1.00  0.00    -0.343 N 
HETATM    2  C   UNK A   0       7.900  27.982  57.456  1.00  0.00     0.316 C 
HETATM    3  O   UNK A   0       7.649  26.919  58.013  1.00  0.00    -0.248 OA
HETATM    4  H   UNK A   0       7.890  29.068  55.731  1.00  0.00     0.164 HD
ATOM      5  N   TRP A   1       8.637  28.920  58.096  1.00  0.00    -0.336 N 
ATOM      6  H   TRP A   1       8.981  28.596  58.994  1.00  0.00     0.164 HD
ENDROOT
BRANCH   5   7
ATOM      7  CA  TRP A   1       9.102  30.241  57.652  1.00  0.00     0.114 C 
BRANCH   7   8
ATOM      8  C   TRP A   1      10.416  30.073  56.855  1.00  0.00     0.189 C 
BRANCH   8   9
ATOM      9  O   TRP A   1      10.147  29.863  55.467  1.00  0.00    -0.399 OA
ATOM     10  H   TRP A   1      10.724  29.143  55.160  1.00  0.00     0.209 HD
ENDBRANCH   8   9
ENDBRANCH   7   8
BRANCH   7  11
ATOM     11  CB  TRP A   1       9.299  31.224  58.825  1.00  0.00     0.068 C 
BRANCH  11  12
ATOM     12  CG  TRP A   1       8.014  31.569  59.517  1.00  0.00    -0.028 A 
ATOM     13  CD2 TRP A   1       7.847  31.924  60.894  1.00  0.00    -0.002 A 
ATOM     14  CE2 TRP A   1       6.492  32.185  61.099  1.00  0.00     0.042 A 
ATOM     15  CE3 TRP A   1       8.725  32.053  61.991  1.00  0.00     0.014 A 
ATOM     16  CZ2 TRP A   1       5.970  32.574  62.338  1.00  0.00     0.030 A 
ATOM     17  NE1 TRP A   1       5.854  31.979  59.898  1.00  0.00    -0.365 N 
ATOM     18  CH2 TRP A   1       6.863  32.695  63.407  1.00  0.00     0.002 A 
ATOM     19  CZ3 TRP A   1       8.220  32.437  63.239  1.00  0.00     0.001 A 
ATOM     20  HE1 TRP A   1       4.859  32.088  59.754  1.00  0.00     0.165 HD
ATOM     21  CD1 TRP A   1       6.758  31.605  58.940  1.00  0.00     0.096 A 
ENDBRANCH  11  12
ENDBRANCH   7  11
ENDBRANCH   5   7
BRANCH   1  22
HETATM   22  C   UNK A   0       6.584  27.430  55.451  1.00  0.00     0.129 C 
BRANCH  22  23
HETATM   23  C   UNK A   0       7.120  27.078  54.055  1.00  0.00     0.058 C 
BRANCH  23  24
HETATM   24  C   UNK A   0       7.502  25.622  53.909  1.00  0.00    -0.056 A 
HETATM   25  C   UNK A   0       7.810  24.862  55.048  1.00  0.00     0.024 A 
HETATM   26  C   UNK A   0       8.139  23.504  54.936  1.00  0.00     0.040 A 
HETATM   27  C   UNK A   0       8.170  22.910  53.669  1.00  0.00     0.017 A 
HETATM   28  C   UNK A   0       7.868  23.660  52.532  1.00  0.00     0.002 A 
HETATM   29  C   UNK A   0       7.531  25.009  52.651  1.00  0.00     0.007 A 
BRANCH  26  30
HETATM   30  C   UNK A   0       8.457  22.661  56.121  1.00  0.00     0.292 C 
HETATM   31  O   UNK A   0       8.290  23.026  57.274  1.00  0.00    -0.259 OA
BRANCH  30  32
HETATM   32  O   UNK A   0       8.957  21.460  55.735  1.00  0.00    -0.323 OA
HETATM   33  C   UNK A   0       8.201  20.339  56.192  1.00  0.00     0.213 C 
ENDBRANCH  30  32
ENDBRANCH  26  30
ENDBRANCH  23  24
ENDBRANCH  22  23
ENDBRANCH   1  22
TORSDOF 10
ENDMDL
MODEL 2
REMARK VINA RESULT:      -9.0      1.855      2.804
REMARK  10 active torsions:
REMARK  status: ('A' for Active; 'I' for Inactive)
REMARK    1  A    between atoms: O_2  and  C_3 
REMARK    2  A    between atoms: C_3  and  C_4 
REMARK    3  A    between atoms: C_6  and  C_7 
REMARK    4  A    between atoms: C_7  and  C_8 
REMARK    5  A    between atoms: C_8  and  N_9 
REMARK       I    between atoms: N_9  and  C_10 
REMARK       I    between atoms: C_10  and  N_17 
REMARK    6  A    between atoms: N_17  and  CA_18 
REMARK    7  A    between atoms: CA_18  and  C_19 
REMARK    8  A    between atoms: CA_18  and  CB_21 
REMARK    9  A    between atoms: C_19  and  O_20 
REMARK   10  A    between atoms: CB_21  and  CG_22 
ROOT
HETATM    1  N   UNK A   0       6.987  27.550  56.902  1.00  0.00    -0.343 N 
HETATM    2  C   UNK A   0       7.100  28.573  56.017  1.00  0.00     0.316 C 
HETATM    3  O   UNK A   0       7.622  28.462  54.912  1.00  0.00    -0.248 OA
HETATM    4  H   UNK A   0       6.336  27.644  57.663  1.00  0.00     0.164 HD
ATOM      5  N   TRP A   1       6.635  29.778  56.424  1.00  0.00    -0.336 N 
ATOM      6  H   TRP A   1       6.709  30.486  55.701  1.00  0.00     0.164 HD
ENDROOT
BRANCH   5   7
ATOM      7  CA  TRP A   1       5.950  30.172  57.662  1.00  0.00     0.114 C 
BRANCH   7   8
ATOM      8  C   TRP A   1       4.435  30.303  57.382  1.00  0.00     0.189 C 
BRANCH   8   9
ATOM      9  O   TRP A   1       3.681  30.176  58.589  1.00  0.00    -0.399 OA
ATOM     10  H   TRP A   1       3.129  29.380  58.510  1.00  0.00     0.209 HD
ENDBRANCH   8   9
ENDBRANCH   7   8
BRANCH   7  11
ATOM     11  CB  TRP A   1       6.509  31.482  58.257  1.00  0.00     0.068 C 
BRANCH  11  12
ATOM     12  CG  TRP A   1       7.338  31.255  59.486  1.00  0.00    -0.028 A 
ATOM     13  CD2 TRP A   1       7.251  31.966  60.725  1.00  0.00    -0.002 A 
ATOM     14  CE2 TRP A   1       8.191  31.412  61.595  1.00  0.00     0.042 A 
ATOM     15  CE3 TRP A   1       6.455  33.033  61.194  1.00  0.00     0.014 A 
ATOM     16  CZ2 TRP A   1       8.371  31.861  62.908  1.00  0.00     0.030 A 
ATOM     17  NE1 TRP A   1       8.838  30.413  60.907  1.00  0.00    -0.365 N 
ATOM     18  CH2 TRP A   1       7.569  32.918  63.346  1.00  0.00     0.002 A 
ATOM     19  CZ3 TRP A   1       6.625  33.498  62.503  1.00  0.00     0.001 A 
ATOM     20  HE1 TRP A   1       9.580  29.843  61.291  1.00  0.00     0.165 HD
ATOM     21  CD1 TRP A   1       8.337  30.311  59.637  1.00  0.00     0.096 A 
ENDBRANCH  11  12
ENDBRANCH   7  11
ENDBRANCH   5   7
BRANCH   1  22
HETATM   22  C   UNK A   0       7.510  26.224  56.627  1.00  0.00     0.129 C 
BRANCH  22  23
HETATM   23  C   UNK A   0       6.488  25.254  56.014  1.00  0.00     0.058 C 
BRANCH  23  24
HETATM   24  C   UNK A   0       7.047  24.438  54.871  1.00  0.00    -0.056 A 
HETATM   25  C   UNK A   0       7.276  23.062  55.040  1.00  0.00     0.024 A 
HETATM   26  C   UNK A   0       7.766  22.282  53.983  1.00  0.00     0.040 A 
HETATM   27  C   UNK A   0       8.041  22.892  52.753  1.00  0.00     0.017 A 
HETATM   28  C   UNK A   0       7.820  24.258  52.579  1.00  0.00     0.002 A 
HETATM   29  C   UNK A   0       7.321  25.028  53.632  1.00  0.00     0.007 A 
BRANCH  26  30
HETATM   30  C   UNK A   0       8.007  20.820  54.118  1.00  0.00     0.292 C 
HETATM   31  O   UNK A   0       8.211  20.079  53.169  1.00  0.00    -0.259 OA
BRANCH  30  32
HETATM   32  O   UNK A   0       7.956  20.443  55.420  1.00  0.00    -0.323 OA
HETATM   33  C   UNK A   0       9.236  20.300  56.037  1.00  0.00     0.213 C 
ENDBRANCH  30  32
ENDBRANCH  26  30
ENDBRANCH  23  24
ENDBRANCH  22  23
ENDBRANCH   1  22
TORSDOF 10
ENDMDL
MODEL 3
REMARK VINA RESULT:      -8.8      3.358      9.021
REMARK  10 active torsions:
REMARK  status: ('A' for Active; 'I' for Inactive)
REMARK    1  A    between atoms: O_2  and  C_3 
REMARK    2  A    between atoms: C_3  and  C_4 
REMARK    3  A    between atoms: C_6  and  C_7 
REMARK    4  A    between atoms: C_7  and  C_8 
REMARK    5  A    between atoms: C_8  and  N_9 
REMARK       I    between atoms: N_9  and  C_10 
REMARK       I    between atoms: C_10  and  N_17 
REMARK    6  A    between atoms: N_17  and  CA_18 
REMARK    7  A    between atoms: CA_18  and  C_19 
REMARK    8  A    between atoms: CA_18  and  CB_21 
REMARK    9  A    between atoms: C_19  and  O_20 
REMARK   10  A    between atoms: CB_21  and  CG_22 
ROOT
HETATM    1  N   UNK A   0       5.603  28.213  54.489  1.00  0.00    -0.343 N 
HETATM    2  C   UNK A   0       4.440  28.232  53.788  1.00  0.00     0.316 C 
HETATM    3  O   UNK A   0       3.504  28.980  54.047  1.00  0.00    -0.248 OA
HETATM    4  H   UNK A   0       6.405  27.769  54.075  1.00  0.00     0.164 HD
ATOM      5  N   TRP A   1       4.329  27.337  52.779  1.00  0.00    -0.336 N 
ATOM      6  H   TRP A   1       3.456  27.434  52.270  1.00  0.00     0.164 HD
ENDROOT
BRANCH   5   7
ATOM      7  CA  TRP A   1       5.295  26.366  52.248  1.00  0.00     0.114 C 
BRANCH   7   8
ATOM      8  C   TRP A   1       5.264  26.414  50.704  1.00  0.00     0.189 C 
BRANCH   8   9
ATOM      9  O   TRP A   1       4.252  25.546  50.187  1.00  0.00    -0.399 OA
ATOM     10  H   TRP A   1       4.586  25.166  49.357  1.00  0.00     0.209 HD
ENDBRANCH   8   9
ENDBRANCH   7   8
BRANCH   7  11
ATOM     11  CB  TRP A   1       5.031  24.931  52.754  1.00  0.00     0.068 C 
BRANCH  11  12
ATOM     12  CG  TRP A   1       5.870  24.570  53.944  1.00  0.00    -0.028 A 
ATOM     13  CD2 TRP A   1       6.980  23.667  53.971  1.00  0.00    -0.002 A 
ATOM     14  CE2 TRP A   1       7.475  23.650  55.275  1.00  0.00     0.042 A 
ATOM     15  CE3 TRP A   1       7.617  22.861  53.003  1.00  0.00     0.014 A 
ATOM     16  CZ2 TRP A   1       8.576  22.876  55.661  1.00  0.00     0.030 A 
ATOM     17  NE1 TRP A   1       6.687  24.495  56.019  1.00  0.00    -0.365 N 
ATOM     18  CH2 TRP A   1       9.188  22.087  54.682  1.00  0.00     0.002 A 
ATOM     19  CZ3 TRP A   1       8.716  22.077  53.373  1.00  0.00     0.001 A 
ATOM     20  HE1 TRP A   1       6.812  24.672  57.006  1.00  0.00     0.165 HD
ATOM     21  CD1 TRP A   1       5.715  25.052  55.230  1.00  0.00     0.096 A 
ENDBRANCH  11  12
ENDBRANCH   7  11
ENDBRANCH   5   7
BRANCH   1  22
HETATM   22  C   UNK A   0       5.829  29.065  55.642  1.00  0.00     0.129 C 
BRANCH  22  23
HETATM   23  C   UNK A   0       6.653  28.412  56.762  1.00  0.00     0.058 C 
BRANCH  23  24
HETATM   24  C   UNK A   0       7.912  29.175  57.104  1.00  0.00    -0.056 A 
HETATM   25  C   UNK A   0       7.949  29.986  58.250  1.00  0.00     0.024 A 
HETATM   26  C   UNK A   0       9.117  30.679  58.600  1.00  0.00     0.040 A 
HETATM   27  C   UNK A   0      10.250  30.566  57.785  1.00  0.00     0.017 A 
HETATM   28  C   UNK A   0      10.219  29.765  56.644  1.00  0.00     0.002 A 
HETATM   29  C   UNK A   0       9.057  29.069  56.306  1.00  0.00     0.007 A 
BRANCH  26  30
HETATM   30  C   UNK A   0       9.200  31.536  59.813  1.00  0.00     0.292 C 
HETATM   31  O   UNK A   0       9.400  32.740  59.777  1.00  0.00    -0.259 OA
BRANCH  30  32
HETATM   32  O   UNK A   0       9.036  30.794  60.938  1.00  0.00    -0.323 OA
HETATM   33  C   UNK A   0       8.694  31.557  62.095  1.00  0.00     0.213 C 
ENDBRANCH  30  32
ENDBRANCH  26  30
ENDBRANCH  23  24
ENDBRANCH  22  23
ENDBRANCH   1  22
TORSDOF 10
ENDMDL
MODEL 4
REMARK VINA RESULT:      -8.7      2.817      9.920
REMARK  10 active torsions:
REMARK  status: ('A' for Active; 'I' for Inactive)
REMARK    1  A    between atoms: O_2  and  C_3 
REMARK    2  A    between atoms: C_3  and  C_4 
REMARK    3  A    between atoms: C_6  and  C_7 
REMARK    4  A    between atoms: C_7  and  C_8 
REMARK    5  A    between atoms: C_8  and  N_9 
REMARK       I    between atoms: N_9  and  C_10 
REMARK       I    between atoms: C_10  and  N_17 
REMARK    6  A    between atoms: N_17  and  CA_18 
REMARK    7  A    between atoms: CA_18  and  C_19 
REMARK    8  A    between atoms: CA_18  and  CB_21 
REMARK    9  A    between atoms: C_19  and  O_20 
REMARK   10  A    between atoms: CB_21  and  CG_22 
ROOT
HETATM    1  N   UNK A   0       6.449  29.322  57.876  1.00  0.00    -0.343 N 
HETATM    2  C   UNK A   0       6.470  28.924  56.578  1.00  0.00     0.316 C 
HETATM    3  O   UNK A   0       6.407  29.698  55.628  1.00  0.00    -0.248 OA
HETATM    4  H   UNK A   0       6.755  28.673  58.580  1.00  0.00     0.164 HD
ATOM      5  N   TRP A   1       6.525  27.589  56.357  1.00  0.00    -0.336 N 
ATOM      6  H   TRP A   1       6.582  27.363  55.369  1.00  0.00     0.164 HD
ENDROOT
BRANCH   5   7
ATOM      7  CA  TRP A   1       6.637  26.466  57.296  1.00  0.00     0.114 C 
BRANCH   7   8
ATOM      8  C   TRP A   1       8.127  26.088  57.457  1.00  0.00     0.189 C 
BRANCH   8   9
ATOM      9  O   TRP A   1       8.305  25.168  58.536  1.00  0.00    -0.399 OA
ATOM     10  H   TRP A   1       7.740  25.461  59.271  1.00  0.00     0.209 HD
ENDBRANCH   8   9
ENDBRANCH   7   8
BRANCH   7  11
ATOM     11  CB  TRP A   1       5.809  25.240  56.855  1.00  0.00     0.068 C 
BRANCH  11  12
ATOM     12  CG  TRP A   1       6.103  24.816  55.447  1.00  0.00    -0.028 A 
ATOM     13  CD2 TRP A   1       7.054  23.833  55.026  1.00  0.00    -0.002 A 
ATOM     14  CE2 TRP A   1       6.979  23.744  53.635  1.00  0.00     0.042 A 
ATOM     15  CE3 TRP A   1       7.975  23.003  55.699  1.00  0.00     0.014 A 
ATOM     16  CZ2 TRP A   1       7.769  22.866  52.885  1.00  0.00     0.030 A 
ATOM     17  NE1 TRP A   1       6.031  24.651  53.223  1.00  0.00    -0.365 N 
ATOM     18  CH2 TRP A   1       8.672  22.054  53.578  1.00  0.00     0.002 A 
ATOM     19  CZ3 TRP A   1       8.776  22.121  54.964  1.00  0.00     0.001 A 
ATOM     20  HE1 TRP A   1       5.773  24.807  52.258  1.00  0.00     0.165 HD
ATOM     21  CD1 TRP A   1       5.500  25.304  54.302  1.00  0.00     0.096 A 
ENDBRANCH  11  12
ENDBRANCH   7  11
ENDBRANCH   5   7
BRANCH   1  22
HETATM   22  C   UNK A   0       6.316  30.716  58.258  1.00  0.00     0.129 C 
BRANCH  22  23
HETATM   23  C   UNK A   0       7.641  31.399  58.633  1.00  0.00     0.058 C 
BRANCH  23  24
HETATM   24  C   UNK A   0       7.778  31.669  60.114  1.00  0.00    -0.056 A 
HETATM   25  C   UNK A   0       6.628  31.827  60.906  1.00  0.00     0.024 A 
HETATM   26  C   UNK A   0       6.734  32.050  62.286  1.00  0.00     0.040 A 
HETATM   27  C   UNK A   0       8.004  32.128  62.871  1.00  0.00     0.017 A 
HETATM   28  C   UNK A   0       9.150  31.976  62.090  1.00  0.00     0.002 A 
HETATM   29  C   UNK A   0       9.038  31.744  60.718  1.00  0.00     0.007 A 
BRANCH  26  30
HETATM   30  C   UNK A   0       5.541  32.206  63.161  1.00  0.00     0.292 C 
HETATM   31  O   UNK A   0       4.766  31.298  63.416  1.00  0.00    -0.259 OA
BRANCH  30  32
HETATM   32  O   UNK A   0       5.442  33.482  63.613  1.00  0.00    -0.323 OA
HETATM   33  C   UNK A   0       5.273  33.588  65.027  1.00  0.00     0.213 C 
ENDBRANCH  30  32
ENDBRANCH  26  30
ENDBRANCH  23  24
ENDBRANCH  22  23
ENDBRANCH   1  22
TORSDOF 10
ENDMDL
MODEL 5
REMARK VINA RESULT:      -8.7      2.658      9.616
REMARK  10 active torsions:
REMARK  status: ('A' for Active; 'I' for Inactive)
REMARK    1  A    between atoms: O_2  and  C_3 
REMARK    2  A    between atoms: C_3  and  C_4 
REMARK    3  A    between atoms: C_6  and  C_7 
REMARK    4  A    between atoms: C_7  and  C_8 
REMARK    5  A    between atoms: C_8  and  N_9 
REMARK       I    between atoms: N_9  and  C_10 
REMARK       I    between atoms: C_10  and  N_17 
REMARK    6  A    between atoms: N_17  and  CA_18 
REMARK    7  A    between atoms: CA_18  and  C_19 
REMARK    8  A    between atoms: CA_18  and  CB_21 
REMARK    9  A    between atoms: C_19  and  O_20 
REMARK   10  A    between atoms: CB_21  and  CG_22 
ROOT
HETATM    1  N   UNK A   0       6.628  28.190  55.363  1.00  0.00    -0.343 N 
HETATM    2  C   UNK A   0       5.618  27.331  55.657  1.00  0.00     0.316 C 
HETATM    3  O   UNK A   0       4.934  27.410  56.672  1.00  0.00    -0.248 OA
HETATM    4  H   UNK A   0       6.968  28.223  54.417  1.00  0.00     0.164 HD
ATOM      5  N   TRP A   1       5.408  26.323  54.778  1.00  0.00    -0.336 N 
ATOM      6  H   TRP A   1       4.613  25.746  55.034  1.00  0.00     0.164 HD
ENDROOT
BRANCH   5   7
ATOM      7  CA  TRP A   1       6.051  26.022  53.493  1.00  0.00     0.114 C 
BRANCH   7   8
ATOM      8  C   TRP A   1       5.235  24.933  52.761  1.00  0.00     0.189 C 
BRANCH   8   9
ATOM      9  O   TRP A   1       3.884  24.911  53.225  1.00  0.00    -0.399 OA
ATOM     10  H   TRP A   1       3.371  25.527  52.673  1.00  0.00     0.209 HD
ENDBRANCH   8   9
ENDBRANCH   7   8
BRANCH   7  11
ATOM     11  CB  TRP A   1       7.522  25.583  53.656  1.00  0.00     0.068 C 
BRANCH  11  12
ATOM     12  CG  TRP A   1       7.684  24.432  54.604  1.00  0.00    -0.028 A 
ATOM     13  CD2 TRP A   1       7.825  23.049  54.261  1.00  0.00    -0.002 A 
ATOM     14  CE2 TRP A   1       7.970  22.335  55.450  1.00  0.00     0.042 A 
ATOM     15  CE3 TRP A   1       7.848  22.334  53.045  1.00  0.00     0.014 A 
ATOM     16  CZ2 TRP A   1       8.143  20.946  55.488  1.00  0.00     0.030 A 
ATOM     17  NE1 TRP A   1       7.902  23.244  56.479  1.00  0.00    -0.365 N 
ATOM     18  CH2 TRP A   1       8.163  20.263  54.269  1.00  0.00     0.002 A 
ATOM     19  CZ3 TRP A   1       8.016  20.944  53.064  1.00  0.00     0.001 A 
ATOM     20  HE1 TRP A   1       7.969  23.003  57.459  1.00  0.00     0.165 HD
ATOM     21  CD1 TRP A   1       7.726  24.508  55.983  1.00  0.00     0.096 A 
ENDBRANCH  11  12
ENDBRANCH   7  11
ENDBRANCH   5   7
BRANCH   1  22
HETATM   22  C   UNK A   0       7.011  29.271  56.252  1.00  0.00     0.129 C 
BRANCH  22  23
HETATM   23  C   UNK A   0       8.049  28.878  57.315  1.00  0.00     0.058 C 
BRANCH  23  24
HETATM   24  C   UNK A   0       8.490  30.038  58.180  1.00  0.00    -0.056 A 
HETATM   25  C   UNK A   0       7.638  30.525  59.184  1.00  0.00     0.024 A 
HETATM   26  C   UNK A   0       8.041  31.580  60.015  1.00  0.00     0.040 A 
HETATM   27  C   UNK A   0       9.302  32.158  59.825  1.00  0.00     0.017 A 
HETATM   28  C   UNK A   0      10.152  31.681  58.827  1.00  0.00     0.002 A 
HETATM   29  C   UNK A   0       9.750  30.623  58.010  1.00  0.00     0.007 A 
BRANCH  26  30
HETATM   30  C   UNK A   0       7.174  32.115  61.100  1.00  0.00     0.292 C 
HETATM   31  O   UNK A   0       6.352  33.001  60.933  1.00  0.00    -0.259 OA
BRANCH  30  32
HETATM   32  O   UNK A   0       7.438  31.491  62.276  1.00  0.00    -0.323 OA
HETATM   33  C   UNK A   0       7.971  32.349  63.285  1.00  0.00     0.213 C 
ENDBRANCH  30  32
ENDBRANCH  26  30
ENDBRANCH  23  24
ENDBRANCH  22  23
ENDBRANCH   1  22
TORSDOF 10
ENDMDL
MODEL 6
REMARK VINA RESULT:      -8.5      5.079      8.947
REMARK  10 active torsions:
REMARK  status: ('A' for Active; 'I' for Inactive)
REMARK    1  A    between atoms: O_2  and  C_3 
REMARK    2  A    between atoms: C_3  and  C_4 
REMARK    3  A    between atoms: C_6  and  C_7 
REMARK    4  A    between atoms: C_7  and  C_8 
REMARK    5  A    between atoms: C_8  and  N_9 
REMARK       I    between atoms: N_9  and  C_10 
REMARK       I    between atoms: C_10  and  N_17 
REMARK    6  A    between atoms: N_17  and  CA_18 
REMARK    7  A    between atoms: CA_18  and  C_19 
REMARK    8  A    between atoms: CA_18  and  CB_21 
REMARK    9  A    between atoms: C_19  and  O_20 
REMARK   10  A    between atoms: CB_21  and  CG_22 
ROOT
HETATM    1  N   UNK A   0       5.663  27.778  54.900  1.00  0.00    -0.343 N 
HETATM    2  C   UNK A   0       6.962  27.571  54.565  1.00  0.00     0.316 C 
HETATM    3  O   UNK A   0       7.546  28.199  53.688  1.00  0.00    -0.248 OA
HETATM    4  H   UNK A   0       5.332  27.417  55.778  1.00  0.00     0.164 HD
ATOM      5  N   TRP A   1       7.607  26.583  55.230  1.00  0.00    -0.336 N 
ATOM      6  H   TRP A   1       8.584  26.510  54.963  1.00  0.00     0.164 HD
ENDROOT
BRANCH   5   7
ATOM      7  CA  TRP A   1       7.159  25.715  56.327  1.00  0.00     0.114 C 
BRANCH   7   8
ATOM      8  C   TRP A   1       8.394  25.192  57.095  1.00  0.00     0.189 C 
BRANCH   8   9
ATOM      9  O   TRP A   1       8.181  25.255  58.506  1.00  0.00    -0.399 OA
ATOM     10  H   TRP A   1       7.821  26.135  58.712  1.00  0.00     0.209 HD
ENDBRANCH   8   9
ENDBRANCH   7   8
BRANCH   7  11
ATOM     11  CB  TRP A   1       6.287  24.540  55.834  1.00  0.00     0.068 C 
BRANCH  11  12
ATOM     12  CG  TRP A   1       6.944  23.745  54.745  1.00  0.00    -0.028 A 
ATOM     13  CD2 TRP A   1       7.542  22.450  54.868  1.00  0.00    -0.002 A 
ATOM     14  CE2 TRP A   1       8.008  22.082  53.605  1.00  0.00     0.042 A 
ATOM     15  CE3 TRP A   1       7.730  21.550  55.938  1.00  0.00     0.014 A 
ATOM     16  CZ2 TRP A   1       8.644  20.861  53.355  1.00  0.00     0.030 A 
ATOM     17  NE1 TRP A   1       7.721  23.119  52.750  1.00  0.00    -0.365 N 
ATOM     18  CH2 TRP A   1       8.816  19.987  54.433  1.00  0.00     0.002 A 
ATOM     19  CZ3 TRP A   1       8.368  20.325  55.707  1.00  0.00     0.001 A 
ATOM     20  HE1 TRP A   1       7.954  23.129  51.766  1.00  0.00     0.165 HD
ATOM     21  CD1 TRP A   1       7.084  24.127  53.424  1.00  0.00     0.096 A 
ENDBRANCH  11  12
ENDBRANCH   7  11
ENDBRANCH   5   7
BRANCH   1  22
HETATM   22  C   UNK A   0       4.831  28.752  54.218  1.00  0.00     0.129 C 
BRANCH  22  23
HETATM   23  C   UNK A   0       3.951  28.165  53.104  1.00  0.00     0.058 C 
BRANCH  23  24
HETATM   24  C   UNK A   0       4.505  28.395  51.717  1.00  0.00    -0.056 A 
HETATM   25  C   UNK A   0       4.321  27.424  50.720  1.00  0.00     0.024 A 
HETATM   26  C   UNK A   0       4.803  27.632  49.419  1.00  0.00     0.040 A 
HETATM   27  C   UNK A   0       5.485  28.818  49.124  1.00  0.00     0.017 A 
HETATM   28  C   UNK A   0       5.674  29.787  50.111  1.00  0.00     0.002 A 
HETATM   29  C   UNK A   0       5.183  29.578  51.401  1.00  0.00     0.007 A 
BRANCH  26  30
HETATM   30  C   UNK A   0       4.615  26.635  48.332  1.00  0.00     0.292 C 
HETATM   31  O   UNK A   0       5.175  26.702  47.249  1.00  0.00    -0.259 OA
BRANCH  30  32
HETATM   32  O   UNK A   0       3.741  25.669  48.711  1.00  0.00    -0.323 OA
HETATM   33  C   UNK A   0       3.009  25.087  47.632  1.00  0.00     0.213 C 
ENDBRANCH  30  32
ENDBRANCH  26  30
ENDBRANCH  23  24
ENDBRANCH  22  23
ENDBRANCH   1  22
TORSDOF 10
ENDMDL
MODEL 7
REMARK VINA RESULT:      -8.4      3.006      9.979
REMARK  10 active torsions:
REMARK  status: ('A' for Active; 'I' for Inactive)
REMARK    1  A    between atoms: O_2  and  C_3 
REMARK    2  A    between atoms: C_3  and  C_4 
REMARK    3  A    between atoms: C_6  and  C_7 
REMARK    4  A    between atoms: C_7  and  C_8 
REMARK    5  A    between atoms: C_8  and  N_9 
REMARK       I    between atoms: N_9  and  C_10 
REMARK       I    between atoms: C_10  and  N_17 
REMARK    6  A    between atoms: N_17  and  CA_18 
REMARK    7  A    between atoms: CA_18  and  C_19 
REMARK    8  A    between atoms: CA_18  and  CB_21 
REMARK    9  A    between atoms: C_19  and  O_20 
REMARK   10  A    between atoms: CB_21  and  CG_22 
ROOT
HETATM    1  N   UNK A   0       6.252  29.975  57.587  1.00  0.00    -0.343 N 
HETATM    2  C   UNK A   0       5.012  29.460  57.385  1.00  0.00     0.316 C 
HETATM    3  O   UNK A   0       3.979  30.018  57.737  1.00  0.00    -0.248 OA
HETATM    4  H   UNK A   0       7.020  29.598  57.058  1.00  0.00     0.164 HD
ATOM      5  N   TRP A   1       4.954  28.243  56.793  1.00  0.00    -0.336 N 
ATOM      6  H   TRP A   1       4.000  27.937  56.632  1.00  0.00     0.164 HD
ENDROOT
BRANCH   5   7
ATOM      7  CA  TRP A   1       6.019  27.387  56.255  1.00  0.00     0.114 C 
BRANCH   7   8
ATOM      8  C   TRP A   1       6.272  27.763  54.777  1.00  0.00     0.189 C 
BRANCH   8   9
ATOM      9  O   TRP A   1       6.894  29.045  54.676  1.00  0.00    -0.399 OA
ATOM     10  H   TRP A   1       7.826  28.903  54.435  1.00  0.00     0.209 HD
ENDBRANCH   8   9
ENDBRANCH   7   8
BRANCH   7  11
ATOM     11  CB  TRP A   1       5.694  25.884  56.386  1.00  0.00     0.068 C 
BRANCH  11  12
ATOM     12  CG  TRP A   1       6.918  25.018  56.347  1.00  0.00    -0.028 A 
ATOM     13  CD2 TRP A   1       7.321  24.147  55.285  1.00  0.00    -0.002 A 
ATOM     14  CE2 TRP A   1       8.527  23.556  55.662  1.00  0.00     0.042 A 
ATOM     15  CE3 TRP A   1       6.773  23.806  54.030  1.00  0.00     0.014 A 
ATOM     16  CZ2 TRP A   1       9.217  22.650  54.849  1.00  0.00     0.030 A 
ATOM     17  NE1 TRP A   1       8.839  24.034  56.913  1.00  0.00    -0.365 N 
ATOM     18  CH2 TRP A   1       8.653  22.330  53.611  1.00  0.00     0.002 A 
ATOM     19  CZ3 TRP A   1       7.448  22.897  53.206  1.00  0.00     0.001 A 
ATOM     20  HE1 TRP A   1       9.661  23.768  57.438  1.00  0.00     0.165 HD
ATOM     21  CD1 TRP A   1       7.876  24.911  57.337  1.00  0.00     0.096 A 
ENDBRANCH  11  12
ENDBRANCH   7  11
ENDBRANCH   5   7
BRANCH   1  22
HETATM   22  C   UNK A   0       6.466  31.234  58.277  1.00  0.00     0.129 C 
BRANCH  22  23
HETATM   23  C   UNK A   0       7.820  31.341  58.995  1.00  0.00     0.058 C 
BRANCH  23  24
HETATM   24  C   UNK A   0       7.700  31.765  60.441  1.00  0.00    -0.056 A 
HETATM   25  C   UNK A   0       6.446  32.115  60.966  1.00  0.00     0.024 A 
HETATM   26  C   UNK A   0       6.309  32.482  62.312  1.00  0.00     0.040 A 
HETATM   27  C   UNK A   0       7.444  32.511  63.132  1.00  0.00     0.017 A 
HETATM   28  C   UNK A   0       8.694  32.168  62.616  1.00  0.00     0.002 A 
HETATM   29  C   UNK A   0       8.822  31.793  61.278  1.00  0.00     0.007 A 
BRANCH  26  30
HETATM   30  C   UNK A   0       4.996  32.845  62.909  1.00  0.00     0.292 C 
HETATM   31  O   UNK A   0       4.085  33.357  62.278  1.00  0.00    -0.259 OA
BRANCH  30  32
HETATM   32  O   UNK A   0       4.968  32.538  64.231  1.00  0.00    -0.323 OA
HETATM   33  C   UNK A   0       4.618  33.634  65.077  1.00  0.00     0.213 C 
ENDBRANCH  30  32
ENDBRANCH  26  30
ENDBRANCH  23  24
ENDBRANCH  22  23
ENDBRANCH   1  22
TORSDOF 10
ENDMDL
MODEL 8
REMARK VINA RESULT:      -8.3      2.177      3.212
REMARK  10 active torsions:
REMARK  status: ('A' for Active; 'I' for Inactive)
REMARK    1  A    between atoms: O_2  and  C_3 
REMARK    2  A    between atoms: C_3  and  C_4 
REMARK    3  A    between atoms: C_6  and  C_7 
REMARK    4  A    between atoms: C_7  and  C_8 
REMARK    5  A    between atoms: C_8  and  N_9 
REMARK       I    between atoms: N_9  and  C_10 
REMARK       I    between atoms: C_10  and  N_17 
REMARK    6  A    between atoms: N_17  and  CA_18 
REMARK    7  A    between atoms: CA_18  and  C_19 
REMARK    8  A    between atoms: CA_18  and  CB_21 
REMARK    9  A    between atoms: C_19  and  O_20 
REMARK   10  A    between atoms: CB_21  and  CG_22 
ROOT
HETATM    1  N   UNK A   0       6.169  28.171  57.313  1.00  0.00    -0.343 N 
HETATM    2  C   UNK A   0       6.033  29.064  56.300  1.00  0.00     0.316 C 
HETATM    3  O   UNK A   0       6.334  28.823  55.136  1.00  0.00    -0.248 OA
HETATM    4  H   UNK A   0       5.675  28.342  58.173  1.00  0.00     0.164 HD
ATOM      5  N   TRP A   1       5.572  30.292  56.637  1.00  0.00    -0.336 N 
ATOM      6  H   TRP A   1       5.452  30.895  55.829  1.00  0.00     0.164 HD
ENDROOT
BRANCH   5   7
ATOM      7  CA  TRP A   1       5.117  30.825  57.927  1.00  0.00     0.114 C 
BRANCH   7   8
ATOM      8  C   TRP A   1       3.574  30.747  57.991  1.00  0.00     0.189 C 
BRANCH   8   9
ATOM      9  O   TRP A   1       3.139  30.312  59.281  1.00  0.00    -0.399 OA
ATOM     10  H   TRP A   1       3.577  29.465  59.471  1.00  0.00     0.209 HD
ENDBRANCH   8   9
ENDBRANCH   7   8
BRANCH   7  11
ATOM     11  CB  TRP A   1       5.600  32.269  58.175  1.00  0.00     0.068 C 
BRANCH  11  12
ATOM     12  CG  TRP A   1       6.030  32.504  59.593  1.00  0.00    -0.028 A 
ATOM     13  CD2 TRP A   1       7.201  31.985  60.233  1.00  0.00    -0.002 A 
ATOM     14  CE2 TRP A   1       7.216  32.474  61.540  1.00  0.00     0.042 A 
ATOM     15  CE3 TRP A   1       8.258  31.145  59.821  1.00  0.00     0.014 A 
ATOM     16  CZ2 TRP A   1       8.234  32.173  62.453  1.00  0.00     0.030 A 
ATOM     17  NE1 TRP A   1       6.089  33.245  61.697  1.00  0.00    -0.365 N 
ATOM     18  CH2 TRP A   1       9.268  31.340  62.018  1.00  0.00     0.002 A 
ATOM     19  CZ3 TRP A   1       9.282  30.831  60.723  1.00  0.00     0.001 A 
ATOM     20  HE1 TRP A   1       5.837  33.721  62.553  1.00  0.00     0.165 HD
ATOM     21  CD1 TRP A   1       5.366  33.268  60.534  1.00  0.00     0.096 A 
ENDBRANCH  11  12
ENDBRANCH   7  11
ENDBRANCH   5   7
BRANCH   1  22
HETATM   22  C   UNK A   0       6.721  26.844  57.109  1.00  0.00     0.129 C 
BRANCH  22  23
HETATM   23  C   UNK A   0       5.694  25.793  56.659  1.00  0.00     0.058 C 
BRANCH  23  24
HETATM   24  C   UNK A   0       6.034  25.153  55.332  1.00  0.00    -0.056 A 
HETATM   25  C   UNK A   0       7.012  24.147  55.270  1.00  0.00     0.024 A 
HETATM   26  C   UNK A   0       7.320  23.522  54.054  1.00  0.00     0.040 A 
HETATM   27  C   UNK A   0       6.650  23.919  52.890  1.00  0.00     0.017 A 
HETATM   28  C   UNK A   0       5.680  24.921  52.944  1.00  0.00     0.002 A 
HETATM   29  C   UNK A   0       5.369  25.532  54.160  1.00  0.00     0.007 A 
BRANCH  26  30
HETATM   30  C   UNK A   0       8.338  22.442  53.949  1.00  0.00     0.292 C 
HETATM   31  O   UNK A   0       9.246  22.289  54.752  1.00  0.00    -0.259 OA
BRANCH  30  32
HETATM   32  O   UNK A   0       8.118  21.679  52.849  1.00  0.00    -0.323 OA
HETATM   33  C   UNK A   0       8.438  20.298  53.023  1.00  0.00     0.213 C 
ENDBRANCH  30  32
ENDBRANCH  26  30
ENDBRANCH  23  24
ENDBRANCH  22  23
ENDBRANCH   1  22
TORSDOF 10
ENDMDL
MODEL 9
REMARK VINA RESULT:      -8.2      4.413      8.737
REMARK  10 active torsions:
REMARK  status: ('A' for Active; 'I' for Inactive)
REMARK    1  A    between atoms: O_2  and  C_3 
REMARK    2  A    between atoms: C_3  and  C_4 
REMARK    3  A    between atoms: C_6  and  C_7 
REMARK    4  A    between atoms: C_7  and  C_8 
REMARK    5  A    between atoms: C_8  and  N_9 
REMARK       I    between atoms: N_9  and  C_10 
REMARK       I    between atoms: C_10  and  N_17 
REMARK    6  A    between atoms: N_17  and  CA_18 
REMARK    7  A    between atoms: CA_18  and  C_19 
REMARK    8  A    between atoms: CA_18  and  CB_21 
REMARK    9  A    between atoms: C_19  and  O_20 
REMARK   10  A    between atoms: CB_21  and  CG_22 
ROOT
HETATM    1  N   UNK A   0       6.049  27.924  55.223  1.00  0.00    -0.343 N 
HETATM    2  C   UNK A   0       7.042  28.166  56.117  1.00  0.00     0.316 C 
HETATM    3  O   UNK A   0       7.426  29.291  56.418  1.00  0.00    -0.248 OA
HETATM    4  H   UNK A   0       5.622  27.014  55.217  1.00  0.00     0.164 HD
ATOM      5  N   TRP A   1       7.645  27.081  56.658  1.00  0.00    -0.336 N 
ATOM      6  H   TRP A   1       8.345  27.331  57.349  1.00  0.00     0.164 HD
ENDROOT
BRANCH   5   7
ATOM      7  CA  TRP A   1       7.363  25.648  56.497  1.00  0.00     0.114 C 
BRANCH   7   8
ATOM      8  C   TRP A   1       6.073  25.296  57.272  1.00  0.00     0.189 C 
BRANCH   8   9
ATOM      9  O   TRP A   1       4.934  25.333  56.409  1.00  0.00    -0.399 OA
ATOM     10  H   TRP A   1       4.784  26.261  56.158  1.00  0.00     0.209 HD
ENDBRANCH   8   9
ENDBRANCH   7   8
BRANCH   7  11
ATOM     11  CB  TRP A   1       8.537  24.759  56.961  1.00  0.00     0.068 C 
BRANCH  11  12
ATOM     12  CG  TRP A   1       8.388  23.329  56.532  1.00  0.00    -0.028 A 
ATOM     13  CD2 TRP A   1       8.201  22.847  55.197  1.00  0.00    -0.002 A 
ATOM     14  CE2 TRP A   1       8.134  21.455  55.260  1.00  0.00     0.042 A 
ATOM     15  CE3 TRP A   1       8.087  23.465  53.934  1.00  0.00     0.014 A 
ATOM     16  CZ2 TRP A   1       7.966  20.649  54.128  1.00  0.00     0.030 A 
ATOM     17  NE1 TRP A   1       8.256  21.103  56.584  1.00  0.00    -0.365 N 
ATOM     18  CH2 TRP A   1       7.857  21.287  52.890  1.00  0.00     0.002 A 
ATOM     19  CZ3 TRP A   1       7.914  22.675  52.792  1.00  0.00     0.001 A 
ATOM     20  HE1 TRP A   1       8.234  20.151  56.926  1.00  0.00     0.165 HD
ATOM     21  CD1 TRP A   1       8.405  22.222  57.359  1.00  0.00     0.096 A 
ENDBRANCH  11  12
ENDBRANCH   7  11
ENDBRANCH   5   7
BRANCH   1  22
HETATM   22  C   UNK A   0       5.369  28.990  54.511  1.00  0.00     0.129 C 
BRANCH  22  23
HETATM   23  C   UNK A   0       4.121  28.539  53.736  1.00  0.00     0.058 C 
BRANCH  23  24
HETATM   24  C   UNK A   0       4.438  27.648  52.556  1.00  0.00    -0.056 A 
HETATM   25  C   UNK A   0       4.377  28.165  51.252  1.00  0.00     0.024 A 
HETATM   26  C   UNK A   0       4.695  27.363  50.147  1.00  0.00     0.040 A 
HETATM   27  C   UNK A   0       5.064  26.028  50.354  1.00  0.00     0.017 A 
HETATM   28  C   UNK A   0       5.123  25.506  51.647  1.00  0.00     0.002 A 
HETATM   29  C   UNK A   0       4.816  26.313  52.744  1.00  0.00     0.007 A 
BRANCH  26  30
HETATM   30  C   UNK A   0       4.657  27.878  48.752  1.00  0.00     0.292 C 
HETATM   31  O   UNK A   0       5.651  28.224  48.132  1.00  0.00    -0.259 OA
BRANCH  30  32
HETATM   32  O   UNK A   0       3.382  27.914  48.288  1.00  0.00    -0.323 OA
HETATM   33  C   UNK A   0       3.107  26.959  47.263  1.00  0.00     0.213 C 
ENDBRANCH  30  32
ENDBRANCH  26  30
ENDBRANCH  23  24
ENDBRANCH  22  23
ENDBRANCH   1  22
TORSDOF 10
ENDMDL
MODEL 10
REMARK VINA RESULT:      -8.0      2.797      4.048
REMARK  10 active torsions:
REMARK  status: ('A' for Active; 'I' for Inactive)
REMARK    1  A    between atoms: O_2  and  C_3 
REMARK    2  A    between atoms: C_3  and  C_4 
REMARK    3  A    between atoms: C_6  and  C_7 
REMARK    4  A    between atoms: C_7  and  C_8 
REMARK    5  A    between atoms: C_8  and  N_9 
REMARK       I    between atoms: N_9  and  C_10 
REMARK       I    between atoms: C_10  and  N_17 
REMARK    6  A    between atoms: N_17  and  CA_18 
REMARK    7  A    between atoms: CA_18  and  C_19 
REMARK    8  A    between atoms: CA_18  and  CB_21 
REMARK    9  A    between atoms: C_19  and  O_20 
REMARK   10  A    between atoms: CB_21  and  CG_22 
ROOT
HETATM    1  N   UNK A   0       7.702  29.068  56.447  1.00  0.00    -0.343 N 
HETATM    2  C   UNK A   0       8.039  28.628  57.687  1.00  0.00     0.316 C 
HETATM    3  O   UNK A   0       7.706  27.535  58.133  1.00  0.00    -0.248 OA
HETATM    4  H   UNK A   0       8.211  29.844  56.060  1.00  0.00     0.164 HD
ATOM      5  N   TRP A   1       8.748  29.485  58.459  1.00  0.00    -0.336 N 
ATOM      6  H   TRP A   1       9.003  29.079  59.354  1.00  0.00     0.164 HD
ENDROOT
BRANCH   5   7
ATOM      7  CA  TRP A   1       9.292  30.817  58.163  1.00  0.00     0.114 C 
BRANCH   7   8
ATOM      8  C   TRP A   1      10.674  30.661  57.490  1.00  0.00     0.189 C 
BRANCH   8   9
ATOM      9  O   TRP A   1      10.534  30.417  56.089  1.00  0.00    -0.399 OA
ATOM     10  H   TRP A   1       9.586  30.310  55.901  1.00  0.00     0.209 HD
ENDBRANCH   8   9
ENDBRANCH   7   8
BRANCH   7  11
ATOM     11  CB  TRP A   1       9.395  31.706  59.420  1.00  0.00     0.068 C 
BRANCH  11  12
ATOM     12  CG  TRP A   1       8.056  32.055  59.998  1.00  0.00    -0.028 A 
ATOM     13  CD2 TRP A   1       7.756  32.328  61.371  1.00  0.00    -0.002 A 
ATOM     14  CE2 TRP A   1       6.396  32.627  61.452  1.00  0.00     0.042 A 
ATOM     15  CE3 TRP A   1       8.518  32.353  62.559  1.00  0.00     0.014 A 
ATOM     16  CZ2 TRP A   1       5.759  32.956  62.655  1.00  0.00     0.030 A 
ATOM     17  NE1 TRP A   1       5.882  32.523  60.182  1.00  0.00    -0.365 N 
ATOM     18  CH2 TRP A   1       6.538  32.974  63.816  1.00  0.00     0.002 A 
ATOM     19  CZ3 TRP A   1       7.897  32.675  63.771  1.00  0.00     0.001 A 
ATOM     20  HE1 TRP A   1       4.911  32.679  59.944  1.00  0.00     0.165 HD
ATOM     21  CD1 TRP A   1       6.869  32.176  59.299  1.00  0.00     0.096 A 
ENDBRANCH  11  12
ENDBRANCH   7  11
ENDBRANCH   5   7
BRANCH   1  22
HETATM   22  C   UNK A   0       6.881  28.285  55.542  1.00  0.00     0.129 C 
BRANCH  22  23
HETATM   23  C   UNK A   0       7.619  27.782  54.292  1.00  0.00     0.058 C 
BRANCH  23  24
HETATM   24  C   UNK A   0       6.774  26.884  53.417  1.00  0.00    -0.056 A 
HETATM   25  C   UNK A   0       6.244  27.377  52.214  1.00  0.00     0.024 A 
HETATM   26  C   UNK A   0       5.482  26.551  51.375  1.00  0.00     0.040 A 
HETATM   27  C   UNK A   0       5.240  25.226  51.756  1.00  0.00     0.017 A 
HETATM   28  C   UNK A   0       5.761  24.730  52.952  1.00  0.00     0.002 A 
HETATM   29  C   UNK A   0       6.528  25.554  53.777  1.00  0.00     0.007 A 
BRANCH  26  30
HETATM   30  C   UNK A   0       4.916  27.031  50.085  1.00  0.00     0.292 C 
HETATM   31  O   UNK A   0       4.012  26.464  49.491  1.00  0.00    -0.259 OA
BRANCH  30  32
HETATM   32  O   UNK A   0       5.547  28.160  49.675  1.00  0.00    -0.323 OA
HETATM   33  C   UNK A   0       4.664  29.217  49.295  1.00  0.00     0.213 C 
ENDBRANCH  30  32
ENDBRANCH  26  30
ENDBRANCH  23  24
ENDBRANCH  22  23
ENDBRANCH   1  22
TORSDOF 10
ENDMDL
