MODEL 1
REMARK VINA RESULT:      -9.5      0.000      0.000
REMARK  10 active torsions:
REMARK  status: ('A' for Active; 'I' for Inactive)
REMARK    1  A    between atoms: C_2  and  O_3 
REMARK    2  A    between atoms: O_3  and  C_4 
REMARK    3  A    between atoms: C_4  and  C_5 
REMARK    4  A    between atoms: C_6  and  C_7 
REMARK    5  A    between atoms: C_7  and  O_8 
REMARK    6  A    between atoms: O_8  and  C_9 
REMARK    7  A    between atoms: C_9  and  C_10 
REMARK       I    between atoms: C_10  and  N_11 
REMARK    8  A    between atoms: N_11  and  C_12 
REMARK    9  A    between atoms: C_13  and  C_14 
REMARK       I    between atoms: C_14  and  N_15 
REMARK   10  A    between atoms: N_15  and  C_16 
ROOT
HETATM    1  C   UNL     1       5.400  27.232  57.033  1.00  0.00     0.282 C 
ENDROOT
BRANCH   1   2
HETATM    2  O   UNL     1       5.390  26.119  56.132  1.00  0.00    -0.307 OA
BRANCH   2   3
HETATM    3  C   UNL     1       6.094  26.244  54.972  1.00  0.00     0.318 C 
HETATM    4  O   UNL     1       6.200  27.278  54.326  1.00  0.00    -0.257 OA
BRANCH   3   5
HETATM    5  C   UNL     1       6.639  24.957  54.605  1.00  0.00     0.160 A 
HETATM    6  C   UNL     1       7.015  24.440  53.370  1.00  0.00     0.018 A 
HETATM    7  C   UNL     1       7.466  23.105  53.618  1.00  0.00     0.009 A 
HETATM    8  C   UNL     1       7.320  22.900  54.982  1.00  0.00     0.087 A 
HETATM    9  C   UNL     1       7.985  22.052  52.839  1.00  0.00     0.015 A 
HETATM   10  O   UNL     1       6.817  24.010  55.579  1.00  0.00    -0.303 OA
HETATM   11  C   UNL     1       7.647  21.715  55.640  1.00  0.00     0.038 A 
HETATM   12  C   UNL     1       8.157  20.683  54.847  1.00  0.00     0.003 A 
HETATM   13  C   UNL     1       8.325  20.847  53.470  1.00  0.00     0.001 A 
BRANCH   6  14
HETATM   14  C   UNL     1       6.979  25.161  52.069  1.00  0.00     0.210 C 
BRANCH  14  15
HETATM   15  O   UNL     1       5.631  25.298  51.622  1.00  0.00    -0.387 OA
BRANCH  15  16
HETATM   16  C   UNL     1       5.411  26.554  50.988  1.00  0.00     0.163 C 
HETATM   17  C   UNL     1       4.634  26.315  49.709  1.00  0.00     0.033 C 
ENDBRANCH  15  16
ENDBRANCH  14  15
ENDBRANCH   6  14
ENDBRANCH   3   5
ENDBRANCH   2   3
ENDBRANCH   1   2
BRANCH   1  18
HETATM   18  C   UNL     1       6.831  27.620  57.403  1.00  0.00     0.246 C 
HETATM   19  N   UNL     1       7.189  28.877  56.940  1.00  0.00    -0.324 N 
HETATM   20  H   UNL     1       6.629  29.231  56.171  1.00  0.00     0.169 HD
HETATM   21  O   UNL     1       7.569  26.856  58.020  1.00  0.00    -0.271 OA
BRANCH  19  22
HETATM   22  C   UNL     1       8.414  29.518  57.214  1.00  0.00     0.050 A 
HETATM   23  C   UNL     1       8.648  30.366  58.311  1.00  0.00     0.058 A 
HETATM   24  C   UNL     1       9.933  30.899  58.522  1.00  0.00     0.019 A 
HETATM   25  C   UNL     1      10.973  30.602  57.642  1.00  0.00     0.001 A 
HETATM   26  C   UNL     1      10.730  29.805  56.527  1.00  0.00     0.002 A 
HETATM   27  C   UNL     1       9.455  29.278  56.307  1.00  0.00     0.030 A 
BRANCH  23  28
HETATM   28  C   UNL     1       7.544  30.932  59.129  1.00  0.00     0.254 C 
HETATM   29  N   UNL     1       7.856  31.161  60.457  1.00  0.00    -0.352 N 
HETATM   30  H   UNL     1       8.680  30.708  60.831  1.00  0.00     0.163 HD
HETATM   31  O   UNL     1       6.472  31.217  58.605  1.00  0.00    -0.268 OA
BRANCH  29  32
HETATM   32  C   UNL     1       6.913  31.725  61.370  1.00  0.00     0.084 A 
HETATM   33  C   UNL     1       7.318  32.063  62.776  1.00  0.00     0.027 A 
HETATM   34  C   UNL     1       7.028  33.162  61.797  1.00  0.00     0.027 A 
ENDBRANCH  29  32
ENDBRANCH  23  28
ENDBRANCH  19  22
ENDBRANCH   1  18
TORSDOF 10
ENDMDL
MODEL 2
REMARK VINA RESULT:      -9.4      1.838      2.712
REMARK  10 active torsions:
REMARK  status: ('A' for Active; 'I' for Inactive)
REMARK    1  A    between atoms: C_2  and  O_3 
REMARK    2  A    between atoms: O_3  and  C_4 
REMARK    3  A    between atoms: C_4  and  C_5 
REMARK    4  A    between atoms: C_6  and  C_7 
REMARK    5  A    between atoms: C_7  and  O_8 
REMARK    6  A    between atoms: O_8  and  C_9 
REMARK    7  A    between atoms: C_9  and  C_10 
REMARK       I    between atoms: C_10  and  N_11 
REMARK    8  A    between atoms: N_11  and  C_12 
REMARK    9  A    between atoms: C_13  and  C_14 
REMARK       I    between atoms: C_14  and  N_15 
REMARK   10  A    between atoms: N_15  and  C_16 
ROOT
HETATM    1  C   UNL     1       8.386  26.371  56.722  1.00  0.00     0.282 C 
ENDROOT
BRANCH   1   2
HETATM    2  O   UNL     1       7.494  25.484  57.407  1.00  0.00    -0.307 OA
BRANCH   2   3
HETATM    3  C   UNL     1       6.476  24.938  56.686  1.00  0.00     0.318 C 
HETATM    4  O   UNL     1       5.297  25.251  56.791  1.00  0.00    -0.257 OA
BRANCH   3   5
HETATM    5  C   UNL     1       7.002  23.900  55.828  1.00  0.00     0.160 A 
HETATM    6  C   UNL     1       7.179  23.852  54.450  1.00  0.00     0.018 A 
HETATM    7  C   UNL     1       7.722  22.560  54.163  1.00  0.00     0.009 A 
HETATM    8  C   UNL     1       7.824  21.908  55.383  1.00  0.00     0.087 A 
HETATM    9  C   UNL     1       8.141  21.874  53.006  1.00  0.00     0.015 A 
HETATM   10  O   UNL     1       7.386  22.710  56.388  1.00  0.00    -0.303 OA
HETATM   11  C   UNL     1       8.309  20.612  55.546  1.00  0.00     0.038 A 
HETATM   12  C   UNL     1       8.717  19.949  54.385  1.00  0.00     0.003 A 
HETATM   13  C   UNL     1       8.635  20.568  53.135  1.00  0.00     0.001 A 
BRANCH   6  14
HETATM   14  C   UNL     1       6.888  24.950  53.489  1.00  0.00     0.210 C 
BRANCH  14  15
HETATM   15  O   UNL     1       5.790  24.589  52.652  1.00  0.00    -0.387 OA
BRANCH  15  16
HETATM   16  C   UNL     1       4.595  25.266  53.027  1.00  0.00     0.163 C 
HETATM   17  C   UNL     1       4.964  26.651  53.520  1.00  0.00     0.033 C 
ENDBRANCH  15  16
ENDBRANCH  14  15
ENDBRANCH   6  14
ENDBRANCH   3   5
ENDBRANCH   2   3
ENDBRANCH   1   2
BRANCH   1  18
HETATM   18  C   UNL     1       7.723  27.725  56.475  1.00  0.00     0.246 C 
HETATM   19  N   UNL     1       6.857  28.098  57.492  1.00  0.00    -0.324 N 
HETATM   20  H   UNL     1       6.519  27.338  58.073  1.00  0.00     0.169 HD
HETATM   21  O   UNL     1       7.934  28.372  55.452  1.00  0.00    -0.271 OA
BRANCH  19  22
HETATM   22  C   UNL     1       6.182  29.334  57.564  1.00  0.00     0.050 A 
HETATM   23  C   UNL     1       6.698  30.496  58.164  1.00  0.00     0.058 A 
HETATM   24  C   UNL     1       5.963  31.694  58.118  1.00  0.00     0.019 A 
HETATM   25  C   UNL     1       4.717  31.733  57.492  1.00  0.00     0.001 A 
HETATM   26  C   UNL     1       4.182  30.571  56.942  1.00  0.00     0.002 A 
HETATM   27  C   UNL     1       4.904  29.376  56.991  1.00  0.00     0.030 A 
BRANCH  23  28
HETATM   28  C   UNL     1       7.880  30.468  59.065  1.00  0.00     0.254 C 
HETATM   29  N   UNL     1       7.625  30.821  60.378  1.00  0.00    -0.352 N 
HETATM   30  H   UNL     1       6.758  31.307  60.574  1.00  0.00     0.163 HD
HETATM   31  O   UNL     1       8.968  30.091  58.643  1.00  0.00    -0.268 OA
BRANCH  29  32
HETATM   32  C   UNL     1       8.647  30.820  61.375  1.00  0.00     0.084 A 
HETATM   33  C   UNL     1       9.631  31.951  61.462  1.00  0.00     0.027 A 
HETATM   34  C   UNL     1       8.590  31.782  62.530  1.00  0.00     0.027 A 
ENDBRANCH  29  32
ENDBRANCH  23  28
ENDBRANCH  19  22
ENDBRANCH   1  18
TORSDOF 10
ENDMDL
MODEL 3
REMARK VINA RESULT:      -9.2      2.384      8.637
REMARK  10 active torsions:
REMARK  status: ('A' for Active; 'I' for Inactive)
REMARK    1  A    between atoms: C_2  and  O_3 
REMARK    2  A    between atoms: O_3  and  C_4 
REMARK    3  A    between atoms: C_4  and  C_5 
REMARK    4  A    between atoms: C_6  and  C_7 
REMARK    5  A    between atoms: C_7  and  O_8 
REMARK    6  A    between atoms: O_8  and  C_9 
REMARK    7  A    between atoms: C_9  and  C_10 
REMARK       I    between atoms: C_10  and  N_11 
REMARK    8  A    between atoms: N_11  and  C_12 
REMARK    9  A    between atoms: C_13  and  C_14 
REMARK       I    between atoms: C_14  and  N_15 
REMARK   10  A    between atoms: N_15  and  C_16 
ROOT
HETATM    1  C   UNL     1       7.929  25.998  57.595  1.00  0.00     0.282 C 
ENDROOT
BRANCH   1   2
HETATM    2  O   UNL     1       7.110  27.173  57.558  1.00  0.00    -0.307 OA
BRANCH   2   3
HETATM    3  C   UNL     1       7.654  28.300  57.022  1.00  0.00     0.318 C 
HETATM    4  O   UNL     1       8.094  28.392  55.883  1.00  0.00    -0.257 OA
BRANCH   3   5
HETATM    5  C   UNL     1       7.679  29.340  58.025  1.00  0.00     0.160 A 
HETATM    6  C   UNL     1       6.893  30.476  58.188  1.00  0.00     0.018 A 
HETATM    7  C   UNL     1       7.393  31.144  59.349  1.00  0.00     0.009 A 
HETATM    8  C   UNL     1       8.457  30.377  59.803  1.00  0.00     0.087 A 
HETATM    9  C   UNL     1       7.061  32.310  60.066  1.00  0.00     0.015 A 
HETATM   10  O   UNL     1       8.635  29.294  59.005  1.00  0.00    -0.303 OA
HETATM   11  C   UNL     1       9.228  30.684  60.922  1.00  0.00     0.038 A 
HETATM   12  C   UNL     1       8.883  31.846  61.618  1.00  0.00     0.003 A 
HETATM   13  C   UNL     1       7.817  32.647  61.198  1.00  0.00     0.001 A 
BRANCH   6  14
HETATM   14  C   UNL     1       5.743  30.877  57.332  1.00  0.00     0.210 C 
BRANCH  14  15
HETATM   15  O   UNL     1       4.608  30.062  57.625  1.00  0.00    -0.387 OA
BRANCH  15  16
HETATM   16  C   UNL     1       3.809  29.837  56.468  1.00  0.00     0.163 C 
HETATM   17  C   UNL     1       4.161  28.477  55.900  1.00  0.00     0.033 C 
ENDBRANCH  15  16
ENDBRANCH  14  15
ENDBRANCH   6  14
ENDBRANCH   3   5
ENDBRANCH   2   3
ENDBRANCH   1   2
BRANCH   1  18
HETATM   18  C   UNL     1       7.371  24.917  56.670  1.00  0.00     0.246 C 
HETATM   19  N   UNL     1       8.360  24.216  55.996  1.00  0.00    -0.324 N 
HETATM   20  H   UNL     1       9.256  24.689  55.929  1.00  0.00     0.169 HD
HETATM   21  O   UNL     1       6.162  24.739  56.538  1.00  0.00    -0.271 OA
BRANCH  19  22
HETATM   22  C   UNL     1       8.132  23.112  55.151  1.00  0.00     0.050 A 
HETATM   23  C   UNL     1       7.932  23.192  53.761  1.00  0.00     0.058 A 
HETATM   24  C   UNL     1       7.780  22.015  53.006  1.00  0.00     0.019 A 
HETATM   25  C   UNL     1       7.813  20.768  53.630  1.00  0.00     0.001 A 
HETATM   26  C   UNL     1       7.959  20.689  55.012  1.00  0.00     0.002 A 
HETATM   27  C   UNL     1       8.104  21.854  55.769  1.00  0.00     0.030 A 
BRANCH  23  28
HETATM   28  C   UNL     1       7.626  24.474  53.075  1.00  0.00     0.254 C 
HETATM   29  N   UNL     1       6.403  25.034  53.396  1.00  0.00    -0.352 N 
HETATM   30  H   UNL     1       5.717  24.440  53.846  1.00  0.00     0.163 HD
HETATM   31  O   UNL     1       8.456  24.990  52.334  1.00  0.00    -0.268 OA
BRANCH  29  32
HETATM   32  C   UNL     1       5.970  26.277  52.842  1.00  0.00     0.084 A 
HETATM   33  C   UNL     1       5.291  26.323  51.504  1.00  0.00     0.027 A 
HETATM   34  C   UNL     1       4.505  26.606  52.751  1.00  0.00     0.027 A 
ENDBRANCH  29  32
ENDBRANCH  23  28
ENDBRANCH  19  22
ENDBRANCH   1  18
TORSDOF 10
ENDMDL
MODEL 4
REMARK VINA RESULT:      -9.1      2.106      8.837
REMARK  10 active torsions:
REMARK  status: ('A' for Active; 'I' for Inactive)
REMARK    1  A    between atoms: C_2  and  O_3 
REMARK    2  A    between atoms: O_3  and  C_4 
REMARK    3  A    between atoms: C_4  and  C_5 
REMARK    4  A    between atoms: C_6  and  C_7 
REMARK    5  A    between atoms: C_7  and  O_8 
REMARK    6  A    between atoms: O_8  and  C_9 
REMARK    7  A    between atoms: C_9  and  C_10 
REMARK       I    between atoms: C_10  and  N_11 
REMARK    8  A    between atoms: N_11  and  C_12 
REMARK    9  A    between atoms: C_13  and  C_14 
REMARK       I    between atoms: C_14  and  N_15 
REMARK   10  A    between atoms: N_15  and  C_16 
ROOT
HETATM    1  C   UNL     1       7.413  27.010  57.784  1.00  0.00     0.282 C 
ENDROOT
BRANCH   1   2
HETATM    2  O   UNL     1       8.609  27.662  57.342  1.00  0.00    -0.307 OA
BRANCH   2   3
HETATM    3  C   UNL     1       8.504  28.959  56.938  1.00  0.00     0.318 C 
HETATM    4  O   UNL     1       8.649  29.347  55.786  1.00  0.00    -0.257 OA
BRANCH   3   5
HETATM    5  C   UNL     1       8.254  29.797  58.088  1.00  0.00     0.160 A 
HETATM    6  C   UNL     1       7.225  30.690  58.365  1.00  0.00     0.018 A 
HETATM    7  C   UNL     1       7.517  31.249  59.649  1.00  0.00     0.009 A 
HETATM    8  C   UNL     1       8.710  30.669  60.056  1.00  0.00     0.087 A 
HETATM    9  C   UNL     1       6.901  32.178  60.511  1.00  0.00     0.015 A 
HETATM   10  O   UNL     1       9.159  29.799  59.117  1.00  0.00    -0.303 OA
HETATM   11  C   UNL     1       9.349  30.947  61.263  1.00  0.00     0.038 A 
HETATM   12  C   UNL     1       8.722  31.873  62.101  1.00  0.00     0.003 A 
HETATM   13  C   UNL     1       7.519  32.479  61.733  1.00  0.00     0.001 A 
BRANCH   6  14
HETATM   14  C   UNL     1       6.046  30.966  57.500  1.00  0.00     0.210 C 
BRANCH  14  15
HETATM   15  O   UNL     1       5.043  29.972  57.707  1.00  0.00    -0.387 OA
BRANCH  15  16
HETATM   16  C   UNL     1       4.057  29.995  56.680  1.00  0.00     0.163 C 
HETATM   17  C   UNL     1       4.764  30.025  55.340  1.00  0.00     0.033 C 
ENDBRANCH  15  16
ENDBRANCH  14  15
ENDBRANCH   6  14
ENDBRANCH   3   5
ENDBRANCH   2   3
ENDBRANCH   1   2
BRANCH   1  18
HETATM   18  C   UNL     1       6.481  26.726  56.607  1.00  0.00     0.246 C 
HETATM   19  N   UNL     1       7.161  26.524  55.414  1.00  0.00    -0.324 N 
HETATM   20  H   UNL     1       8.103  26.900  55.384  1.00  0.00     0.169 HD
HETATM   21  O   UNL     1       5.259  26.719  56.735  1.00  0.00    -0.271 OA
BRANCH  19  22
HETATM   22  C   UNL     1       6.557  26.158  54.195  1.00  0.00     0.050 A 
HETATM   23  C   UNL     1       6.406  24.837  53.739  1.00  0.00     0.058 A 
HETATM   24  C   UNL     1       5.725  24.585  52.533  1.00  0.00     0.019 A 
HETATM   25  C   UNL     1       5.212  25.641  51.780  1.00  0.00     0.001 A 
HETATM   26  C   UNL     1       5.406  26.952  52.203  1.00  0.00     0.002 A 
HETATM   27  C   UNL     1       6.087  27.210  53.396  1.00  0.00     0.030 A 
BRANCH  23  28
HETATM   28  C   UNL     1       7.144  23.698  54.343  1.00  0.00     0.254 C 
HETATM   29  N   UNL     1       7.793  22.874  53.441  1.00  0.00    -0.352 N 
HETATM   30  H   UNL     1       7.521  22.937  52.467  1.00  0.00     0.163 HD
HETATM   31  O   UNL     1       7.198  23.575  55.563  1.00  0.00    -0.268 OA
BRANCH  29  32
HETATM   32  C   UNL     1       8.568  21.751  53.862  1.00  0.00     0.084 A 
HETATM   33  C   UNL     1       7.897  20.496  54.342  1.00  0.00     0.027 A 
HETATM   34  C   UNL     1       8.619  20.501  53.027  1.00  0.00     0.027 A 
ENDBRANCH  29  32
ENDBRANCH  23  28
ENDBRANCH  19  22
ENDBRANCH   1  18
TORSDOF 10
ENDMDL
MODEL 5
REMARK VINA RESULT:      -8.9      2.101      3.268
REMARK  10 active torsions:
REMARK  status: ('A' for Active; 'I' for Inactive)
REMARK    1  A    between atoms: C_2  and  O_3 
REMARK    2  A    between atoms: O_3  and  C_4 
REMARK    3  A    between atoms: C_4  and  C_5 
REMARK    4  A    between atoms: C_6  and  C_7 
REMARK    5  A    between atoms: C_7  and  O_8 
REMARK    6  A    between atoms: O_8  and  C_9 
REMARK    7  A    between atoms: C_9  and  C_10 
REMARK       I    between atoms: C_10  and  N_11 
REMARK    8  A    between atoms: N_11  and  C_12 
REMARK    9  A    between atoms: C_13  and  C_14 
REMARK       I    between atoms: C_14  and  N_15 
REMARK   10  A    between atoms: N_15  and  C_16 
ROOT
HETATM    1  C   UNL     1       7.903  28.519  56.972  1.00  0.00     0.282 C 
ENDROOT
BRANCH   1   2
HETATM    2  O   UNL     1       8.701  27.329  56.974  1.00  0.00    -0.307 OA
BRANCH   2   3
HETATM    3  C   UNL     1       8.120  26.185  57.431  1.00  0.00     0.318 C 
HETATM    4  O   UNL     1       7.746  26.001  58.582  1.00  0.00    -0.257 OA
BRANCH   3   5
HETATM    5  C   UNL     1       8.072  25.215  56.361  1.00  0.00     0.160 A 
HETATM    6  C   UNL     1       7.268  25.138  55.229  1.00  0.00     0.018 A 
HETATM    7  C   UNL     1       7.659  23.946  54.543  1.00  0.00     0.009 A 
HETATM    8  C   UNL     1       8.663  23.374  55.311  1.00  0.00     0.087 A 
HETATM    9  C   UNL     1       7.276  23.290  53.356  1.00  0.00     0.015 A 
HETATM   10  O   UNL     1       8.910  24.132  56.409  1.00  0.00    -0.303 OA
HETATM   11  C   UNL     1       9.319  22.186  54.993  1.00  0.00     0.038 A 
HETATM   12  C   UNL     1       8.922  21.552  53.812  1.00  0.00     0.003 A 
HETATM   13  C   UNL     1       7.918  22.094  53.005  1.00  0.00     0.001 A 
BRANCH   6  14
HETATM   14  C   UNL     1       6.237  26.128  54.816  1.00  0.00     0.210 C 
BRANCH  14  15
HETATM   15  O   UNL     1       6.801  27.070  53.903  1.00  0.00    -0.387 OA
BRANCH  15  16
HETATM   16  C   UNL     1       5.911  27.360  52.829  1.00  0.00     0.163 C 
HETATM   17  C   UNL     1       5.003  26.164  52.623  1.00  0.00     0.033 C 
ENDBRANCH  15  16
ENDBRANCH  14  15
ENDBRANCH   6  14
ENDBRANCH   3   5
ENDBRANCH   2   3
ENDBRANCH   1   2
BRANCH   1  18
HETATM   18  C   UNL     1       8.491  29.570  57.912  1.00  0.00     0.246 C 
HETATM   19  N   UNL     1       7.648  29.886  58.967  1.00  0.00    -0.324 N 
HETATM   20  H   UNL     1       6.669  29.662  58.821  1.00  0.00     0.169 HD
HETATM   21  O   UNL     1       9.588  30.084  57.703  1.00  0.00    -0.271 OA
BRANCH  19  22
HETATM   22  C   UNL     1       7.975  30.755  60.027  1.00  0.00     0.050 A 
HETATM   23  C   UNL     1       7.236  31.896  60.386  1.00  0.00     0.058 A 
HETATM   24  C   UNL     1       7.619  32.655  61.507  1.00  0.00     0.019 A 
HETATM   25  C   UNL     1       8.736  32.289  62.258  1.00  0.00     0.001 A 
HETATM   26  C   UNL     1       9.499  31.190  61.873  1.00  0.00     0.002 A 
HETATM   27  C   UNL     1       9.128  30.436  60.757  1.00  0.00     0.030 A 
BRANCH  23  28
HETATM   28  C   UNL     1       6.207  32.491  59.494  1.00  0.00     0.254 C 
HETATM   29  N   UNL     1       5.163  33.126  60.143  1.00  0.00    -0.352 N 
HETATM   30  H   UNL     1       5.032  32.927  61.127  1.00  0.00     0.163 HD
HETATM   31  O   UNL     1       6.349  32.450  58.276  1.00  0.00    -0.268 OA
BRANCH  29  32
HETATM   32  C   UNL     1       4.107  33.769  59.429  1.00  0.00     0.084 A 
HETATM   33  C   UNL     1       2.836  34.156  60.128  1.00  0.00     0.027 A 
HETATM   34  C   UNL     1       3.791  35.220  59.673  1.00  0.00     0.027 A 
ENDBRANCH  29  32
ENDBRANCH  23  28
ENDBRANCH  19  22
ENDBRANCH   1  18
TORSDOF 10
ENDMDL
MODEL 6
REMARK VINA RESULT:      -8.8      2.366      9.155
REMARK  10 active torsions:
REMARK  status: ('A' for Active; 'I' for Inactive)
REMARK    1  A    between atoms: C_2  and  O_3 
REMARK    2  A    between atoms: O_3  and  C_4 
REMARK    3  A    between atoms: C_4  and  C_5 
REMARK    4  A    between atoms: C_6  and  C_7 
REMARK    5  A    between atoms: C_7  and  O_8 
REMARK    6  A    between atoms: O_8  and  C_9 
REMARK    7  A    between atoms: C_9  and  C_10 
REMARK       I    between atoms: C_10  and  N_11 
REMARK    8  A    between atoms: N_11  and  C_12 
REMARK    9  A    between atoms: C_13  and  C_14 
REMARK       I    between atoms: C_14  and  N_15 
REMARK   10  A    between atoms: N_15  and  C_16 
ROOT
HETATM    1  C   UNL     1       4.784  28.628  55.813  1.00  0.00     0.282 C 
ENDROOT
BRANCH   1   2
HETATM    2  O   UNL     1       5.309  29.181  57.025  1.00  0.00    -0.307 OA
BRANCH   2   3
HETATM    3  C   UNL     1       5.710  30.483  56.999  1.00  0.00     0.318 C 
HETATM    4  O   UNL     1       5.426  31.286  56.120  1.00  0.00    -0.257 OA
BRANCH   3   5
HETATM    5  C   UNL     1       6.563  30.741  58.136  1.00  0.00     0.160 A 
HETATM    6  C   UNL     1       7.789  30.198  58.505  1.00  0.00     0.018 A 
HETATM    7  C   UNL     1       8.148  30.824  59.739  1.00  0.00     0.009 A 
HETATM    8  C   UNL     1       7.110  31.693  60.043  1.00  0.00     0.087 A 
HETATM    9  C   UNL     1       9.237  30.752  60.630  1.00  0.00     0.015 A 
HETATM   10  O   UNL     1       6.152  31.642  59.083  1.00  0.00    -0.303 OA
HETATM   11  C   UNL     1       7.066  32.501  61.178  1.00  0.00     0.038 A 
HETATM   12  C   UNL     1       8.156  32.413  62.049  1.00  0.00     0.003 A 
HETATM   13  C   UNL     1       9.224  31.554  61.781  1.00  0.00     0.001 A 
BRANCH   6  14
HETATM   14  C   UNL     1       8.570  29.193  57.734  1.00  0.00     0.210 C 
BRANCH  14  15
HETATM   15  O   UNL     1       9.188  29.812  56.606  1.00  0.00    -0.387 OA
BRANCH  15  16
HETATM   16  C   UNL     1      10.548  29.416  56.467  1.00  0.00     0.163 C 
HETATM   17  C   UNL     1      11.370  30.150  57.507  1.00  0.00     0.033 C 
ENDBRANCH  15  16
ENDBRANCH  14  15
ENDBRANCH   6  14
ENDBRANCH   3   5
ENDBRANCH   2   3
ENDBRANCH   1   2
BRANCH   1  18
HETATM   18  C   UNL     1       5.874  27.890  55.036  1.00  0.00     0.246 C 
HETATM   19  N   UNL     1       5.548  26.568  54.770  1.00  0.00    -0.324 N 
HETATM   20  H   UNL     1       4.835  26.168  55.371  1.00  0.00     0.169 HD
HETATM   21  O   UNL     1       6.931  28.435  54.727  1.00  0.00    -0.271 OA
BRANCH  19  22
HETATM   22  C   UNL     1       6.329  25.686  53.996  1.00  0.00     0.050 A 
HETATM   23  C   UNL     1       6.384  25.685  52.591  1.00  0.00     0.058 A 
HETATM   24  C   UNL     1       7.252  24.801  51.924  1.00  0.00     0.019 A 
HETATM   25  C   UNL     1       8.048  23.914  52.649  1.00  0.00     0.001 A 
HETATM   26  C   UNL     1       7.957  23.878  54.038  1.00  0.00     0.002 A 
HETATM   27  C   UNL     1       7.092  24.748  54.706  1.00  0.00     0.030 A 
BRANCH  23  28
HETATM   28  C   UNL     1       5.388  26.405  51.756  1.00  0.00     0.254 C 
HETATM   29  N   UNL     1       5.581  26.299  50.390  1.00  0.00    -0.352 N 
HETATM   30  H   UNL     1       6.487  25.981  50.067  1.00  0.00     0.163 HD
HETATM   31  O   UNL     1       4.445  26.985  52.284  1.00  0.00    -0.268 OA
BRANCH  29  32
HETATM   32  C   UNL     1       4.697  26.911  49.451  1.00  0.00     0.084 A 
HETATM   33  C   UNL     1       4.891  26.712  47.975  1.00  0.00     0.027 A 
HETATM   34  C   UNL     1       3.719  26.080  48.666  1.00  0.00     0.027 A 
ENDBRANCH  29  32
ENDBRANCH  23  28
ENDBRANCH  19  22
ENDBRANCH   1  18
TORSDOF 10
ENDMDL
MODEL 7
REMARK VINA RESULT:      -8.7      2.165      9.209
REMARK  10 active torsions:
REMARK  status: ('A' for Active; 'I' for Inactive)
REMARK    1  A    between atoms: C_2  and  O_3 
REMARK    2  A    between atoms: O_3  and  C_4 
REMARK    3  A    between atoms: C_4  and  C_5 
REMARK    4  A    between atoms: C_6  and  C_7 
REMARK    5  A    between atoms: C_7  and  O_8 
REMARK    6  A    between atoms: O_8  and  C_9 
REMARK    7  A    between atoms: C_9  and  C_10 
REMARK       I    between atoms: C_10  and  N_11 
REMARK    8  A    between atoms: N_11  and  C_12 
REMARK    9  A    between atoms: C_13  and  C_14 
REMARK       I    between atoms: C_14  and  N_15 
REMARK   10  A    between atoms: N_15  and  C_16 
ROOT
HETATM    1  C   UNL     1       6.595  28.266  56.020  1.00  0.00     0.282 C 
ENDROOT
BRANCH   1   2
HETATM    2  O   UNL     1       7.366  28.388  57.220  1.00  0.00    -0.307 OA
BRANCH   2   3
HETATM    3  C   UNL     1       8.282  29.394  57.278  1.00  0.00     0.318 C 
HETATM    4  O   UNL     1       9.181  29.570  56.466  1.00  0.00    -0.257 OA
BRANCH   3   5
HETATM    5  C   UNL     1       8.056  30.176  58.472  1.00  0.00     0.160 A 
HETATM    6  C   UNL     1       7.083  31.120  58.780  1.00  0.00     0.018 A 
HETATM    7  C   UNL     1       7.374  31.577  60.103  1.00  0.00     0.009 A 
HETATM    8  C   UNL     1       8.511  30.890  60.503  1.00  0.00     0.087 A 
HETATM    9  C   UNL     1       6.798  32.492  61.006  1.00  0.00     0.015 A 
HETATM   10  O   UNL     1       8.928  30.050  59.522  1.00  0.00    -0.303 OA
HETATM   11  C   UNL     1       9.131  31.047  61.742  1.00  0.00     0.038 A 
HETATM   12  C   UNL     1       8.545  31.961  62.621  1.00  0.00     0.003 A 
HETATM   13  C   UNL     1       7.397  32.672  62.262  1.00  0.00     0.001 A 
BRANCH   6  14
HETATM   14  C   UNL     1       5.953  31.532  57.903  1.00  0.00     0.210 C 
BRANCH  14  15
HETATM   15  O   UNL     1       5.911  32.954  57.795  1.00  0.00    -0.387 OA
BRANCH  15  16
HETATM   16  C   UNL     1       4.588  33.427  57.563  1.00  0.00     0.163 C 
HETATM   17  C   UNL     1       3.828  33.385  58.874  1.00  0.00     0.033 C 
ENDBRANCH  15  16
ENDBRANCH  14  15
ENDBRANCH   6  14
ENDBRANCH   3   5
ENDBRANCH   2   3
ENDBRANCH   1   2
BRANCH   1  18
HETATM   18  C   UNL     1       7.213  27.231  55.080  1.00  0.00     0.246 C 
HETATM   19  N   UNL     1       6.974  25.925  55.479  1.00  0.00    -0.324 N 
HETATM   20  H   UNL     1       6.733  25.808  56.458  1.00  0.00     0.169 HD
HETATM   21  O   UNL     1       7.876  27.562  54.099  1.00  0.00    -0.271 OA
BRANCH  19  22
HETATM   22  C   UNL     1       7.351  24.778  54.752  1.00  0.00     0.050 A 
HETATM   23  C   UNL     1       6.889  24.457  53.463  1.00  0.00     0.058 A 
HETATM   24  C   UNL     1       7.386  23.318  52.804  1.00  0.00     0.019 A 
HETATM   25  C   UNL     1       8.325  22.496  53.427  1.00  0.00     0.001 A 
HETATM   26  C   UNL     1       8.744  22.784  54.723  1.00  0.00     0.002 A 
HETATM   27  C   UNL     1       8.250  23.910  55.386  1.00  0.00     0.030 A 
BRANCH  23  28
HETATM   28  C   UNL     1       5.711  25.126  52.851  1.00  0.00     0.254 C 
HETATM   29  N   UNL     1       6.005  26.015  51.833  1.00  0.00    -0.352 N 
HETATM   30  H   UNL     1       6.962  26.338  51.752  1.00  0.00     0.163 HD
HETATM   31  O   UNL     1       4.577  24.831  53.214  1.00  0.00    -0.268 OA
BRANCH  29  32
HETATM   32  C   UNL     1       4.985  26.720  51.125  1.00  0.00     0.084 A 
HETATM   33  C   UNL     1       5.341  27.699  50.043  1.00  0.00     0.027 A 
HETATM   34  C   UNL     1       4.687  26.396  49.687  1.00  0.00     0.027 A 
ENDBRANCH  29  32
ENDBRANCH  23  28
ENDBRANCH  19  22
ENDBRANCH   1  18
TORSDOF 10
ENDMDL
MODEL 8
REMARK VINA RESULT:      -8.6      3.175     10.172
REMARK  10 active torsions:
REMARK  status: ('A' for Active; 'I' for Inactive)
REMARK    1  A    between atoms: C_2  and  O_3 
REMARK    2  A    between atoms: O_3  and  C_4 
REMARK    3  A    between atoms: C_4  and  C_5 
REMARK    4  A    between atoms: C_6  and  C_7 
REMARK    5  A    between atoms: C_7  and  O_8 
REMARK    6  A    between atoms: O_8  and  C_9 
REMARK    7  A    between atoms: C_9  and  C_10 
REMARK       I    between atoms: C_10  and  N_11 
REMARK    8  A    between atoms: N_11  and  C_12 
REMARK    9  A    between atoms: C_13  and  C_14 
REMARK       I    between atoms: C_14  and  N_15 
REMARK   10  A    between atoms: N_15  and  C_16 
ROOT
HETATM    1  C   UNL     1       3.680  31.526  58.336  1.00  0.00     0.282 C 
ENDROOT
BRANCH   1   2
HETATM    2  O   UNL     1       3.476  31.484  59.753  1.00  0.00    -0.307 OA
BRANCH   2   3
HETATM    3  C   UNL     1       3.206  32.661  60.384  1.00  0.00     0.318 C 
HETATM    4  O   UNL     1       2.315  33.437  60.065  1.00  0.00    -0.257 OA
BRANCH   3   5
HETATM    5  C   UNL     1       4.170  32.867  61.441  1.00  0.00     0.160 A 
HETATM    6  C   UNL     1       4.081  33.568  62.638  1.00  0.00     0.018 A 
HETATM    7  C   UNL     1       5.358  33.440  63.270  1.00  0.00     0.009 A 
HETATM    8  C   UNL     1       6.137  32.683  62.408  1.00  0.00     0.087 A 
HETATM    9  C   UNL     1       5.936  33.879  64.477  1.00  0.00     0.015 A 
HETATM   10  O   UNL     1       5.428  32.341  61.303  1.00  0.00    -0.303 OA
HETATM   11  C   UNL     1       7.463  32.328  62.651  1.00  0.00     0.038 A 
HETATM   12  C   UNL     1       8.018  32.776  63.853  1.00  0.00     0.003 A 
HETATM   13  C   UNL     1       7.269  33.538  64.753  1.00  0.00     0.001 A 
BRANCH   6  14
HETATM   14  C   UNL     1       2.877  34.274  63.154  1.00  0.00     0.210 C 
BRANCH  14  15
HETATM   15  O   UNL     1       3.140  35.672  63.267  1.00  0.00    -0.387 OA
BRANCH  15  16
HETATM   16  C   UNL     1       3.279  36.287  61.991  1.00  0.00     0.163 C 
HETATM   17  C   UNL     1       3.514  37.770  62.197  1.00  0.00     0.033 C 
ENDBRANCH  15  16
ENDBRANCH  14  15
ENDBRANCH   6  14
ENDBRANCH   3   5
ENDBRANCH   2   3
ENDBRANCH   1   2
BRANCH   1  18
HETATM   18  C   UNL     1       5.165  31.666  58.004  1.00  0.00     0.246 C 
HETATM   19  N   UNL     1       5.964  30.775  58.706  1.00  0.00    -0.324 N 
HETATM   20  H   UNL     1       5.550  30.396  59.552  1.00  0.00     0.169 HD
HETATM   21  O   UNL     1       5.574  32.514  57.215  1.00  0.00    -0.271 OA
BRANCH  19  22
HETATM   22  C   UNL     1       7.354  30.627  58.528  1.00  0.00     0.050 A 
HETATM   23  C   UNL     1       7.967  29.554  57.858  1.00  0.00     0.058 A 
HETATM   24  C   UNL     1       9.363  29.544  57.682  1.00  0.00     0.019 A 
HETATM   25  C   UNL     1      10.144  30.586  58.181  1.00  0.00     0.001 A 
HETATM   26  C   UNL     1       9.544  31.623  58.890  1.00  0.00     0.002 A 
HETATM   27  C   UNL     1       8.159  31.636  59.075  1.00  0.00     0.030 A 
BRANCH  23  28
HETATM   28  C   UNL     1       7.241  28.298  57.536  1.00  0.00     0.254 C 
HETATM   29  N   UNL     1       8.018  27.154  57.537  1.00  0.00    -0.352 N 
HETATM   30  H   UNL     1       9.023  27.269  57.495  1.00  0.00     0.163 HD
HETATM   31  O   UNL     1       6.028  28.317  57.352  1.00  0.00    -0.268 OA
BRANCH  29  32
HETATM   32  C   UNL     1       7.466  25.863  57.273  1.00  0.00     0.084 A 
HETATM   33  C   UNL     1       7.602  25.237  55.914  1.00  0.00     0.027 A 
HETATM   34  C   UNL     1       8.365  24.673  57.077  1.00  0.00     0.027 A 
ENDBRANCH  29  32
ENDBRANCH  23  28
ENDBRANCH  19  22
ENDBRANCH   1  18
TORSDOF 10
ENDMDL
MODEL 9
REMARK VINA RESULT:      -8.6      2.399      4.550
REMARK  10 active torsions:
REMARK  status: ('A' for Active; 'I' for Inactive)
REMARK    1  A    between atoms: C_2  and  O_3 
REMARK    2  A    between atoms: O_3  and  C_4 
REMARK    3  A    between atoms: C_4  and  C_5 
REMARK    4  A    between atoms: C_6  and  C_7 
REMARK    5  A    between atoms: C_7  and  O_8 
REMARK    6  A    between atoms: O_8  and  C_9 
REMARK    7  A    between atoms: C_9  and  C_10 
REMARK       I    between atoms: C_10  and  N_11 
REMARK    8  A    between atoms: N_11  and  C_12 
REMARK    9  A    between atoms: C_13  and  C_14 
REMARK       I    between atoms: C_14  and  N_15 
REMARK   10  A    between atoms: N_15  and  C_16 
ROOT
HETATM    1  C   UNL     1       9.104  30.142  58.162  1.00  0.00     0.282 C 
ENDROOT
BRANCH   1   2
HETATM    2  O   UNL     1       8.343  28.989  58.541  1.00  0.00    -0.307 OA
BRANCH   2   3
HETATM    3  C   UNL     1       7.250  28.683  57.789  1.00  0.00     0.318 C 
HETATM    4  O   UNL     1       6.225  29.350  57.740  1.00  0.00    -0.257 OA
BRANCH   3   5
HETATM    5  C   UNL     1       7.474  27.427  57.112  1.00  0.00     0.160 A 
HETATM    6  C   UNL     1       7.165  27.013  55.821  1.00  0.00     0.018 A 
HETATM    7  C   UNL     1       7.609  25.657  55.720  1.00  0.00     0.009 A 
HETATM    8  C   UNL     1       8.145  25.337  56.959  1.00  0.00     0.087 A 
HETATM    9  C   UNL     1       7.620  24.669  54.715  1.00  0.00     0.015 A 
HETATM   10  O   UNL     1       8.061  26.398  57.801  1.00  0.00    -0.303 OA
HETATM   11  C   UNL     1       8.692  24.096  57.283  1.00  0.00     0.038 A 
HETATM   12  C   UNL     1       8.690  23.131  56.273  1.00  0.00     0.003 A 
HETATM   13  C   UNL     1       8.164  23.410  55.010  1.00  0.00     0.001 A 
BRANCH   6  14
HETATM   14  C   UNL     1       6.529  27.843  54.763  1.00  0.00     0.210 C 
BRANCH  14  15
HETATM   15  O   UNL     1       5.110  27.704  54.818  1.00  0.00    -0.387 OA
BRANCH  15  16
HETATM   16  C   UNL     1       4.562  27.370  53.546  1.00  0.00     0.163 C 
HETATM   17  C   UNL     1       3.931  28.615  52.955  1.00  0.00     0.033 C 
ENDBRANCH  15  16
ENDBRANCH  14  15
ENDBRANCH   6  14
ENDBRANCH   3   5
ENDBRANCH   2   3
ENDBRANCH   1   2
BRANCH   1  18
HETATM   18  C   UNL     1       8.879  31.290  59.147  1.00  0.00     0.246 C 
HETATM   19  N   UNL     1       7.886  31.020  60.076  1.00  0.00    -0.324 N 
HETATM   20  H   UNL     1       7.229  30.293  59.810  1.00  0.00     0.169 HD
HETATM   21  O   UNL     1       9.510  32.341  59.070  1.00  0.00    -0.271 OA
BRANCH  19  22
HETATM   22  C   UNL     1       7.536  31.863  61.149  1.00  0.00     0.050 A 
HETATM   23  C   UNL     1       6.424  32.724  61.164  1.00  0.00     0.058 A 
HETATM   24  C   UNL     1       6.133  33.473  62.319  1.00  0.00     0.019 A 
HETATM   25  C   UNL     1       6.950  33.377  63.446  1.00  0.00     0.001 A 
HETATM   26  C   UNL     1       8.080  32.564  63.415  1.00  0.00     0.002 A 
HETATM   27  C   UNL     1       8.379  31.823  62.269  1.00  0.00     0.030 A 
BRANCH  23  28
HETATM   28  C   UNL     1       5.673  33.074  59.931  1.00  0.00     0.254 C 
HETATM   29  N   UNL     1       4.510  33.794  60.136  1.00  0.00    -0.352 N 
HETATM   30  H   UNL     1       4.124  33.805  61.073  1.00  0.00     0.163 HD
HETATM   31  O   UNL     1       6.126  32.780  58.829  1.00  0.00    -0.268 OA
BRANCH  29  32
HETATM   32  C   UNL     1       3.687  34.230  59.053  1.00  0.00     0.084 A 
HETATM   33  C   UNL     1       2.367  34.896  59.315  1.00  0.00     0.027 A 
HETATM   34  C   UNL     1       3.513  35.696  58.767  1.00  0.00     0.027 A 
ENDBRANCH  29  32
ENDBRANCH  23  28
ENDBRANCH  19  22
ENDBRANCH   1  18
TORSDOF 10
ENDMDL
MODEL 10
REMARK VINA RESULT:      -8.6      2.131      3.981
REMARK  10 active torsions:
REMARK  status: ('A' for Active; 'I' for Inactive)
REMARK    1  A    between atoms: C_2  and  O_3 
REMARK    2  A    between atoms: O_3  and  C_4 
REMARK    3  A    between atoms: C_4  and  C_5 
REMARK    4  A    between atoms: C_6  and  C_7 
REMARK    5  A    between atoms: C_7  and  O_8 
REMARK    6  A    between atoms: O_8  and  C_9 
REMARK    7  A    between atoms: C_9  and  C_10 
REMARK       I    between atoms: C_10  and  N_11 
REMARK    8  A    between atoms: N_11  and  C_12 
REMARK    9  A    between atoms: C_13  and  C_14 
REMARK       I    between atoms: C_14  and  N_15 
REMARK   10  A    between atoms: N_15  and  C_16 
ROOT
HETATM    1  C   UNL     1       7.092  28.123  53.492  1.00  0.00     0.282 C 
ENDROOT
BRANCH   1   2
HETATM    2  O   UNL     1       7.592  26.785  53.589  1.00  0.00    -0.307 OA
BRANCH   2   3
HETATM    3  C   UNL     1       6.986  25.832  52.827  1.00  0.00     0.318 C 
HETATM    4  O   UNL     1       6.288  26.059  51.847  1.00  0.00    -0.257 OA
BRANCH   3   5
HETATM    5  C   UNL     1       7.251  24.529  53.393  1.00  0.00     0.160 A 
HETATM    6  C   UNL     1       7.087  24.040  54.684  1.00  0.00     0.018 A 
HETATM    7  C   UNL     1       7.537  22.683  54.656  1.00  0.00     0.009 A 
HETATM    8  C   UNL     1       7.957  22.446  53.355  1.00  0.00     0.087 A 
HETATM    9  C   UNL     1       7.633  21.630  55.587  1.00  0.00     0.015 A 
HETATM   10  O   UNL     1       7.791  23.556  52.593  1.00  0.00    -0.303 OA
HETATM   11  C   UNL     1       8.475  21.233  52.903  1.00  0.00     0.038 A 
HETATM   12  C   UNL     1       8.562  20.203  53.844  1.00  0.00     0.003 A 
HETATM   13  C   UNL     1       8.148  20.396  55.164  1.00  0.00     0.001 A 
BRANCH   6  14
HETATM   14  C   UNL     1       6.521  24.787  55.839  1.00  0.00     0.210 C 
BRANCH  14  15
HETATM   15  O   UNL     1       7.483  25.714  56.342  1.00  0.00    -0.387 OA
BRANCH  15  16
HETATM   16  C   UNL     1       7.914  25.368  57.653  1.00  0.00     0.163 C 
HETATM   17  C   UNL     1       9.164  24.519  57.538  1.00  0.00     0.033 C 
ENDBRANCH  15  16
ENDBRANCH  14  15
ENDBRANCH   6  14
ENDBRANCH   3   5
ENDBRANCH   2   3
ENDBRANCH   1   2
BRANCH   1  18
HETATM   18  C   UNL     1       6.057  28.398  54.583  1.00  0.00     0.246 C 
HETATM   19  N   UNL     1       6.311  29.564  55.290  1.00  0.00    -0.324 N 
HETATM   20  H   UNL     1       7.268  29.899  55.244  1.00  0.00     0.169 HD
HETATM   21  O   UNL     1       5.128  27.624  54.803  1.00  0.00    -0.271 OA
BRANCH  19  22
HETATM   22  C   UNL     1       5.471  30.101  56.286  1.00  0.00     0.050 A 
HETATM   23  C   UNL     1       5.915  30.622  57.514  1.00  0.00     0.058 A 
HETATM   24  C   UNL     1       4.991  31.195  58.407  1.00  0.00     0.019 A 
HETATM   25  C   UNL     1       3.634  31.237  58.087  1.00  0.00     0.001 A 
HETATM   26  C   UNL     1       3.187  30.676  56.894  1.00  0.00     0.002 A 
HETATM   27  C   UNL     1       4.097  30.099  56.006  1.00  0.00     0.030 A 
BRANCH  23  28
HETATM   28  C   UNL     1       7.286  30.377  58.033  1.00  0.00     0.254 C 
HETATM   29  N   UNL     1       7.515  30.824  59.322  1.00  0.00    -0.352 N 
HETATM   30  H   UNL     1       6.858  31.489  59.712  1.00  0.00     0.163 HD
HETATM   31  O   UNL     1       8.102  29.763  57.352  1.00  0.00    -0.268 OA
BRANCH  29  32
HETATM   32  C   UNL     1       8.772  30.643  59.974  1.00  0.00     0.084 A 
HETATM   33  C   UNL     1       9.479  31.806  60.609  1.00  0.00     0.027 A 
HETATM   34  C   UNL     1       8.877  30.736  61.472  1.00  0.00     0.027 A 
ENDBRANCH  29  32
ENDBRANCH  23  28
ENDBRANCH  19  22
ENDBRANCH   1  18
TORSDOF 10
ENDMDL
