MODEL 1
REMARK VINA RESULT:      -9.8      0.000      0.000
REMARK  4 active torsions:
REMARK  status: ('A' for Active; 'I' for Inactive)
REMARK    1  A    between atoms: O_2  and  C_3 
REMARK    2  A    between atoms: C_6  and  C_7 
REMARK    3  A    between atoms: C_12  and  N_13 
REMARK    4  A    between atoms: C_15  and  C_16 
ROOT
HETATM    1  C   UNL     1       6.878  25.694  56.466  1.00  0.00     0.135 C 
HETATM    2  N   UNL     1       5.888  26.397  55.659  1.00  0.00    -0.214 N 
HETATM    3  C   UNL     1       5.436  27.586  56.110  1.00  0.00     0.736 A 
HETATM    4  N   UNL     1       6.162  28.331  57.002  1.00  0.00    -0.074 N 
HETATM    5  N   UNL     1       5.470  29.411  57.408  1.00  0.00     0.037 NA
HETATM    6  C   UNL     1       4.374  29.299  56.664  1.00  0.00     0.753 A 
HETATM    7  N   UNL     1       4.315  28.206  55.851  1.00  0.00     0.131 NA
HETATM    8  C   UNL     1       7.407  27.882  57.617  1.00  0.00     0.164 C 
HETATM    9  C   UNL     1       7.995  26.672  56.865  1.00  0.00     0.063 C 
HETATM   10  H   UNL     1       5.192  25.802  55.211  1.00  0.00     0.178 HD
ENDROOT
BRANCH   1  11
HETATM   11  C   UNL     1       7.441  24.514  55.698  1.00  0.00    -0.035 A 
HETATM   12  C   UNL     1       6.924  24.137  54.450  1.00  0.00     0.012 A 
HETATM   13  C   UNL     1       7.490  23.081  53.735  1.00  0.00     0.037 A 
HETATM   14  C   UNL     1       8.587  22.382  54.243  1.00  0.00     0.068 A 
HETATM   15  C   UNL     1       9.099  22.737  55.489  1.00  0.00     0.037 A 
HETATM   16  C   UNL     1       8.533  23.797  56.210  1.00  0.00     0.012 A 
BRANCH  14  17
HETATM   17  O   UNL     1       9.054  21.383  53.436  1.00  0.00    -0.356 OA
HETATM   18  C   UNL     1       8.088  20.484  52.907  1.00  0.00     0.210 C 
ENDBRANCH  14  17
ENDBRANCH   1  11
BRANCH   8  19
HETATM   19  C   UNL     1       8.442  28.993  57.726  1.00  0.00    -0.031 A 
HETATM   20  C   UNL     1       8.411  29.871  58.823  1.00  0.00     0.028 A 
HETATM   21  C   UNL     1       9.376  30.872  58.951  1.00  0.00     0.011 A 
HETATM   22 BR   UNL     1       9.318  32.042  60.435  1.00  0.00    -0.051 Br
HETATM   23  C   UNL     1      10.383  31.013  57.999  1.00  0.00     0.019 A 
HETATM   24  C   UNL     1      10.425  30.148  56.908  1.00  0.00     0.002 A 
HETATM   25  C   UNL     1       9.464  29.144  56.773  1.00  0.00     0.009 A 
ENDBRANCH   8  19
BRANCH   6  26
HETATM   26  N   UNL     1       3.359  30.159  56.651  1.00  0.00    -0.229 N 
HETATM   27  H   UNL     1       3.444  30.967  57.251  1.00  0.00     0.174 HD
HETATM   28  H   UNL     1       2.932  30.339  55.753  1.00  0.00     0.174 HD
ENDBRANCH   6  26
TORSDOF 4
ENDMDL
MODEL 2
REMARK VINA RESULT:      -9.1      5.147      6.765
REMARK  4 active torsions:
REMARK  status: ('A' for Active; 'I' for Inactive)
REMARK    1  A    between atoms: O_2  and  C_3 
REMARK    2  A    between atoms: C_6  and  C_7 
REMARK    3  A    between atoms: C_12  and  N_13 
REMARK    4  A    between atoms: C_15  and  C_16 
ROOT
HETATM    1  C   UNL     1       6.687  25.978  53.329  1.00  0.00     0.135 C 
HETATM    2  N   UNL     1       5.496  26.370  54.075  1.00  0.00    -0.214 N 
HETATM    3  C   UNL     1       4.867  27.505  53.705  1.00  0.00     0.736 A 
HETATM    4  N   UNL     1       5.019  28.025  52.447  1.00  0.00    -0.074 N 
HETATM    5  N   UNL     1       4.406  29.218  52.338  1.00  0.00     0.037 NA
HETATM    6  C   UNL     1       3.838  29.317  53.537  1.00  0.00     0.753 A 
HETATM    7  N   UNL     1       4.085  28.290  54.398  1.00  0.00     0.131 NA
HETATM    8  C   UNL     1       5.932  27.484  51.444  1.00  0.00     0.164 C 
HETATM    9  C   UNL     1       6.394  26.063  51.823  1.00  0.00     0.063 C 
HETATM   10  H   UNL     1       5.535  26.193  55.077  1.00  0.00     0.178 HD
ENDROOT
BRANCH   1  11
HETATM   11  C   UNL     1       7.113  24.575  53.719  1.00  0.00    -0.035 A 
HETATM   12  C   UNL     1       7.079  24.142  55.052  1.00  0.00     0.012 A 
HETATM   13  C   UNL     1       7.426  22.831  55.383  1.00  0.00     0.037 A 
HETATM   14  C   UNL     1       7.807  21.923  54.394  1.00  0.00     0.068 A 
HETATM   15  C   UNL     1       7.860  22.347  53.067  1.00  0.00     0.037 A 
HETATM   16  C   UNL     1       7.513  23.662  52.732  1.00  0.00     0.012 A 
BRANCH  14  17
HETATM   17  O   UNL     1       8.105  20.669  54.850  1.00  0.00    -0.356 OA
HETATM   18  C   UNL     1       7.815  20.400  56.216  1.00  0.00     0.210 C 
ENDBRANCH  14  17
ENDBRANCH   1  11
BRANCH   8  19
HETATM   19  C   UNL     1       5.336  27.492  50.043  1.00  0.00    -0.031 A 
HETATM   20  C   UNL     1       4.555  26.407  49.610  1.00  0.00     0.028 A 
HETATM   21  C   UNL     1       3.975  26.419  48.340  1.00  0.00     0.011 A 
HETATM   22 BR   UNL     1       2.926  24.951  47.777  1.00  0.00    -0.051 Br
HETATM   23  C   UNL     1       4.159  27.504  47.487  1.00  0.00     0.019 A 
HETATM   24  C   UNL     1       4.930  28.586  47.904  1.00  0.00     0.002 A 
HETATM   25  C   UNL     1       5.513  28.582  49.174  1.00  0.00     0.009 A 
ENDBRANCH   8  19
BRANCH   6  26
HETATM   26  N   UNL     1       3.061  30.317  53.942  1.00  0.00    -0.229 N 
HETATM   27  H   UNL     1       3.303  30.748  54.824  1.00  0.00     0.174 HD
HETATM   28  H   UNL     1       2.742  30.958  53.228  1.00  0.00     0.174 HD
ENDBRANCH   6  26
TORSDOF 4
ENDMDL
MODEL 3
REMARK VINA RESULT:      -8.9      5.018      7.351
REMARK  4 active torsions:
REMARK  status: ('A' for Active; 'I' for Inactive)
REMARK    1  A    between atoms: O_2  and  C_3 
REMARK    2  A    between atoms: C_6  and  C_7 
REMARK    3  A    between atoms: C_12  and  N_13 
REMARK    4  A    between atoms: C_15  and  C_16 
ROOT
HETATM    1  C   UNL     1       5.159  26.855  52.624  1.00  0.00     0.135 C 
HETATM    2  N   UNL     1       6.200  27.777  53.064  1.00  0.00    -0.214 N 
HETATM    3  C   UNL     1       6.857  27.485  54.206  1.00  0.00     0.736 A 
HETATM    4  N   UNL     1       6.908  26.204  54.690  1.00  0.00    -0.074 N 
HETATM    5  N   UNL     1       7.505  26.165  55.895  1.00  0.00     0.037 NA
HETATM    6  C   UNL     1       7.862  27.438  56.038  1.00  0.00     0.753 A 
HETATM    7  N   UNL     1       7.496  28.276  55.027  1.00  0.00     0.131 NA
HETATM    8  C   UNL     1       6.188  25.079  54.101  1.00  0.00     0.164 C 
HETATM    9  C   UNL     1       5.699  25.417  52.679  1.00  0.00     0.063 C 
HETATM   10  H   UNL     1       5.997  28.764  52.912  1.00  0.00     0.178 HD
ENDROOT
BRANCH   1  11
HETATM   11  C   UNL     1       4.703  27.208  51.220  1.00  0.00    -0.035 A 
HETATM   12  C   UNL     1       4.913  26.337  50.141  1.00  0.00     0.012 A 
HETATM   13  C   UNL     1       4.440  26.658  48.867  1.00  0.00     0.037 A 
HETATM   14  C   UNL     1       3.744  27.848  48.643  1.00  0.00     0.068 A 
HETATM   15  C   UNL     1       3.544  28.727  49.705  1.00  0.00     0.037 A 
HETATM   16  C   UNL     1       4.018  28.409  50.985  1.00  0.00     0.012 A 
BRANCH  14  17
HETATM   17  O   UNL     1       3.322  28.031  47.356  1.00  0.00    -0.356 OA
HETATM   18  C   UNL     1       1.932  27.867  47.109  1.00  0.00     0.210 C 
ENDBRANCH  14  17
ENDBRANCH   1  11
BRANCH   8  19
HETATM   19  C   UNL     1       7.010  23.798  54.089  1.00  0.00    -0.031 A 
HETATM   20  C   UNL     1       7.268  23.124  55.295  1.00  0.00     0.028 A 
HETATM   21  C   UNL     1       7.992  21.930  55.293  1.00  0.00     0.011 A 
HETATM   22 BR   UNL     1       8.328  21.037  56.925  1.00  0.00    -0.051 Br
HETATM   23  C   UNL     1       8.463  21.388  54.100  1.00  0.00     0.019 A 
HETATM   24  C   UNL     1       8.211  22.045  52.898  1.00  0.00     0.002 A 
HETATM   25  C   UNL     1       7.489  23.240  52.891  1.00  0.00     0.009 A 
ENDBRANCH   8  19
BRANCH   6  26
HETATM   26  N   UNL     1       8.539  27.938  57.068  1.00  0.00    -0.229 N 
HETATM   27  H   UNL     1       8.216  27.678  57.990  1.00  0.00     0.174 HD
HETATM   28  H   UNL     1       9.543  27.986  56.967  1.00  0.00     0.174 HD
ENDBRANCH   6  26
TORSDOF 4
ENDMDL
MODEL 4
REMARK VINA RESULT:      -8.7      4.231      7.638
REMARK  4 active torsions:
REMARK  status: ('A' for Active; 'I' for Inactive)
REMARK    1  A    between atoms: O_2  and  C_3 
REMARK    2  A    between atoms: C_6  and  C_7 
REMARK    3  A    between atoms: C_12  and  N_13 
REMARK    4  A    between atoms: C_15  and  C_16 
ROOT
HETATM    1  C   UNL     1       7.276  27.940  55.194  1.00  0.00     0.135 C 
HETATM    2  N   UNL     1       5.962  27.924  54.561  1.00  0.00    -0.214 N 
HETATM    3  C   UNL     1       5.745  27.017  53.585  1.00  0.00     0.736 A 
HETATM    4  N   UNL     1       6.501  25.878  53.491  1.00  0.00    -0.074 N 
HETATM    5  N   UNL     1       6.195  25.184  52.380  1.00  0.00     0.037 NA
HETATM    6  C   UNL     1       5.196  25.916  51.896  1.00  0.00     0.753 A 
HETATM    7  N   UNL     1       4.881  27.036  52.605  1.00  0.00     0.131 NA
HETATM    8  C   UNL     1       7.652  25.590  54.341  1.00  0.00     0.164 C 
HETATM    9  C   UNL     1       7.671  26.506  55.580  1.00  0.00     0.063 C 
HETATM   10  H   UNL     1       5.540  28.840  54.414  1.00  0.00     0.178 HD
ENDROOT
BRANCH   1  11
HETATM   11  C   UNL     1       7.261  28.844  56.413  1.00  0.00    -0.035 A 
HETATM   12  C   UNL     1       8.238  28.741  57.414  1.00  0.00     0.012 A 
HETATM   13  C   UNL     1       8.236  29.616  58.501  1.00  0.00     0.037 A 
HETATM   14  C   UNL     1       7.267  30.614  58.612  1.00  0.00     0.068 A 
HETATM   15  C   UNL     1       6.282  30.716  57.631  1.00  0.00     0.037 A 
HETATM   16  C   UNL     1       6.280  29.839  56.539  1.00  0.00     0.012 A 
BRANCH  14  17
HETATM   17  O   UNL     1       7.389  31.412  59.715  1.00  0.00    -0.356 OA
HETATM   18  C   UNL     1       8.612  32.123  59.858  1.00  0.00     0.210 C 
ENDBRANCH  14  17
ENDBRANCH   1  11
BRANCH   8  19
HETATM   19  C   UNL     1       7.721  24.128  54.760  1.00  0.00    -0.031 A 
HETATM   20  C   UNL     1       7.961  23.136  53.795  1.00  0.00     0.028 A 
HETATM   21  C   UNL     1       8.060  21.795  54.172  1.00  0.00     0.011 A 
HETATM   22 BR   UNL     1       8.385  20.475  52.859  1.00  0.00    -0.051 Br
HETATM   23  C   UNL     1       7.926  21.423  55.507  1.00  0.00     0.019 A 
HETATM   24  C   UNL     1       7.690  22.397  56.474  1.00  0.00     0.002 A 
HETATM   25  C   UNL     1       7.590  23.740  56.105  1.00  0.00     0.009 A 
ENDBRANCH   8  19
BRANCH   6  26
HETATM   26  N   UNL     1       4.494  25.635  50.801  1.00  0.00    -0.229 N 
HETATM   27  H   UNL     1       4.140  26.423  50.277  1.00  0.00     0.174 HD
HETATM   28  H   UNL     1       4.826  24.864  50.238  1.00  0.00     0.174 HD
ENDBRANCH   6  26
TORSDOF 4
ENDMDL
MODEL 5
REMARK VINA RESULT:      -8.6      1.741      2.161
REMARK  4 active torsions:
REMARK  status: ('A' for Active; 'I' for Inactive)
REMARK    1  A    between atoms: O_2  and  C_3 
REMARK    2  A    between atoms: C_6  and  C_7 
REMARK    3  A    between atoms: C_12  and  N_13 
REMARK    4  A    between atoms: C_15  and  C_16 
ROOT
HETATM    1  C   UNL     1       5.693  25.885  55.171  1.00  0.00     0.135 C 
HETATM    2  N   UNL     1       5.296  26.689  54.020  1.00  0.00    -0.214 N 
HETATM    3  C   UNL     1       4.815  27.927  54.253  1.00  0.00     0.736 A 
HETATM    4  N   UNL     1       5.099  28.594  55.416  1.00  0.00    -0.074 N 
HETATM    5  N   UNL     1       4.419  29.753  55.489  1.00  0.00     0.037 NA
HETATM    6  C   UNL     1       3.810  29.760  54.307  1.00  0.00     0.753 A 
HETATM    7  N   UNL     1       4.032  28.671  53.517  1.00  0.00     0.131 NA
HETATM    8  C   UNL     1       5.837  28.011  56.532  1.00  0.00     0.164 C 
HETATM    9  C   UNL     1       6.579  26.731  56.099  1.00  0.00     0.063 C 
HETATM   10  H   UNL     1       4.842  26.173  53.268  1.00  0.00     0.178 HD
ENDROOT
BRANCH   1  11
HETATM   11  C   UNL     1       6.425  24.638  54.714  1.00  0.00    -0.035 A 
HETATM   12  C   UNL     1       6.658  24.381  53.355  1.00  0.00     0.012 A 
HETATM   13  C   UNL     1       7.378  23.253  52.958  1.00  0.00     0.037 A 
HETATM   14  C   UNL     1       7.888  22.362  53.905  1.00  0.00     0.068 A 
HETATM   15  C   UNL     1       7.649  22.599  55.257  1.00  0.00     0.037 A 
HETATM   16  C   UNL     1       6.925  23.730  55.659  1.00  0.00     0.012 A 
BRANCH  14  17
HETATM   17  O   UNL     1       8.587  21.310  53.384  1.00  0.00    -0.356 OA
HETATM   18  C   UNL     1       8.747  20.171  54.220  1.00  0.00     0.210 C 
ENDBRANCH  14  17
ENDBRANCH   1  11
BRANCH   8  19
HETATM   19  C   UNL     1       6.806  28.995  57.173  1.00  0.00    -0.031 A 
HETATM   20  C   UNL     1       8.178  28.914  56.880  1.00  0.00     0.028 A 
HETATM   21  C   UNL     1       9.072  29.832  57.436  1.00  0.00     0.011 A 
HETATM   22 BR   UNL     1      10.913  29.708  57.028  1.00  0.00    -0.051 Br
HETATM   23  C   UNL     1       8.618  30.840  58.282  1.00  0.00     0.019 A 
HETATM   24  C   UNL     1       7.260  30.932  58.579  1.00  0.00     0.002 A 
HETATM   25  C   UNL     1       6.360  30.018  58.028  1.00  0.00     0.009 A 
ENDBRANCH   8  19
BRANCH   6  26
HETATM   26  N   UNL     1       3.027  30.733  53.848  1.00  0.00    -0.229 N 
HETATM   27  H   UNL     1       2.909  30.783  52.845  1.00  0.00     0.174 HD
HETATM   28  H   UNL     1       2.195  30.931  54.385  1.00  0.00     0.174 HD
ENDBRANCH   6  26
TORSDOF 4
ENDMDL
MODEL 6
REMARK VINA RESULT:      -8.5      9.613     13.126
REMARK  4 active torsions:
REMARK  status: ('A' for Active; 'I' for Inactive)
REMARK    1  A    between atoms: O_2  and  C_3 
REMARK    2  A    between atoms: C_6  and  C_7 
REMARK    3  A    between atoms: C_12  and  N_13 
REMARK    4  A    between atoms: C_15  and  C_16 
ROOT
HETATM    1  C   UNL     1       5.889  34.636  66.786  1.00  0.00     0.135 C 
HETATM    2  N   UNL     1       4.520  34.151  66.653  1.00  0.00    -0.214 N 
HETATM    3  C   UNL     1       3.973  34.139  65.420  1.00  0.00     0.736 A 
HETATM    4  N   UNL     1       4.756  34.126  64.294  1.00  0.00    -0.074 N 
HETATM    5  N   UNL     1       4.007  34.241  63.182  1.00  0.00     0.037 NA
HETATM    6  C   UNL     1       2.783  34.237  63.703  1.00  0.00     0.753 A 
HETATM    7  N   UNL     1       2.716  34.166  65.063  1.00  0.00     0.131 NA
HETATM    8  C   UNL     1       6.211  34.230  64.311  1.00  0.00     0.164 C 
HETATM    9  C   UNL     1       6.771  33.963  65.722  1.00  0.00     0.063 C 
HETATM   10  H   UNL     1       3.892  34.413  67.411  1.00  0.00     0.178 HD
ENDROOT
BRANCH   1  11
HETATM   11  C   UNL     1       6.414  34.354  68.180  1.00  0.00    -0.035 A 
HETATM   12  C   UNL     1       5.686  33.579  69.095  1.00  0.00     0.012 A 
HETATM   13  C   UNL     1       6.210  33.288  70.356  1.00  0.00     0.037 A 
HETATM   14  C   UNL     1       7.471  33.756  70.729  1.00  0.00     0.068 A 
HETATM   15  C   UNL     1       8.196  34.540  69.835  1.00  0.00     0.037 A 
HETATM   16  C   UNL     1       7.674  34.835  68.569  1.00  0.00     0.012 A 
BRANCH  14  17
HETATM   17  O   UNL     1       7.871  33.386  71.983  1.00  0.00    -0.356 OA
HETATM   18  C   UNL     1       7.894  31.991  72.261  1.00  0.00     0.210 C 
ENDBRANCH  14  17
ENDBRANCH   1  11
BRANCH   8  19
HETATM   19  C   UNL     1       6.877  33.313  63.294  1.00  0.00    -0.031 A 
HETATM   20  C   UNL     1       6.347  33.209  61.996  1.00  0.00     0.028 A 
HETATM   21  C   UNL     1       6.968  32.398  61.045  1.00  0.00     0.011 A 
HETATM   22 BR   UNL     1       6.241  32.273  59.305  1.00  0.00    -0.051 Br
HETATM   23  C   UNL     1       8.121  31.685  61.365  1.00  0.00     0.019 A 
HETATM   24  C   UNL     1       8.657  31.781  62.647  1.00  0.00     0.002 A 
HETATM   25  C   UNL     1       8.042  32.590  63.604  1.00  0.00     0.009 A 
ENDBRANCH   8  19
BRANCH   6  26
HETATM   26  N   UNL     1       1.649  34.288  63.010  1.00  0.00    -0.229 N 
HETATM   27  H   UNL     1       1.711  34.655  62.070  1.00  0.00     0.174 HD
HETATM   28  H   UNL     1       1.017  33.508  63.122  1.00  0.00     0.174 HD
ENDBRANCH   6  26
TORSDOF 4
ENDMDL
MODEL 7
REMARK VINA RESULT:      -8.5      8.469     12.084
REMARK  4 active torsions:
REMARK  status: ('A' for Active; 'I' for Inactive)
REMARK    1  A    between atoms: O_2  and  C_3 
REMARK    2  A    between atoms: C_6  and  C_7 
REMARK    3  A    between atoms: C_12  and  N_13 
REMARK    4  A    between atoms: C_15  and  C_16 
ROOT
HETATM    1  C   UNL     1       5.759  34.215  65.141  1.00  0.00     0.135 C 
HETATM    2  N   UNL     1       4.487  33.602  64.772  1.00  0.00    -0.214 N 
HETATM    3  C   UNL     1       4.288  33.300  63.472  1.00  0.00     0.736 A 
HETATM    4  N   UNL     1       5.341  33.126  62.612  1.00  0.00    -0.074 N 
HETATM    5  N   UNL     1       4.912  32.955  61.349  1.00  0.00     0.037 NA
HETATM    6  C   UNL     1       3.594  32.955  61.531  1.00  0.00     0.753 A 
HETATM    7  N   UNL     1       3.170  33.151  62.811  1.00  0.00     0.131 NA
HETATM    8  C   UNL     1       6.737  33.350  62.976  1.00  0.00     0.164 C 
HETATM    9  C   UNL     1       6.909  33.417  64.506  1.00  0.00     0.063 C 
HETATM   10  H   UNL     1       3.674  33.958  65.272  1.00  0.00     0.178 HD
ENDROOT
BRANCH   1  11
HETATM   11  C   UNL     1       5.902  34.261  66.650  1.00  0.00    -0.035 A 
HETATM   12  C   UNL     1       4.812  34.014  67.498  1.00  0.00     0.012 A 
HETATM   13  C   UNL     1       4.976  34.010  68.884  1.00  0.00     0.037 A 
HETATM   14  C   UNL     1       6.228  34.245  69.455  1.00  0.00     0.068 A 
HETATM   15  C   UNL     1       7.315  34.507  68.623  1.00  0.00     0.037 A 
HETATM   16  C   UNL     1       7.154  34.513  67.231  1.00  0.00     0.012 A 
BRANCH  14  17
HETATM   17  O   UNL     1       6.254  34.197  70.821  1.00  0.00    -0.356 OA
HETATM   18  C   UNL     1       6.103  32.915  71.418  1.00  0.00     0.210 C 
ENDBRANCH  14  17
ENDBRANCH   1  11
BRANCH   8  19
HETATM   19  C   UNL     1       7.673  32.306  62.382  1.00  0.00    -0.031 A 
HETATM   20  C   UNL     1       8.219  32.506  61.102  1.00  0.00     0.028 A 
HETATM   21  C   UNL     1       9.104  31.573  60.561  1.00  0.00     0.011 A 
HETATM   22 BR   UNL     1       9.830  31.860  58.839  1.00  0.00    -0.051 Br
HETATM   23  C   UNL     1       9.463  30.435  61.280  1.00  0.00     0.019 A 
HETATM   24  C   UNL     1       8.930  30.226  62.550  1.00  0.00     0.002 A 
HETATM   25  C   UNL     1       8.043  31.155  63.099  1.00  0.00     0.009 A 
ENDBRANCH   8  19
BRANCH   6  26
HETATM   26  N   UNL     1       2.684  32.773  60.578  1.00  0.00    -0.229 N 
HETATM   27  H   UNL     1       2.418  31.818  60.384  1.00  0.00     0.174 HD
HETATM   28  H   UNL     1       1.927  33.442  60.545  1.00  0.00     0.174 HD
ENDBRANCH   6  26
TORSDOF 4
ENDMDL
MODEL 8
REMARK VINA RESULT:      -8.1      3.503      4.725
REMARK  4 active torsions:
REMARK  status: ('A' for Active; 'I' for Inactive)
REMARK    1  A    between atoms: O_2  and  C_3 
REMARK    2  A    between atoms: C_6  and  C_7 
REMARK    3  A    between atoms: C_12  and  N_13 
REMARK    4  A    between atoms: C_15  and  C_16 
ROOT
HETATM    1  C   UNL     1       5.596  25.122  53.147  1.00  0.00     0.135 C 
HETATM    2  N   UNL     1       6.032  25.592  51.837  1.00  0.00    -0.214 N 
HETATM    3  C   UNL     1       5.364  26.627  51.286  1.00  0.00     0.736 A 
HETATM    4  N   UNL     1       4.640  27.499  52.057  1.00  0.00    -0.074 N 
HETATM    5  N   UNL     1       3.961  28.373  51.292  1.00  0.00     0.037 NA
HETATM    6  C   UNL     1       4.383  28.024  50.080  1.00  0.00     0.753 A 
HETATM    7  N   UNL     1       5.247  26.972  50.030  1.00  0.00     0.131 NA
HETATM    8  C   UNL     1       4.434  27.340  53.493  1.00  0.00     0.164 C 
HETATM    9  C   UNL     1       5.429  26.325  54.088  1.00  0.00     0.063 C 
HETATM   10  H   UNL     1       6.326  24.862  51.190  1.00  0.00     0.178 HD
ENDROOT
BRANCH   1  11
HETATM   11  C   UNL     1       6.597  24.130  53.709  1.00  0.00    -0.035 A 
HETATM   12  C   UNL     1       7.372  23.315  52.871  1.00  0.00     0.012 A 
HETATM   13  C   UNL     1       8.324  22.446  53.407  1.00  0.00     0.037 A 
HETATM   14  C   UNL     1       8.529  22.375  54.786  1.00  0.00     0.068 A 
HETATM   15  C   UNL     1       7.753  23.169  55.629  1.00  0.00     0.037 A 
HETATM   16  C   UNL     1       6.796  24.041  55.095  1.00  0.00     0.012 A 
BRANCH  14  17
HETATM   17  O   UNL     1       9.501  21.497  55.176  1.00  0.00    -0.356 OA
HETATM   18  C   UNL     1       9.119  20.492  56.106  1.00  0.00     0.210 C 
ENDBRANCH  14  17
ENDBRANCH   1  11
BRANCH   8  19
HETATM   19  C   UNL     1       4.510  28.662  54.246  1.00  0.00    -0.031 A 
HETATM   20  C   UNL     1       5.410  28.805  55.315  1.00  0.00     0.028 A 
HETATM   21  C   UNL     1       5.512  30.022  55.992  1.00  0.00     0.011 A 
HETATM   22 BR   UNL     1       6.730  30.195  57.427  1.00  0.00    -0.051 Br
HETATM   23  C   UNL     1       4.730  31.111  55.615  1.00  0.00     0.019 A 
HETATM   24  C   UNL     1       3.835  30.982  54.555  1.00  0.00     0.002 A 
HETATM   25  C   UNL     1       3.726  29.768  53.873  1.00  0.00     0.009 A 
ENDBRANCH   8  19
BRANCH   6  26
HETATM   26  N   UNL     1       4.036  28.620  48.941  1.00  0.00    -0.229 N 
HETATM   27  H   UNL     1       3.065  28.881  48.846  1.00  0.00     0.174 HD
HETATM   28  H   UNL     1       4.695  29.285  48.562  1.00  0.00     0.174 HD
ENDBRANCH   6  26
TORSDOF 4
ENDMDL
MODEL 9
REMARK VINA RESULT:      -8.0      7.665     10.877
REMARK  4 active torsions:
REMARK  status: ('A' for Active; 'I' for Inactive)
REMARK    1  A    between atoms: O_2  and  C_3 
REMARK    2  A    between atoms: C_6  and  C_7 
REMARK    3  A    between atoms: C_12  and  N_13 
REMARK    4  A    between atoms: C_15  and  C_16 
ROOT
HETATM    1  C   UNL     1       6.551  32.379  62.588  1.00  0.00     0.135 C 
HETATM    2  N   UNL     1       7.874  32.784  62.126  1.00  0.00    -0.214 N 
HETATM    3  C   UNL     1       8.235  32.444  60.871  1.00  0.00     0.736 A 
HETATM    4  N   UNL     1       7.296  32.158  59.914  1.00  0.00    -0.074 N 
HETATM    5  N   UNL     1       7.877  31.726  58.780  1.00  0.00     0.037 NA
HETATM    6  C   UNL     1       9.163  31.853  59.094  1.00  0.00     0.753 A 
HETATM    7  N   UNL     1       9.426  32.297  60.355  1.00  0.00     0.131 NA
HETATM    8  C   UNL     1       5.861  32.088  60.173  1.00  0.00     0.164 C 
HETATM    9  C   UNL     1       5.507  32.746  61.521  1.00  0.00     0.063 C 
HETATM   10  H   UNL     1       8.612  32.732  62.826  1.00  0.00     0.178 HD
ENDROOT
BRANCH   1  11
HETATM   11  C   UNL     1       6.229  33.047  63.911  1.00  0.00    -0.035 A 
HETATM   12  C   UNL     1       4.906  33.289  64.307  1.00  0.00     0.012 A 
HETATM   13  C   UNL     1       4.629  33.858  65.552  1.00  0.00     0.037 A 
HETATM   14  C   UNL     1       5.662  34.190  66.430  1.00  0.00     0.068 A 
HETATM   15  C   UNL     1       6.982  33.968  66.040  1.00  0.00     0.037 A 
HETATM   16  C   UNL     1       7.263  33.399  64.792  1.00  0.00     0.012 A 
BRANCH  14  17
HETATM   17  O   UNL     1       5.253  34.724  67.620  1.00  0.00    -0.356 OA
HETATM   18  C   UNL     1       5.894  34.237  68.793  1.00  0.00     0.210 C 
ENDBRANCH  14  17
ENDBRANCH   1  11
BRANCH   8  19
HETATM   19  C   UNL     1       5.032  32.698  59.051  1.00  0.00    -0.031 A 
HETATM   20  C   UNL     1       4.471  31.866  58.067  1.00  0.00     0.028 A 
HETATM   21  C   UNL     1       3.680  32.409  57.053  1.00  0.00     0.011 A 
HETATM   22 BR   UNL     1       2.933  31.274  55.740  1.00  0.00    -0.051 Br
HETATM   23  C   UNL     1       3.433  33.779  57.003  1.00  0.00     0.019 A 
HETATM   24  C   UNL     1       3.983  34.614  57.973  1.00  0.00     0.002 A 
HETATM   25  C   UNL     1       4.775  34.078  58.991  1.00  0.00     0.009 A 
ENDBRANCH   8  19
BRANCH   6  26
HETATM   26  N   UNL     1      10.184  31.591  58.283  1.00  0.00    -0.229 N 
HETATM   27  H   UNL     1      11.044  32.091  58.463  1.00  0.00     0.174 HD
HETATM   28  H   UNL     1      10.303  30.627  58.004  1.00  0.00     0.174 HD
ENDBRANCH   6  26
TORSDOF 4
ENDMDL
MODEL 10
REMARK VINA RESULT:      -7.9      3.749      4.999
REMARK  4 active torsions:
REMARK  status: ('A' for Active; 'I' for Inactive)
REMARK    1  A    between atoms: O_2  and  C_3 
REMARK    2  A    between atoms: C_6  and  C_7 
REMARK    3  A    between atoms: C_12  and  N_13 
REMARK    4  A    between atoms: C_15  and  C_16 
ROOT
HETATM    1  C   UNL     1       7.074  27.049  53.611  1.00  0.00     0.135 C 
HETATM    2  N   UNL     1       6.776  25.857  54.397  1.00  0.00    -0.214 N 
HETATM    3  C   UNL     1       7.358  25.741  55.609  1.00  0.00     0.736 A 
HETATM    4  N   UNL     1       7.820  26.840  56.285  1.00  0.00    -0.074 N 
HETATM    5  N   UNL     1       8.469  26.481  57.407  1.00  0.00     0.037 NA
HETATM    6  C   UNL     1       8.292  25.163  57.388  1.00  0.00     0.753 A 
HETATM    7  N   UNL     1       7.610  24.670  56.315  1.00  0.00     0.131 NA
HETATM    8  C   UNL     1       7.828  28.192  55.736  1.00  0.00     0.164 C 
HETATM    9  C   UNL     1       6.917  28.295  54.498  1.00  0.00     0.063 C 
HETATM   10  H   UNL     1       6.694  24.994  53.862  1.00  0.00     0.178 HD
ENDROOT
BRANCH   1  11
HETATM   11  C   UNL     1       6.158  27.125  52.404  1.00  0.00    -0.035 A 
HETATM   12  C   UNL     1       5.636  28.348  51.956  1.00  0.00     0.012 A 
HETATM   13  C   UNL     1       4.836  28.402  50.813  1.00  0.00     0.037 A 
HETATM   14  C   UNL     1       4.546  27.245  50.089  1.00  0.00     0.068 A 
HETATM   15  C   UNL     1       5.046  26.023  50.534  1.00  0.00     0.037 A 
HETATM   16  C   UNL     1       5.848  25.963  51.681  1.00  0.00     0.012 A 
BRANCH  14  17
HETATM   17  O   UNL     1       3.767  27.441  48.983  1.00  0.00    -0.356 OA
HETATM   18  C   UNL     1       3.528  26.306  48.161  1.00  0.00     0.210 C 
ENDBRANCH  14  17
ENDBRANCH   1  11
BRANCH   8  19
HETATM   19  C   UNL     1       7.445  29.246  56.766  1.00  0.00    -0.031 A 
HETATM   20  C   UNL     1       8.445  29.876  57.526  1.00  0.00     0.028 A 
HETATM   21  C   UNL     1       8.109  30.868  58.449  1.00  0.00     0.011 A 
HETATM   22 BR   UNL     1       9.469  31.705  59.460  1.00  0.00    -0.051 Br
HETATM   23  C   UNL     1       6.782  31.250  58.627  1.00  0.00     0.019 A 
HETATM   24  C   UNL     1       5.781  30.635  57.879  1.00  0.00     0.002 A 
HETATM   25  C   UNL     1       6.109  29.642  56.953  1.00  0.00     0.009 A 
ENDBRANCH   8  19
BRANCH   6  26
HETATM   26  N   UNL     1       8.714  24.313  58.321  1.00  0.00    -0.229 N 
HETATM   27  H   UNL     1       8.001  23.796  58.816  1.00  0.00     0.174 HD
HETATM   28  H   UNL     1       9.550  23.788  58.106  1.00  0.00     0.174 HD
ENDBRANCH   6  26
TORSDOF 4
ENDMDL
