MODEL 1
REMARK VINA RESULT:      -8.7      0.000      0.000
REMARK  1 active torsions:
REMARK  status: ('A' for Active; 'I' for Inactive)
REMARK    1  A    between atoms: C_8  and  C_9 
ROOT
HETATM    1  C   UNL     1       7.614  26.739  57.626  1.00  0.00     0.073 C 
HETATM    2  C   UNL     1       7.662  27.460  56.329  1.00  0.00     0.062 C 
HETATM    3  N   UNL     1       8.539  28.460  56.186  1.00  0.00    -0.178 NA
HETATM    4  N   UNL     1       8.357  28.871  54.928  1.00  0.00    -0.262 N 
HETATM    5  H   UNL     1       8.935  29.631  54.587  1.00  0.00     0.191 HD
HETATM    6  C   UNL     1       7.296  28.274  54.310  1.00  0.00     0.134 C 
HETATM    7  C   UNL     1       6.893  27.241  55.136  1.00  0.00     0.032 C 
HETATM    8  C   UNL     1       5.945  26.111  54.874  1.00  0.00     0.120 C 
HETATM    9  S   UNL     1       4.358  26.444  54.045  1.00  0.00    -0.141 SA
HETATM   10  C   UNL     1       4.434  28.191  53.560  1.00  0.00     0.136 C 
HETATM   11  C   UNL     1       4.233  29.168  54.714  1.00  0.00     0.031 C 
HETATM   12  C   UNL     1       5.582  28.543  52.618  1.00  0.00     0.236 C 
HETATM   13  O   UNL     1       5.373  28.792  51.426  1.00  0.00    -0.272 OA
HETATM   14  N   UNL     1       6.854  28.705  53.089  1.00  0.00    -0.311 N 
HETATM   15  H   UNL     1       7.475  29.202  52.460  1.00  0.00     0.170 HD
ENDROOT
BRANCH   8  16
HETATM   16  C   UNL     1       6.770  25.032  54.150  1.00  0.00    -0.029 A 
HETATM   17  C   UNL     1       7.420  23.955  54.843  1.00  0.00    -0.018 A 
HETATM   18  C   UNL     1       8.221  23.046  54.096  1.00  0.00    -0.025 A 
HETATM   19  C   UNL     1       7.330  23.708  56.236  1.00  0.00     0.013 A 
HETATM   20  C   UNL     1       8.902  21.996  54.734  1.00  0.00     0.012 A 
HETATM   21  C   UNL     1       8.340  23.178  52.708  1.00  0.00     0.012 A 
HETATM   22  C   UNL     1       8.808  21.808  56.109  1.00  0.00     0.001 A 
HETATM   23  C   UNL     1       8.015  22.661  56.859  1.00  0.00     0.001 A 
HETATM   24  C   UNL     1       7.686  24.198  52.033  1.00  0.00     0.002 A 
HETATM   25  C   UNL     1       6.919  25.112  52.744  1.00  0.00     0.009 A 
ENDBRANCH   8  16
TORSDOF 1
ENDMDL
MODEL 2
REMARK VINA RESULT:      -8.5      3.567      6.277
REMARK  1 active torsions:
REMARK  status: ('A' for Active; 'I' for Inactive)
REMARK    1  A    between atoms: C_8  and  C_9 
ROOT
HETATM    1  C   UNL     1       4.704  30.418  57.790  1.00  0.00     0.073 C 
HETATM    2  C   UNL     1       5.264  29.788  56.567  1.00  0.00     0.062 C 
HETATM    3  N   UNL     1       4.817  30.198  55.375  1.00  0.00    -0.178 NA
HETATM    4  N   UNL     1       5.524  29.477  54.500  1.00  0.00    -0.262 N 
HETATM    5  H   UNL     1       5.357  29.631  53.512  1.00  0.00     0.191 HD
HETATM    6  C   UNL     1       6.295  28.516  55.087  1.00  0.00     0.134 C 
HETATM    7  C   UNL     1       6.269  28.769  56.447  1.00  0.00     0.032 C 
HETATM    8  C   UNL     1       7.106  28.198  57.550  1.00  0.00     0.120 C 
HETATM    9  S   UNL     1       7.420  26.405  57.603  1.00  0.00    -0.141 SA
HETATM   10  C   UNL     1       6.710  25.754  56.066  1.00  0.00     0.136 C 
HETATM   11  C   UNL     1       5.188  25.661  56.071  1.00  0.00     0.031 C 
HETATM   12  C   UNL     1       7.310  26.336  54.789  1.00  0.00     0.236 C 
HETATM   13  O   UNL     1       8.064  25.664  54.076  1.00  0.00    -0.272 OA
HETATM   14  N   UNL     1       6.941  27.570  54.337  1.00  0.00    -0.311 N 
HETATM   15  H   UNL     1       7.166  27.747  53.365  1.00  0.00     0.170 HD
ENDROOT
BRANCH   8  16
HETATM   16  C   UNL     1       8.406  29.022  57.557  1.00  0.00    -0.029 A 
HETATM   17  C   UNL     1       8.630  30.112  58.464  1.00  0.00    -0.018 A 
HETATM   18  C   UNL     1       9.835  30.861  58.348  1.00  0.00    -0.025 A 
HETATM   19  C   UNL     1       7.741  30.515  59.492  1.00  0.00     0.013 A 
HETATM   20  C   UNL     1      10.084  31.956  59.192  1.00  0.00     0.012 A 
HETATM   21  C   UNL     1      10.798  30.516  57.393  1.00  0.00     0.012 A 
HETATM   22  C   UNL     1       9.170  32.335  60.169  1.00  0.00     0.001 A 
HETATM   23  C   UNL     1       8.001  31.609  60.324  1.00  0.00     0.001 A 
HETATM   24  C   UNL     1      10.598  29.443  56.538  1.00  0.00     0.002 A 
HETATM   25  C   UNL     1       9.419  28.712  56.616  1.00  0.00     0.009 A 
ENDBRANCH   8  16
TORSDOF 1
ENDMDL
MODEL 3
REMARK VINA RESULT:      -8.2      8.384     10.518
REMARK  1 active torsions:
REMARK  status: ('A' for Active; 'I' for Inactive)
REMARK    1  A    between atoms: C_8  and  C_9 
ROOT
HETATM    1  C   UNL     1       4.853  32.047  58.063  1.00  0.00     0.073 C 
HETATM    2  C   UNL     1       4.131  31.931  59.355  1.00  0.00     0.062 C 
HETATM    3  N   UNL     1       3.248  30.938  59.508  1.00  0.00    -0.178 NA
HETATM    4  N   UNL     1       2.807  31.088  60.759  1.00  0.00    -0.262 N 
HETATM    5  H   UNL     1       2.122  30.425  61.105  1.00  0.00     0.191 HD
HETATM    6  C   UNL     1       3.259  32.227  61.361  1.00  0.00     0.134 C 
HETATM    7  C   UNL     1       4.241  32.743  60.535  1.00  0.00     0.032 C 
HETATM    8  C   UNL     1       5.239  33.831  60.788  1.00  0.00     0.120 C 
HETATM    9  S   UNL     1       4.701  35.377  61.585  1.00  0.00    -0.141 SA
HETATM   10  C   UNL     1       2.973  35.089  62.058  1.00  0.00     0.136 C 
HETATM   11  C   UNL     1       1.989  35.144  60.894  1.00  0.00     0.031 C 
HETATM   12  C   UNL     1       2.760  33.923  63.019  1.00  0.00     0.236 C 
HETATM   13  O   UNL     1       2.475  34.120  64.205  1.00  0.00    -0.272 OA
HETATM   14  N   UNL     1       2.764  32.633  62.571  1.00  0.00    -0.311 N 
HETATM   15  H   UNL     1       2.344  31.965  63.208  1.00  0.00     0.170 HD
ENDROOT
BRANCH   8  16
HETATM   16  C   UNL     1       6.407  33.162  61.535  1.00  0.00    -0.029 A 
HETATM   17  C   UNL     1       7.431  32.412  60.863  1.00  0.00    -0.018 A 
HETATM   18  C   UNL     1       8.432  31.769  61.646  1.00  0.00    -0.025 A 
HETATM   19  C   UNL     1       7.541  32.256  59.458  1.00  0.00     0.013 A 
HETATM   20  C   UNL     1       9.436  30.999  61.035  1.00  0.00     0.012 A 
HETATM   21  C   UNL     1       8.437  31.898  63.039  1.00  0.00     0.012 A 
HETATM   22  C   UNL     1       9.488  30.849  59.654  1.00  0.00     0.001 A 
HETATM   23  C   UNL     1       8.544  31.484  58.865  1.00  0.00     0.001 A 
HETATM   24  C   UNL     1       7.467  32.648  63.686  1.00  0.00     0.002 A 
HETATM   25  C   UNL     1       6.466  33.265  62.946  1.00  0.00     0.009 A 
ENDBRANCH   8  16
TORSDOF 1
ENDMDL
MODEL 4
REMARK VINA RESULT:      -7.9      1.527      2.104
REMARK  1 active torsions:
REMARK  status: ('A' for Active; 'I' for Inactive)
REMARK    1  A    between atoms: C_8  and  C_9 
ROOT
HETATM    1  C   UNL     1       8.350  25.831  57.803  1.00  0.00     0.073 C 
HETATM    2  C   UNL     1       8.141  27.103  57.066  1.00  0.00     0.062 C 
HETATM    3  N   UNL     1       9.097  28.037  57.118  1.00  0.00    -0.178 NA
HETATM    4  N   UNL     1       8.629  29.021  56.346  1.00  0.00    -0.262 N 
HETATM    5  H   UNL     1       9.204  29.847  56.227  1.00  0.00     0.191 HD
HETATM    6  C   UNL     1       7.346  28.817  55.925  1.00  0.00     0.134 C 
HETATM    7  C   UNL     1       7.030  27.511  56.253  1.00  0.00     0.032 C 
HETATM    8  C   UNL     1       5.865  26.667  55.834  1.00  0.00     0.120 C 
HETATM    9  S   UNL     1       4.188  27.377  55.853  1.00  0.00    -0.141 SA
HETATM   10  C   UNL     1       4.421  29.133  56.249  1.00  0.00     0.136 C 
HETATM   11  C   UNL     1       4.741  29.405  57.716  1.00  0.00     0.031 C 
HETATM   12  C   UNL     1       5.286  29.902  55.254  1.00  0.00     0.236 C 
HETATM   13  O   UNL     1       4.783  30.714  54.469  1.00  0.00    -0.272 OA
HETATM   14  N   UNL     1       6.647  29.801  55.280  1.00  0.00    -0.311 N 
HETATM   15  H   UNL     1       7.133  30.543  54.788  1.00  0.00     0.170 HD
ENDROOT
BRANCH   8  16
HETATM   16  C   UNL     1       6.241  26.089  54.458  1.00  0.00    -0.029 A 
HETATM   17  C   UNL     1       6.810  24.781  54.293  1.00  0.00    -0.018 A 
HETATM   18  C   UNL     1       7.191  24.361  52.988  1.00  0.00    -0.025 A 
HETATM   19  C   UNL     1       7.026  23.848  55.338  1.00  0.00     0.013 A 
HETATM   20  C   UNL     1       7.781  23.103  52.782  1.00  0.00     0.012 A 
HETATM   21  C   UNL     1       6.980  25.193  51.883  1.00  0.00     0.012 A 
HETATM   22  C   UNL     1       8.001  22.229  53.841  1.00  0.00     0.001 A 
HETATM   23  C   UNL     1       7.616  22.599  55.119  1.00  0.00     0.001 A 
HETATM   24  C   UNL     1       6.401  26.443  52.035  1.00  0.00     0.002 A 
HETATM   25  C   UNL     1       6.042  26.885  53.303  1.00  0.00     0.009 A 
ENDBRANCH   8  16
TORSDOF 1
ENDMDL
MODEL 5
REMARK VINA RESULT:      -7.7      2.398      3.543
REMARK  1 active torsions:
REMARK  status: ('A' for Active; 'I' for Inactive)
REMARK    1  A    between atoms: C_8  and  C_9 
ROOT
HETATM    1  C   UNL     1       5.732  28.712  50.818  1.00  0.00     0.073 C 
HETATM    2  C   UNL     1       5.053  28.294  52.070  1.00  0.00     0.062 C 
HETATM    3  N   UNL     1       3.718  28.201  52.074  1.00  0.00    -0.178 NA
HETATM    4  N   UNL     1       3.427  27.783  53.308  1.00  0.00    -0.262 N 
HETATM    5  H   UNL     1       2.452  27.629  53.541  1.00  0.00     0.191 HD
HETATM    6  C   UNL     1       4.510  27.750  54.139  1.00  0.00     0.134 C 
HETATM    7  C   UNL     1       5.622  27.941  53.341  1.00  0.00     0.032 C 
HETATM    8  C   UNL     1       7.077  27.769  53.656  1.00  0.00     0.120 C 
HETATM    9  S   UNL     1       7.739  28.420  55.222  1.00  0.00    -0.141 SA
HETATM   10  C   UNL     1       6.289  29.007  56.142  1.00  0.00     0.136 C 
HETATM   11  C   UNL     1       5.719  30.327  55.635  1.00  0.00     0.031 C 
HETATM   12  C   UNL     1       5.245  27.934  56.441  1.00  0.00     0.236 C 
HETATM   13  O   UNL     1       5.102  27.486  57.584  1.00  0.00    -0.272 OA
HETATM   14  N   UNL     1       4.366  27.522  55.481  1.00  0.00    -0.311 N 
HETATM   15  H   UNL     1       3.552  27.033  55.838  1.00  0.00     0.170 HD
ENDROOT
BRANCH   8  16
HETATM   16  C   UNL     1       7.369  26.269  53.474  1.00  0.00    -0.029 A 
HETATM   17  C   UNL     1       7.631  25.389  54.578  1.00  0.00    -0.018 A 
HETATM   18  C   UNL     1       7.962  24.031  54.307  1.00  0.00    -0.025 A 
HETATM   19  C   UNL     1       7.584  25.758  55.946  1.00  0.00     0.013 A 
HETATM   20  C   UNL     1       8.257  23.141  55.352  1.00  0.00     0.012 A 
HETATM   21  C   UNL     1       7.994  23.556  52.991  1.00  0.00     0.012 A 
HETATM   22  C   UNL     1       8.227  23.554  56.680  1.00  0.00     0.001 A 
HETATM   23  C   UNL     1       7.883  24.862  56.977  1.00  0.00     0.001 A 
HETATM   24  C   UNL     1       7.709  24.397  51.925  1.00  0.00     0.002 A 
HETATM   25  C   UNL     1       7.407  25.732  52.164  1.00  0.00     0.009 A 
ENDBRANCH   8  16
TORSDOF 1
ENDMDL
MODEL 6
REMARK VINA RESULT:      -7.7      1.286      2.535
REMARK  1 active torsions:
REMARK  status: ('A' for Active; 'I' for Inactive)
REMARK    1  A    between atoms: C_8  and  C_9 
ROOT
HETATM    1  C   UNL     1       8.193  28.998  58.515  1.00  0.00     0.073 C 
HETATM    2  C   UNL     1       8.283  28.935  57.034  1.00  0.00     0.062 C 
HETATM    3  N   UNL     1       9.187  29.702  56.414  1.00  0.00    -0.178 NA
HETATM    4  N   UNL     1       9.038  29.396  55.123  1.00  0.00    -0.262 N 
HETATM    5  H   UNL     1       9.641  29.859  54.452  1.00  0.00     0.191 HD
HETATM    6  C   UNL     1       7.973  28.578  54.878  1.00  0.00     0.134 C 
HETATM    7  C   UNL     1       7.529  28.134  56.110  1.00  0.00     0.032 C 
HETATM    8  C   UNL     1       6.557  27.045  56.450  1.00  0.00     0.120 C 
HETATM    9  S   UNL     1       4.995  26.916  55.524  1.00  0.00    -0.141 SA
HETATM   10  C   UNL     1       5.123  28.151  54.201  1.00  0.00     0.136 C 
HETATM   11  C   UNL     1       4.927  29.589  54.668  1.00  0.00     0.031 C 
HETATM   12  C   UNL     1       6.297  27.944  53.247  1.00  0.00     0.236 C 
HETATM   13  O   UNL     1       6.115  27.536  52.094  1.00  0.00    -0.272 OA
HETATM   14  N   UNL     1       7.563  28.312  53.599  1.00  0.00    -0.311 N 
HETATM   15  H   UNL     1       8.208  28.399  52.821  1.00  0.00     0.170 HD
ENDROOT
BRANCH   8  16
HETATM   16  C   UNL     1       7.367  25.737  56.419  1.00  0.00    -0.029 A 
HETATM   17  C   UNL     1       7.341  24.833  55.304  1.00  0.00    -0.018 A 
HETATM   18  C   UNL     1       8.068  23.612  55.397  1.00  0.00    -0.025 A 
HETATM   19  C   UNL     1       6.645  25.054  54.089  1.00  0.00     0.013 A 
HETATM   20  C   UNL     1       8.047  22.682  54.345  1.00  0.00     0.012 A 
HETATM   21  C   UNL     1       8.823  23.319  56.538  1.00  0.00     0.012 A 
HETATM   22  C   UNL     1       7.326  22.927  53.181  1.00  0.00     0.001 A 
HETATM   23  C   UNL     1       6.630  24.118  53.051  1.00  0.00     0.001 A 
HETATM   24  C   UNL     1       8.875  24.206  57.602  1.00  0.00     0.002 A 
HETATM   25  C   UNL     1       8.155  25.392  57.545  1.00  0.00     0.009 A 
ENDBRANCH   8  16
TORSDOF 1
ENDMDL
MODEL 7
REMARK VINA RESULT:      -7.3      5.130      7.901
REMARK  1 active torsions:
REMARK  status: ('A' for Active; 'I' for Inactive)
REMARK    1  A    between atoms: C_8  and  C_9 
ROOT
HETATM    1  C   UNL     1       8.265  29.017  57.282  1.00  0.00     0.073 C 
HETATM    2  C   UNL     1       6.781  28.957  57.254  1.00  0.00     0.062 C 
HETATM    3  N   UNL     1       6.188  27.759  57.311  1.00  0.00    -0.178 NA
HETATM    4  N   UNL     1       4.883  28.043  57.298  1.00  0.00    -0.262 N 
HETATM    5  H   UNL     1       4.227  27.272  57.346  1.00  0.00     0.191 HD
HETATM    6  C   UNL     1       4.619  29.366  57.082  1.00  0.00     0.134 C 
HETATM    7  C   UNL     1       5.827  30.029  57.187  1.00  0.00     0.032 C 
HETATM    8  C   UNL     1       6.117  31.496  57.278  1.00  0.00     0.120 C 
HETATM    9  S   UNL     1       5.256  32.653  56.167  1.00  0.00    -0.141 SA
HETATM   10  C   UNL     1       4.038  31.641  55.281  1.00  0.00     0.136 C 
HETATM   11  C   UNL     1       4.635  30.762  54.186  1.00  0.00     0.031 C 
HETATM   12  C   UNL     1       3.018  30.942  56.175  1.00  0.00     0.236 C 
HETATM   13  O   UNL     1       1.844  31.327  56.222  1.00  0.00    -0.272 OA
HETATM   14  N   UNL     1       3.342  29.804  56.857  1.00  0.00    -0.311 N 
HETATM   15  H   UNL     1       2.546  29.269  57.185  1.00  0.00     0.170 HD
ENDROOT
BRANCH   8  16
HETATM   16  C   UNL     1       5.939  31.865  58.762  1.00  0.00    -0.029 A 
HETATM   17  C   UNL     1       7.040  31.949  59.680  1.00  0.00    -0.018 A 
HETATM   18  C   UNL     1       6.769  32.228  61.049  1.00  0.00    -0.025 A 
HETATM   19  C   UNL     1       8.405  31.781  59.335  1.00  0.00     0.013 A 
HETATM   20  C   UNL     1       7.810  32.289  61.990  1.00  0.00     0.012 A 
HETATM   21  C   UNL     1       5.458  32.453  61.483  1.00  0.00     0.012 A 
HETATM   22  C   UNL     1       9.134  32.088  61.613  1.00  0.00     0.001 A 
HETATM   23  C   UNL     1       9.432  31.841  60.283  1.00  0.00     0.001 A 
HETATM   24  C   UNL     1       4.397  32.404  60.592  1.00  0.00     0.002 A 
HETATM   25  C   UNL     1       4.634  32.110  59.255  1.00  0.00     0.009 A 
ENDBRANCH   8  16
TORSDOF 1
ENDMDL
MODEL 8
REMARK VINA RESULT:      -7.2     11.333     13.573
REMARK  1 active torsions:
REMARK  status: ('A' for Active; 'I' for Inactive)
REMARK    1  A    between atoms: C_8  and  C_9 
ROOT
HETATM    1  C   UNL     1       5.703  37.884  63.777  1.00  0.00     0.073 C 
HETATM    2  C   UNL     1       5.156  36.561  64.174  1.00  0.00     0.062 C 
HETATM    3  N   UNL     1       4.619  36.431  65.392  1.00  0.00    -0.178 NA
HETATM    4  N   UNL     1       4.202  35.162  65.426  1.00  0.00    -0.262 N 
HETATM    5  H   UNL     1       3.743  34.834  66.268  1.00  0.00     0.191 HD
HETATM    6  C   UNL     1       4.588  34.435  64.337  1.00  0.00     0.134 C 
HETATM    7  C   UNL     1       5.094  35.339  63.422  1.00  0.00     0.032 C 
HETATM    8  C   UNL     1       5.443  35.155  61.976  1.00  0.00     0.120 C 
HETATM    9  S   UNL     1       6.374  33.679  61.458  1.00  0.00    -0.141 SA
HETATM   10  C   UNL     1       6.491  32.646  62.945  1.00  0.00     0.136 C 
HETATM   11  C   UNL     1       7.508  33.139  63.970  1.00  0.00     0.031 C 
HETATM   12  C   UNL     1       5.148  32.219  63.533  1.00  0.00     0.236 C 
HETATM   13  O   UNL     1       4.749  31.054  63.426  1.00  0.00    -0.272 OA
HETATM   14  N   UNL     1       4.407  33.079  64.291  1.00  0.00    -0.311 N 
HETATM   15  H   UNL     1       3.694  32.633  64.857  1.00  0.00     0.170 HD
ENDROOT
BRANCH   8  16
HETATM   16  C   UNL     1       4.122  35.317  61.204  1.00  0.00    -0.029 A 
HETATM   17  C   UNL     1       3.750  36.540  60.549  1.00  0.00    -0.018 A 
HETATM   18  C   UNL     1       2.475  36.617  59.919  1.00  0.00    -0.025 A 
HETATM   19  C   UNL     1       4.558  37.702  60.468  1.00  0.00     0.013 A 
HETATM   20  C   UNL     1       2.054  37.803  59.294  1.00  0.00     0.012 A 
HETATM   21  C   UNL     1       1.620  35.511  59.907  1.00  0.00     0.012 A 
HETATM   22  C   UNL     1       2.868  38.929  59.263  1.00  0.00     0.001 A 
HETATM   23  C   UNL     1       4.125  38.876  59.844  1.00  0.00     0.001 A 
HETATM   24  C   UNL     1       1.991  34.319  60.510  1.00  0.00     0.002 A 
HETATM   25  C   UNL     1       3.220  34.227  61.152  1.00  0.00     0.009 A 
ENDBRANCH   8  16
TORSDOF 1
ENDMDL
MODEL 9
REMARK VINA RESULT:      -7.1      6.210      9.656
REMARK  1 active torsions:
REMARK  status: ('A' for Active; 'I' for Inactive)
REMARK    1  A    between atoms: C_8  and  C_9 
ROOT
HETATM    1  C   UNL     1       2.770  25.592  47.622  1.00  0.00     0.073 C 
HETATM    2  C   UNL     1       3.851  26.591  47.819  1.00  0.00     0.062 C 
HETATM    3  N   UNL     1       5.036  26.375  47.236  1.00  0.00    -0.178 NA
HETATM    4  N   UNL     1       5.762  27.444  47.574  1.00  0.00    -0.262 N 
HETATM    5  H   UNL     1       6.712  27.503  47.228  1.00  0.00     0.191 HD
HETATM    6  C   UNL     1       5.138  28.261  48.474  1.00  0.00     0.134 C 
HETATM    7  C   UNL     1       3.830  27.821  48.560  1.00  0.00     0.032 C 
HETATM    8  C   UNL     1       2.637  28.465  49.198  1.00  0.00     0.120 C 
HETATM    9  S   UNL     1       2.794  29.208  50.853  1.00  0.00    -0.141 SA
HETATM   10  C   UNL     1       4.562  29.110  51.250  1.00  0.00     0.136 C 
HETATM   11  C   UNL     1       5.038  27.715  51.642  1.00  0.00     0.031 C 
HETATM   12  C   UNL     1       5.477  29.846  50.275  1.00  0.00     0.236 C 
HETATM   13  O   UNL     1       6.028  30.905  50.595  1.00  0.00    -0.272 OA
HETATM   14  N   UNL     1       5.804  29.299  49.067  1.00  0.00    -0.311 N 
HETATM   15  H   UNL     1       6.616  29.713  48.624  1.00  0.00     0.170 HD
ENDROOT
BRANCH   8  16
HETATM   16  C   UNL     1       2.093  29.461  48.158  1.00  0.00    -0.029 A 
HETATM   17  C   UNL     1       1.079  29.111  47.203  1.00  0.00    -0.018 A 
HETATM   18  C   UNL     1       0.690  30.078  46.233  1.00  0.00    -0.025 A 
HETATM   19  C   UNL     1       0.411  27.862  47.143  1.00  0.00     0.013 A 
HETATM   20  C   UNL     1      -0.275  29.771  45.260  1.00  0.00     0.012 A 
HETATM   21  C   UNL     1       1.260  31.356  46.236  1.00  0.00     0.012 A 
HETATM   22  C   UNL     1      -0.884  28.522  45.219  1.00  0.00     0.001 A 
HETATM   23  C   UNL     1      -0.547  27.569  46.166  1.00  0.00     0.001 A 
HETATM   24  C   UNL     1       2.216  31.706  47.177  1.00  0.00     0.002 A 
HETATM   25  C   UNL     1       2.629  30.771  48.119  1.00  0.00     0.009 A 
ENDBRANCH   8  16
TORSDOF 1
ENDMDL
MODEL 10
REMARK VINA RESULT:      -7.0      9.712     11.985
REMARK  1 active torsions:
REMARK  status: ('A' for Active; 'I' for Inactive)
REMARK    1  A    between atoms: C_8  and  C_9 
ROOT
HETATM    1  C   UNL     1       1.918  35.885  60.500  1.00  0.00     0.073 C 
HETATM    2  C   UNL     1       2.201  35.072  61.710  1.00  0.00     0.062 C 
HETATM    3  N   UNL     1       1.182  34.454  62.318  1.00  0.00    -0.178 NA
HETATM    4  N   UNL     1       1.759  33.798  63.329  1.00  0.00    -0.262 N 
HETATM    5  H   UNL     1       1.168  33.239  63.933  1.00  0.00     0.191 HD
HETATM    6  C   UNL     1       3.084  34.094  63.482  1.00  0.00     0.134 C 
HETATM    7  C   UNL     1       3.455  34.816  62.362  1.00  0.00     0.032 C 
HETATM    8  C   UNL     1       4.818  35.201  61.871  1.00  0.00     0.120 C 
HETATM    9  S   UNL     1       6.044  35.855  63.048  1.00  0.00    -0.141 SA
HETATM   10  C   UNL     1       5.270  35.688  64.681  1.00  0.00     0.136 C 
HETATM   11  C   UNL     1       4.188  36.724  64.968  1.00  0.00     0.031 C 
HETATM   12  C   UNL     1       4.905  34.259  65.071  1.00  0.00     0.236 C 
HETATM   13  O   UNL     1       5.554  33.648  65.927  1.00  0.00    -0.272 OA
HETATM   14  N   UNL     1       3.786  33.657  64.572  1.00  0.00    -0.311 N 
HETATM   15  H   UNL     1       3.479  32.842  65.091  1.00  0.00     0.170 HD
ENDROOT
BRANCH   8  16
HETATM   16  C   UNL     1       5.343  33.980  61.095  1.00  0.00    -0.029 A 
HETATM   17  C   UNL     1       6.416  33.156  61.576  1.00  0.00    -0.018 A 
HETATM   18  C   UNL     1       6.880  32.091  60.754  1.00  0.00    -0.025 A 
HETATM   19  C   UNL     1       7.065  33.309  62.827  1.00  0.00     0.013 A 
HETATM   20  C   UNL     1       7.948  31.277  61.168  1.00  0.00     0.012 A 
HETATM   21  C   UNL     1       6.277  31.830  59.519  1.00  0.00     0.012 A 
HETATM   22  C   UNL     1       8.576  31.481  62.391  1.00  0.00     0.001 A 
HETATM   23  C   UNL     1       8.129  32.493  63.225  1.00  0.00     0.001 A 
HETATM   24  C   UNL     1       5.219  32.604  59.067  1.00  0.00     0.002 A 
HETATM   25  C   UNL     1       4.764  33.665  59.841  1.00  0.00     0.009 A 
ENDBRANCH   8  16
TORSDOF 1
ENDMDL
