MODEL 1
REMARK VINA RESULT:      -9.8      0.000      0.000
REMARK  4 active torsions:
REMARK  status: ('A' for Active; 'I' for Inactive)
REMARK    1  A    between atoms: O_2  and  C_3 
REMARK    2  A    between atoms: C_5  and  C_6 
REMARK    3  A    between atoms: C_10  and  C_11 
REMARK       I    between atoms: C_11  and  N_12 
REMARK    4  A    between atoms: N_12  and  N_13 
ROOT
HETATM    1  C   UNL     1       6.679  27.679  53.716  1.00  0.00     0.289 C 
HETATM    2  N   UNL     1       6.030  26.829  54.599  1.00  0.00    -0.241 N 
HETATM    3  O   UNL     1       7.714  28.288  53.962  1.00  0.00    -0.264 OA
HETATM    4  H   UNL     1       5.257  26.272  54.268  1.00  0.00     0.192 HD
ENDROOT
BRANCH   1   5
HETATM    5  C   UNL     1       6.001  27.835  52.451  1.00  0.00     0.121 A 
HETATM    6  N   UNL     1       5.815  29.067  51.889  1.00  0.00    -0.272 N 
HETATM    7  N   UNL     1       5.115  29.049  50.743  1.00  0.00    -0.174 NA
HETATM    8  H   UNL     1       6.129  29.959  52.263  1.00  0.00     0.189 HD
HETATM    9  C   UNL     1       4.866  27.749  50.517  1.00  0.00     0.089 A 
HETATM   10  C   UNL     1       5.411  26.955  51.565  1.00  0.00     0.071 A 
BRANCH   9  11
HETATM   11  C   UNL     1       4.108  27.295  49.348  1.00  0.00    -0.003 A 
HETATM   12  C   UNL     1       3.324  28.204  48.616  1.00  0.00     0.050 A 
HETATM   13  C   UNL     1       2.573  27.778  47.518  1.00  0.00     0.069 A 
HETATM   14  C   UNL     1       2.607  26.432  47.147  1.00  0.00     0.037 A 
HETATM   15  C   UNL     1       3.388  25.520  47.854  1.00  0.00     0.004 A 
HETATM   16  C   UNL     1       4.136  25.950  48.951  1.00  0.00     0.014 A 
BRANCH  13  17
HETATM   17  O   UNL     1       1.769  28.564  46.739  1.00  0.00    -0.356 OA
HETATM   18  C   UNL     1       0.494  28.032  46.396  1.00  0.00     0.210 C 
ENDBRANCH  13  17
ENDBRANCH   9  11
ENDBRANCH   1   5
BRANCH   2  19
HETATM   19  N   UNL     1       6.597  26.484  55.787  1.00  0.00    -0.165 NA
HETATM   20  C   UNL     1       7.346  25.426  55.831  1.00  0.00     0.157 A 
HETATM   21  C   UNL     1       8.197  25.092  57.073  1.00  0.00     0.277 A 
HETATM   22  C   UNL     1       7.626  24.354  54.860  1.00  0.00     0.027 A 
HETATM   23  O   UNL     1       8.221  25.700  58.120  1.00  0.00    -0.266 OA
HETATM   24  N   UNL     1       8.932  23.982  56.723  1.00  0.00    -0.321 N 
HETATM   25  C   UNL     1       8.600  23.544  55.448  1.00  0.00     0.048 A 
HETATM   26  H   UNL     1       9.582  23.541  57.357  1.00  0.00     0.169 HD
HETATM   27  C   UNL     1       9.109  22.430  54.810  1.00  0.00     0.030 A 
HETATM   28  C   UNL     1       8.597  22.120  53.548  1.00  0.00     0.002 A 
HETATM   29  C   UNL     1       7.587  22.908  52.966  1.00  0.00     0.001 A 
HETATM   30  C   UNL     1       7.082  24.033  53.629  1.00  0.00     0.016 A 
ENDBRANCH   2  19
TORSDOF 4
ENDMDL
MODEL 2
REMARK VINA RESULT:      -9.7      4.427      7.749
REMARK  4 active torsions:
REMARK  status: ('A' for Active; 'I' for Inactive)
REMARK    1  A    between atoms: O_2  and  C_3 
REMARK    2  A    between atoms: C_5  and  C_6 
REMARK    3  A    between atoms: C_10  and  C_11 
REMARK       I    between atoms: C_11  and  N_12 
REMARK    4  A    between atoms: N_12  and  N_13 
ROOT
HETATM    1  C   UNL     1       4.333  28.246  54.606  1.00  0.00     0.289 C 
HETATM    2  N   UNL     1       3.962  28.324  55.940  1.00  0.00    -0.241 N 
HETATM    3  O   UNL     1       4.210  29.153  53.791  1.00  0.00    -0.264 OA
HETATM    4  H   UNL     1       4.217  27.575  56.567  1.00  0.00     0.192 HD
ENDROOT
BRANCH   1   5
HETATM    5  C   UNL     1       4.855  26.957  54.220  1.00  0.00     0.121 A 
HETATM    6  N   UNL     1       4.239  26.194  53.268  1.00  0.00    -0.272 N 
HETATM    7  N   UNL     1       4.813  24.997  53.066  1.00  0.00    -0.174 NA
HETATM    8  H   UNL     1       3.404  26.437  52.742  1.00  0.00     0.189 HD
HETATM    9  C   UNL     1       5.877  24.988  53.884  1.00  0.00     0.089 A 
HETATM   10  C   UNL     1       5.940  26.203  54.622  1.00  0.00     0.071 A 
BRANCH   9  11
HETATM   11  C   UNL     1       6.783  23.838  53.970  1.00  0.00    -0.003 A 
HETATM   12  C   UNL     1       7.162  23.329  55.225  1.00  0.00     0.050 A 
HETATM   13  C   UNL     1       8.048  22.253  55.322  1.00  0.00     0.069 A 
HETATM   14  C   UNL     1       8.558  21.680  54.155  1.00  0.00     0.037 A 
HETATM   15  C   UNL     1       8.183  22.164  52.903  1.00  0.00     0.004 A 
HETATM   16  C   UNL     1       7.298  23.240  52.811  1.00  0.00     0.014 A 
BRANCH  13  17
HETATM   17  O   UNL     1       8.496  21.680  56.480  1.00  0.00    -0.356 OA
HETATM   18  C   UNL     1       9.069  20.383  56.372  1.00  0.00     0.210 C 
ENDBRANCH  13  17
ENDBRANCH   9  11
ENDBRANCH   1   5
BRANCH   2  19
HETATM   19  N   UNL     1       3.560  29.502  56.491  1.00  0.00    -0.165 NA
HETATM   20  C   UNL     1       4.431  30.208  57.142  1.00  0.00     0.157 A 
HETATM   21  C   UNL     1       4.120  31.646  57.603  1.00  0.00     0.277 A 
HETATM   22  C   UNL     1       5.812  29.943  57.581  1.00  0.00     0.027 A 
HETATM   23  O   UNL     1       3.069  32.235  57.480  1.00  0.00    -0.266 OA
HETATM   24  N   UNL     1       5.291  32.115  58.152  1.00  0.00    -0.321 N 
HETATM   25  C   UNL     1       6.273  31.132  58.152  1.00  0.00     0.048 A 
HETATM   26  H   UNL     1       5.375  33.044  58.541  1.00  0.00     0.169 HD
HETATM   27  C   UNL     1       7.545  31.249  58.673  1.00  0.00     0.030 A 
HETATM   28  C   UNL     1       8.365  30.119  58.633  1.00  0.00     0.002 A 
HETATM   29  C   UNL     1       7.895  28.907  58.097  1.00  0.00     0.001 A 
HETATM   30  C   UNL     1       6.601  28.806  57.573  1.00  0.00     0.016 A 
ENDBRANCH   2  19
TORSDOF 4
ENDMDL
MODEL 3
REMARK VINA RESULT:      -9.2      2.091      8.642
REMARK  4 active torsions:
REMARK  status: ('A' for Active; 'I' for Inactive)
REMARK    1  A    between atoms: O_2  and  C_3 
REMARK    2  A    between atoms: C_5  and  C_6 
REMARK    3  A    between atoms: C_10  and  C_11 
REMARK       I    between atoms: C_11  and  N_12 
REMARK    4  A    between atoms: N_12  and  N_13 
ROOT
HETATM    1  C   UNL     1       4.102  28.235  53.058  1.00  0.00     0.289 C 
HETATM    2  N   UNL     1       3.812  28.100  51.709  1.00  0.00    -0.241 N 
HETATM    3  O   UNL     1       3.853  29.227  53.733  1.00  0.00    -0.264 OA
HETATM    4  H   UNL     1       3.936  27.202  51.266  1.00  0.00     0.192 HD
ENDROOT
BRANCH   1   5
HETATM    5  C   UNL     1       4.782  27.095  53.626  1.00  0.00     0.121 A 
HETATM    6  N   UNL     1       4.797  26.873  54.975  1.00  0.00    -0.272 N 
HETATM    7  N   UNL     1       5.522  25.806  55.348  1.00  0.00    -0.174 NA
HETATM    8  H   UNL     1       4.347  27.439  55.688  1.00  0.00     0.189 HD
HETATM    9  C   UNL     1       5.965  25.276  54.197  1.00  0.00     0.089 A 
HETATM   10  C   UNL     1       5.517  26.054  53.093  1.00  0.00     0.071 A 
BRANCH   9  11
HETATM   11  C   UNL     1       6.811  24.079  54.167  1.00  0.00    -0.003 A 
HETATM   12  C   UNL     1       7.222  23.473  55.368  1.00  0.00     0.050 A 
HETATM   13  C   UNL     1       8.054  22.351  55.353  1.00  0.00     0.069 A 
HETATM   14  C   UNL     1       8.476  21.828  54.129  1.00  0.00     0.037 A 
HETATM   15  C   UNL     1       8.068  22.408  52.930  1.00  0.00     0.004 A 
HETATM   16  C   UNL     1       7.238  23.531  52.949  1.00  0.00     0.014 A 
BRANCH  13  17
HETATM   17  O   UNL     1       8.525  21.684  56.451  1.00  0.00    -0.356 OA
HETATM   18  C   UNL     1       9.011  20.364  56.237  1.00  0.00     0.210 C 
ENDBRANCH  13  17
ENDBRANCH   9  11
ENDBRANCH   1   5
BRANCH   2  19
HETATM   19  N   UNL     1       3.071  29.035  51.052  1.00  0.00    -0.165 NA
HETATM   20  C   UNL     1       2.577  28.728  49.893  1.00  0.00     0.157 A 
HETATM   21  C   UNL     1       1.552  29.640  49.189  1.00  0.00     0.277 A 
HETATM   22  C   UNL     1       2.766  27.578  48.994  1.00  0.00     0.027 A 
HETATM   23  O   UNL     1       1.156  30.718  49.573  1.00  0.00    -0.266 OA
HETATM   24  N   UNL     1       1.174  28.956  48.056  1.00  0.00    -0.321 N 
HETATM   25  C   UNL     1       1.879  27.765  47.932  1.00  0.00     0.048 A 
HETATM   26  H   UNL     1       0.503  29.325  47.398  1.00  0.00     0.169 HD
HETATM   27  C   UNL     1       1.783  26.865  46.890  1.00  0.00     0.030 A 
HETATM   28  C   UNL     1       2.628  25.753  46.918  1.00  0.00     0.002 A 
HETATM   29  C   UNL     1       3.553  25.578  47.963  1.00  0.00     0.001 A 
HETATM   30  C   UNL     1       3.637  26.502  49.011  1.00  0.00     0.016 A 
ENDBRANCH   2  19
TORSDOF 4
ENDMDL
MODEL 4
REMARK VINA RESULT:      -9.1      5.000      9.152
REMARK  4 active torsions:
REMARK  status: ('A' for Active; 'I' for Inactive)
REMARK    1  A    between atoms: O_2  and  C_3 
REMARK    2  A    between atoms: C_5  and  C_6 
REMARK    3  A    between atoms: C_10  and  C_11 
REMARK       I    between atoms: C_11  and  N_12 
REMARK    4  A    between atoms: N_12  and  N_13 
ROOT
HETATM    1  C   UNL     1       8.179  28.585  55.300  1.00  0.00     0.289 C 
HETATM    2  N   UNL     1       7.351  27.502  55.046  1.00  0.00    -0.241 N 
HETATM    3  O   UNL     1       9.122  28.927  54.595  1.00  0.00    -0.264 OA
HETATM    4  H   UNL     1       6.524  27.372  55.609  1.00  0.00     0.192 HD
ENDROOT
BRANCH   1   5
HETATM    5  C   UNL     1       7.867  29.285  56.523  1.00  0.00     0.121 A 
HETATM    6  N   UNL     1       6.648  29.872  56.717  1.00  0.00    -0.272 N 
HETATM    7  N   UNL     1       6.535  30.535  57.880  1.00  0.00    -0.174 NA
HETATM    8  H   UNL     1       5.864  29.871  56.070  1.00  0.00     0.189 HD
HETATM    9  C   UNL     1       7.710  30.339  58.498  1.00  0.00     0.089 A 
HETATM   10  C   UNL     1       8.571  29.554  57.680  1.00  0.00     0.071 A 
BRANCH   9  11
HETATM   11  C   UNL     1       8.000  30.910  59.817  1.00  0.00    -0.003 A 
HETATM   12  C   UNL     1       7.014  31.641  60.502  1.00  0.00     0.050 A 
HETATM   13  C   UNL     1       7.287  32.217  61.746  1.00  0.00     0.069 A 
HETATM   14  C   UNL     1       8.555  32.058  62.310  1.00  0.00     0.037 A 
HETATM   15  C   UNL     1       9.539  31.326  61.649  1.00  0.00     0.004 A 
HETATM   16  C   UNL     1       9.263  30.754  60.407  1.00  0.00     0.014 A 
BRANCH  13  17
HETATM   17  O   UNL     1       6.417  32.956  62.499  1.00  0.00    -0.356 OA
HETATM   18  C   UNL     1       5.167  32.350  62.810  1.00  0.00     0.210 C 
ENDBRANCH  13  17
ENDBRANCH   9  11
ENDBRANCH   1   5
BRANCH   2  19
HETATM   19  N   UNL     1       7.438  26.809  53.877  1.00  0.00    -0.165 NA
HETATM   20  C   UNL     1       7.594  25.523  53.932  1.00  0.00     0.157 A 
HETATM   21  C   UNL     1       7.480  24.644  52.670  1.00  0.00     0.277 A 
HETATM   22  C   UNL     1       7.864  24.591  55.040  1.00  0.00     0.027 A 
HETATM   23  O   UNL     1       7.308  25.026  51.534  1.00  0.00    -0.266 OA
HETATM   24  N   UNL     1       7.589  23.347  53.118  1.00  0.00    -0.321 N 
HETATM   25  C   UNL     1       7.821  23.309  54.487  1.00  0.00     0.048 A 
HETATM   26  H   UNL     1       7.550  22.554  52.495  1.00  0.00     0.169 HD
HETATM   27  C   UNL     1       8.030  22.176  55.248  1.00  0.00     0.030 A 
HETATM   28  C   UNL     1       8.312  22.354  56.604  1.00  0.00     0.002 A 
HETATM   29  C   UNL     1       8.398  23.643  57.160  1.00  0.00     0.001 A 
HETATM   30  C   UNL     1       8.183  24.780  56.373  1.00  0.00     0.016 A 
ENDBRANCH   2  19
TORSDOF 4
ENDMDL
MODEL 5
REMARK VINA RESULT:      -9.1      7.562     11.945
REMARK  4 active torsions:
REMARK  status: ('A' for Active; 'I' for Inactive)
REMARK    1  A    between atoms: O_2  and  C_3 
REMARK    2  A    between atoms: C_5  and  C_6 
REMARK    3  A    between atoms: C_10  and  C_11 
REMARK       I    between atoms: C_11  and  N_12 
REMARK    4  A    between atoms: N_12  and  N_13 
ROOT
HETATM    1  C   UNL     1       8.482  30.126  58.880  1.00  0.00     0.289 C 
HETATM    2  N   UNL     1       7.607  29.105  58.543  1.00  0.00    -0.241 N 
HETATM    3  O   UNL     1       9.367  30.561  58.152  1.00  0.00    -0.264 OA
HETATM    4  H   UNL     1       6.830  28.900  59.153  1.00  0.00     0.192 HD
ENDROOT
BRANCH   1   5
HETATM    5  C   UNL     1       8.297  30.634  60.218  1.00  0.00     0.121 A 
HETATM    6  N   UNL     1       9.032  30.161  61.269  1.00  0.00    -0.272 N 
HETATM    7  N   UNL     1       8.700  30.691  62.457  1.00  0.00    -0.174 NA
HETATM    8  H   UNL     1       9.761  29.452  61.230  1.00  0.00     0.189 HD
HETATM    9  C   UNL     1       7.737  31.583  62.173  1.00  0.00     0.089 A 
HETATM   10  C   UNL     1       7.461  31.580  60.777  1.00  0.00     0.071 A 
BRANCH   9  11
HETATM   11  C   UNL     1       7.092  32.388  63.215  1.00  0.00    -0.003 A 
HETATM   12  C   UNL     1       5.690  32.483  63.267  1.00  0.00     0.050 A 
HETATM   13  C   UNL     1       5.063  33.271  64.235  1.00  0.00     0.069 A 
HETATM   14  C   UNL     1       5.843  33.968  65.160  1.00  0.00     0.037 A 
HETATM   15  C   UNL     1       7.233  33.875  65.130  1.00  0.00     0.004 A 
HETATM   16  C   UNL     1       7.855  33.087  64.161  1.00  0.00     0.014 A 
BRANCH  13  17
HETATM   17  O   UNL     1       3.714  33.449  64.379  1.00  0.00    -0.356 OA
HETATM   18  C   UNL     1       3.292  34.637  65.039  1.00  0.00     0.210 C 
ENDBRANCH  13  17
ENDBRANCH   9  11
ENDBRANCH   1   5
BRANCH   2  19
HETATM   19  N   UNL     1       7.572  28.597  57.280  1.00  0.00    -0.165 NA
HETATM   20  C   UNL     1       6.626  28.986  56.484  1.00  0.00     0.157 A 
HETATM   21  C   UNL     1       6.642  28.634  54.982  1.00  0.00     0.277 A 
HETATM   22  C   UNL     1       5.411  29.792  56.688  1.00  0.00     0.027 A 
HETATM   23  O   UNL     1       7.451  27.940  54.409  1.00  0.00    -0.266 OA
HETATM   24  N   UNL     1       5.562  29.295  54.442  1.00  0.00    -0.321 N 
HETATM   25  C   UNL     1       4.839  29.960  55.424  1.00  0.00     0.048 A 
HETATM   26  H   UNL     1       5.328  29.240  53.461  1.00  0.00     0.169 HD
HETATM   27  C   UNL     1       3.675  30.677  55.236  1.00  0.00     0.030 A 
HETATM   28  C   UNL     1       3.062  31.220  56.368  1.00  0.00     0.002 A 
HETATM   29  C   UNL     1       3.609  31.021  57.648  1.00  0.00     0.001 A 
HETATM   30  C   UNL     1       4.790  30.291  57.820  1.00  0.00     0.016 A 
ENDBRANCH   2  19
TORSDOF 4
ENDMDL
MODEL 6
REMARK VINA RESULT:      -9.0      7.329     11.316
REMARK  4 active torsions:
REMARK  status: ('A' for Active; 'I' for Inactive)
REMARK    1  A    between atoms: O_2  and  C_3 
REMARK    2  A    between atoms: C_5  and  C_6 
REMARK    3  A    between atoms: C_10  and  C_11 
REMARK       I    between atoms: C_11  and  N_12 
REMARK    4  A    between atoms: N_12  and  N_13 
ROOT
HETATM    1  C   UNL     1       5.850  31.587  57.896  1.00  0.00     0.289 C 
HETATM    2  N   UNL     1       5.731  30.264  57.497  1.00  0.00    -0.241 N 
HETATM    3  O   UNL     1       5.644  32.557  57.175  1.00  0.00    -0.264 OA
HETATM    4  H   UNL     1       5.795  29.534  58.190  1.00  0.00     0.192 HD
ENDROOT
BRANCH   1   5
HETATM    5  C   UNL     1       6.291  31.748  59.261  1.00  0.00     0.121 A 
HETATM    6  N   UNL     1       7.368  31.062  59.747  1.00  0.00    -0.272 N 
HETATM    7  N   UNL     1       7.614  31.275  61.050  1.00  0.00    -0.174 NA
HETATM    8  H   UNL     1       7.957  30.412  59.233  1.00  0.00     0.189 HD
HETATM    9  C   UNL     1       6.689  32.172  61.428  1.00  0.00     0.089 A 
HETATM   10  C   UNL     1       5.843  32.498  60.330  1.00  0.00     0.071 A 
BRANCH   9  11
HETATM   11  C   UNL     1       6.609  32.675  62.803  1.00  0.00    -0.003 A 
HETATM   12  C   UNL     1       5.357  32.874  63.411  1.00  0.00     0.050 A 
HETATM   13  C   UNL     1       5.266  33.382  64.709  1.00  0.00     0.069 A 
HETATM   14  C   UNL     1       6.435  33.691  65.406  1.00  0.00     0.037 A 
HETATM   15  C   UNL     1       7.684  33.489  64.823  1.00  0.00     0.004 A 
HETATM   16  C   UNL     1       7.771  32.982  63.525  1.00  0.00     0.014 A 
BRANCH  13  17
HETATM   17  O   UNL     1       4.110  33.626  65.399  1.00  0.00    -0.356 OA
HETATM   18  C   UNL     1       3.205  34.559  64.819  1.00  0.00     0.210 C 
ENDBRANCH  13  17
ENDBRANCH   9  11
ENDBRANCH   1   5
BRANCH   2  19
HETATM   19  N   UNL     1       5.215  29.940  56.280  1.00  0.00    -0.165 NA
HETATM   20  C   UNL     1       5.306  28.711  55.878  1.00  0.00     0.157 A 
HETATM   21  C   UNL     1       4.558  28.217  54.622  1.00  0.00     0.277 A 
HETATM   22  C   UNL     1       6.015  27.533  56.404  1.00  0.00     0.027 A 
HETATM   23  O   UNL     1       3.891  28.887  53.866  1.00  0.00    -0.266 OA
HETATM   24  N   UNL     1       4.794  26.862  54.567  1.00  0.00    -0.321 N 
HETATM   25  C   UNL     1       5.644  26.460  55.590  1.00  0.00     0.048 A 
HETATM   26  H   UNL     1       4.420  26.276  53.835  1.00  0.00     0.169 HD
HETATM   27  C   UNL     1       6.124  25.183  55.797  1.00  0.00     0.030 A 
HETATM   28  C   UNL     1       7.024  24.995  56.849  1.00  0.00     0.002 A 
HETATM   29  C   UNL     1       7.434  26.077  57.647  1.00  0.00     0.001 A 
HETATM   30  C   UNL     1       6.938  27.366  57.422  1.00  0.00     0.016 A 
ENDBRANCH   2  19
TORSDOF 4
ENDMDL
MODEL 7
REMARK VINA RESULT:      -8.8      5.041      9.338
REMARK  4 active torsions:
REMARK  status: ('A' for Active; 'I' for Inactive)
REMARK    1  A    between atoms: O_2  and  C_3 
REMARK    2  A    between atoms: C_5  and  C_6 
REMARK    3  A    between atoms: C_10  and  C_11 
REMARK       I    between atoms: C_11  and  N_12 
REMARK    4  A    between atoms: N_12  and  N_13 
ROOT
HETATM    1  C   UNL     1       5.962  29.117  55.444  1.00  0.00     0.289 C 
HETATM    2  N   UNL     1       6.783  28.831  54.364  1.00  0.00    -0.241 N 
HETATM    3  O   UNL     1       4.739  29.187  55.396  1.00  0.00    -0.264 OA
HETATM    4  H   UNL     1       7.766  28.669  54.523  1.00  0.00     0.192 HD
ENDROOT
BRANCH   1   5
HETATM    5  C   UNL     1       6.678  29.379  56.669  1.00  0.00     0.121 A 
HETATM    6  N   UNL     1       7.536  28.459  57.204  1.00  0.00    -0.272 N 
HETATM    7  N   UNL     1       8.078  28.827  58.376  1.00  0.00    -0.174 NA
HETATM    8  H   UNL     1       7.767  27.548  56.817  1.00  0.00     0.189 HD
HETATM    9  C   UNL     1       7.593  30.059  58.602  1.00  0.00     0.089 A 
HETATM   10  C   UNL     1       6.714  30.442  57.550  1.00  0.00     0.071 A 
BRANCH   9  11
HETATM   11  C   UNL     1       7.944  30.825  59.802  1.00  0.00    -0.003 A 
HETATM   12  C   UNL     1       7.115  31.873  60.240  1.00  0.00     0.050 A 
HETATM   13  C   UNL     1       7.454  32.630  61.364  1.00  0.00     0.069 A 
HETATM   14  C   UNL     1       8.630  32.337  62.057  1.00  0.00     0.037 A 
HETATM   15  C   UNL     1       9.456  31.294  61.644  1.00  0.00     0.004 A 
HETATM   16  C   UNL     1       9.115  30.540  60.520  1.00  0.00     0.014 A 
BRANCH  13  17
HETATM   17  O   UNL     1       6.736  33.675  61.876  1.00  0.00    -0.356 OA
HETATM   18  C   UNL     1       5.638  33.344  62.720  1.00  0.00     0.210 C 
ENDBRANCH  13  17
ENDBRANCH   9  11
ENDBRANCH   1   5
BRANCH   2  19
HETATM   19  N   UNL     1       6.262  28.448  53.166  1.00  0.00    -0.165 NA
HETATM   20  C   UNL     1       6.214  27.182  52.891  1.00  0.00     0.157 A 
HETATM   21  C   UNL     1       5.444  26.654  51.664  1.00  0.00     0.277 A 
HETATM   22  C   UNL     1       6.764  25.988  53.556  1.00  0.00     0.027 A 
HETATM   23  O   UNL     1       4.880  27.316  50.821  1.00  0.00    -0.266 OA
HETATM   24  N   UNL     1       5.515  25.282  51.751  1.00  0.00    -0.321 N 
HETATM   25  C   UNL     1       6.286  24.889  52.838  1.00  0.00     0.048 A 
HETATM   26  H   UNL     1       5.092  24.672  51.066  1.00  0.00     0.169 HD
HETATM   27  C   UNL     1       6.604  23.592  53.187  1.00  0.00     0.030 A 
HETATM   28  C   UNL     1       7.449  23.408  54.284  1.00  0.00     0.002 A 
HETATM   29  C   UNL     1       7.967  24.510  54.987  1.00  0.00     0.001 A 
HETATM   30  C   UNL     1       7.634  25.819  54.618  1.00  0.00     0.016 A 
ENDBRANCH   2  19
TORSDOF 4
ENDMDL
MODEL 8
REMARK VINA RESULT:      -8.8      2.116      2.689
REMARK  4 active torsions:
REMARK  status: ('A' for Active; 'I' for Inactive)
REMARK    1  A    between atoms: O_2  and  C_3 
REMARK    2  A    between atoms: C_5  and  C_6 
REMARK    3  A    between atoms: C_10  and  C_11 
REMARK       I    between atoms: C_11  and  N_12 
REMARK    4  A    between atoms: N_12  and  N_13 
ROOT
HETATM    1  C   UNL     1       5.576  25.740  55.142  1.00  0.00     0.289 C 
HETATM    2  N   UNL     1       6.493  24.712  54.982  1.00  0.00    -0.241 N 
HETATM    3  O   UNL     1       5.036  26.040  56.200  1.00  0.00    -0.264 OA
HETATM    4  H   UNL     1       6.981  24.620  54.104  1.00  0.00     0.192 HD
ENDROOT
BRANCH   1   5
HETATM    5  C   UNL     1       5.257  26.433  53.916  1.00  0.00     0.121 A 
HETATM    6  N   UNL     1       4.395  27.494  53.900  1.00  0.00    -0.272 N 
HETATM    7  N   UNL     1       4.156  27.991  52.676  1.00  0.00    -0.174 NA
HETATM    8  H   UNL     1       3.921  27.903  54.702  1.00  0.00     0.189 HD
HETATM    9  C   UNL     1       4.925  27.257  51.856  1.00  0.00     0.089 A 
HETATM   10  C   UNL     1       5.635  26.272  52.598  1.00  0.00     0.071 A 
BRANCH   9  11
HETATM   11  C   UNL     1       4.952  27.482  50.407  1.00  0.00    -0.003 A 
HETATM   12  C   UNL     1       4.482  26.490  49.529  1.00  0.00     0.050 A 
HETATM   13  C   UNL     1       4.531  26.679  48.145  1.00  0.00     0.069 A 
HETATM   14  C   UNL     1       5.051  27.870  47.636  1.00  0.00     0.037 A 
HETATM   15  C   UNL     1       5.509  28.869  48.492  1.00  0.00     0.004 A 
HETATM   16  C   UNL     1       5.460  28.675  49.874  1.00  0.00     0.014 A 
BRANCH  13  17
HETATM   17  O   UNL     1       4.115  25.786  47.196  1.00  0.00    -0.356 OA
HETATM   18  C   UNL     1       2.943  25.037  47.493  1.00  0.00     0.210 C 
ENDBRANCH  13  17
ENDBRANCH   9  11
ENDBRANCH   1   5
BRANCH   2  19
HETATM   19  N   UNL     1       6.987  24.038  56.057  1.00  0.00    -0.165 NA
HETATM   20  C   UNL     1       7.636  22.935  55.848  1.00  0.00     0.157 A 
HETATM   21  C   UNL     1       8.412  22.231  56.980  1.00  0.00     0.277 A 
HETATM   22  C   UNL     1       7.850  22.108  54.649  1.00  0.00     0.027 A 
HETATM   23  O   UNL     1       8.456  22.563  58.144  1.00  0.00    -0.266 OA
HETATM   24  N   UNL     1       9.055  21.174  56.379  1.00  0.00    -0.321 N 
HETATM   25  C   UNL     1       8.728  21.090  55.031  1.00  0.00     0.048 A 
HETATM   26  H   UNL     1       9.642  20.533  56.892  1.00  0.00     0.169 HD
HETATM   27  C   UNL     1       9.155  20.121  54.146  1.00  0.00     0.030 A 
HETATM   28  C   UNL     1       8.659  20.175  52.842  1.00  0.00     0.002 A 
HETATM   29  C   UNL     1       7.744  21.172  52.460  1.00  0.00     0.001 A 
HETATM   30  C   UNL     1       7.321  22.147  53.371  1.00  0.00     0.016 A 
ENDBRANCH   2  19
TORSDOF 4
ENDMDL
MODEL 9
REMARK VINA RESULT:      -8.8      6.989      9.957
REMARK  4 active torsions:
REMARK  status: ('A' for Active; 'I' for Inactive)
REMARK    1  A    between atoms: O_2  and  C_3 
REMARK    2  A    between atoms: C_5  and  C_6 
REMARK    3  A    between atoms: C_10  and  C_11 
REMARK       I    between atoms: C_11  and  N_12 
REMARK    4  A    between atoms: N_12  and  N_13 
ROOT
HETATM    1  C   UNL     1       5.788  31.557  58.418  1.00  0.00     0.289 C 
HETATM    2  N   UNL     1       4.970  31.522  59.537  1.00  0.00    -0.241 N 
HETATM    3  O   UNL     1       5.930  32.527  57.683  1.00  0.00    -0.264 OA
HETATM    4  H   UNL     1       5.014  30.725  60.154  1.00  0.00     0.192 HD
ENDROOT
BRANCH   1   5
HETATM    5  C   UNL     1       6.456  30.307  58.144  1.00  0.00     0.121 A 
HETATM    6  N   UNL     1       7.597  29.948  58.806  1.00  0.00    -0.272 N 
HETATM    7  N   UNL     1       8.129  28.785  58.395  1.00  0.00    -0.174 NA
HETATM    8  H   UNL     1       8.069  30.478  59.533  1.00  0.00     0.189 HD
HETATM    9  C   UNL     1       7.281  28.337  57.455  1.00  0.00     0.089 A 
HETATM   10  C   UNL     1       6.215  29.262  57.273  1.00  0.00     0.071 A 
BRANCH   9  11
HETATM   11  C   UNL     1       7.506  27.076  56.742  1.00  0.00    -0.003 A 
HETATM   12  C   UNL     1       7.106  26.941  55.401  1.00  0.00     0.050 A 
HETATM   13  C   UNL     1       7.287  25.734  54.720  1.00  0.00     0.069 A 
HETATM   14  C   UNL     1       7.875  24.655  55.383  1.00  0.00     0.037 A 
HETATM   15  C   UNL     1       8.288  24.776  56.708  1.00  0.00     0.004 A 
HETATM   16  C   UNL     1       8.104  25.982  57.386  1.00  0.00     0.014 A 
BRANCH  13  17
HETATM   17  O   UNL     1       6.931  25.481  53.423  1.00  0.00    -0.356 OA
HETATM   18  C   UNL     1       7.961  25.027  52.554  1.00  0.00     0.210 C 
ENDBRANCH  13  17
ENDBRANCH   9  11
ENDBRANCH   1   5
BRANCH   2  19
HETATM   19  N   UNL     1       4.362  32.649  59.999  1.00  0.00    -0.165 NA
HETATM   20  C   UNL     1       4.882  33.258  61.019  1.00  0.00     0.157 A 
HETATM   21  C   UNL     1       4.389  34.650  61.462  1.00  0.00     0.277 A 
HETATM   22  C   UNL     1       5.968  32.909  61.949  1.00  0.00     0.027 A 
HETATM   23  O   UNL     1       3.470  35.280  60.987  1.00  0.00    -0.266 OA
HETATM   24  N   UNL     1       5.228  35.025  62.487  1.00  0.00    -0.321 N 
HETATM   25  C   UNL     1       6.139  34.018  62.780  1.00  0.00     0.048 A 
HETATM   26  H   UNL     1       5.133  35.906  62.971  1.00  0.00     0.169 HD
HETATM   27  C   UNL     1       7.088  34.043  63.783  1.00  0.00     0.030 A 
HETATM   28  C   UNL     1       7.870  32.900  63.960  1.00  0.00     0.002 A 
HETATM   29  C   UNL     1       7.676  31.763  63.154  1.00  0.00     0.001 A 
HETATM   30  C   UNL     1       6.709  31.756  62.142  1.00  0.00     0.016 A 
ENDBRANCH   2  19
TORSDOF 4
ENDMDL
MODEL 10
REMARK VINA RESULT:      -8.4      2.194      2.734
REMARK  4 active torsions:
REMARK  status: ('A' for Active; 'I' for Inactive)
REMARK    1  A    between atoms: O_2  and  C_3 
REMARK    2  A    between atoms: C_5  and  C_6 
REMARK    3  A    between atoms: C_10  and  C_11 
REMARK       I    between atoms: C_11  and  N_12 
REMARK    4  A    between atoms: N_12  and  N_13 
ROOT
HETATM    1  C   UNL     1       5.285  27.351  53.886  1.00  0.00     0.289 C 
HETATM    2  N   UNL     1       6.368  26.512  54.100  1.00  0.00    -0.241 N 
HETATM    3  O   UNL     1       4.582  27.827  54.770  1.00  0.00    -0.264 OA
HETATM    4  H   UNL     1       6.966  26.271  53.324  1.00  0.00     0.192 HD
ENDROOT
BRANCH   1   5
HETATM    5  C   UNL     1       5.008  27.602  52.492  1.00  0.00     0.121 A 
HETATM    6  N   UNL     1       4.817  26.577  51.608  1.00  0.00    -0.272 N 
HETATM    7  N   UNL     1       4.629  26.974  50.339  1.00  0.00    -0.174 NA
HETATM    8  H   UNL     1       4.830  25.583  51.819  1.00  0.00     0.189 HD
HETATM    9  C   UNL     1       4.653  28.315  50.394  1.00  0.00     0.089 A 
HETATM   10  C   UNL     1       4.883  28.747  51.731  1.00  0.00     0.071 A 
BRANCH   9  11
HETATM   11  C   UNL     1       4.486  29.146  49.198  1.00  0.00    -0.003 A 
HETATM   12  C   UNL     1       5.055  30.431  49.145  1.00  0.00     0.050 A 
HETATM   13  C   UNL     1       4.878  31.245  48.024  1.00  0.00     0.069 A 
HETATM   14  C   UNL     1       4.127  30.771  46.946  1.00  0.00     0.037 A 
HETATM   15  C   UNL     1       3.566  29.496  46.978  1.00  0.00     0.004 A 
HETATM   16  C   UNL     1       3.745  28.686  48.100  1.00  0.00     0.014 A 
BRANCH  13  17
HETATM   17  O   UNL     1       5.372  32.510  47.861  1.00  0.00    -0.356 OA
HETATM   18  C   UNL     1       6.387  32.922  48.770  1.00  0.00     0.210 C 
ENDBRANCH  13  17
ENDBRANCH   9  11
ENDBRANCH   1   5
BRANCH   2  19
HETATM   19  N   UNL     1       6.832  26.269  55.357  1.00  0.00    -0.165 NA
HETATM   20  C   UNL     1       7.540  25.202  55.559  1.00  0.00     0.157 A 
HETATM   21  C   UNL     1       8.284  24.969  56.889  1.00  0.00     0.277 A 
HETATM   22  C   UNL     1       7.858  24.035  54.719  1.00  0.00     0.027 A 
HETATM   23  O   UNL     1       8.249  25.675  57.873  1.00  0.00    -0.266 OA
HETATM   24  N   UNL     1       9.007  23.813  56.705  1.00  0.00    -0.321 N 
HETATM   25  C   UNL     1       8.758  23.261  55.455  1.00  0.00     0.048 A 
HETATM   26  H   UNL     1       9.593  23.419  57.427  1.00  0.00     0.169 HD
HETATM   27  C   UNL     1       9.277  22.079  54.967  1.00  0.00     0.030 A 
HETATM   28  C   UNL     1       8.853  21.661  53.704  1.00  0.00     0.002 A 
HETATM   29  C   UNL     1       7.916  22.413  52.973  1.00  0.00     0.001 A 
HETATM   30  C   UNL     1       7.399  23.610  53.484  1.00  0.00     0.016 A 
ENDBRANCH   2  19
TORSDOF 4
ENDMDL
