MODEL 1
REMARK VINA RESULT:     -10.5      0.000      0.000
REMARK  5 active torsions:
REMARK  status: ('A' for Active; 'I' for Inactive)
REMARK       I    between atoms: C_2  and  N_3 
REMARK    1  A    between atoms: C_2  and  C_31 
REMARK    2  A    between atoms: N_3  and  C_4 
REMARK    3  A    between atoms: C_9  and  C_10 
REMARK    4  A    between atoms: C_12  and  N_13 
REMARK    5  A    between atoms: N_13  and  C_14 
ROOT
HETATM    1  C   UNL     1       5.461  27.411  54.304  1.00  0.00     0.164 A 
HETATM    2  N   UNL     1       5.187  27.832  53.059  1.00  0.00    -0.210 NA
HETATM    3  C   UNL     1       4.469  28.960  52.911  1.00  0.00     0.143 A 
HETATM    4  C   UNL     1       3.983  29.680  54.013  1.00  0.00     0.039 A 
HETATM    5  C   UNL     1       3.189  30.854  53.939  1.00  0.00     0.018 A 
HETATM    6  C   UNL     1       2.740  31.488  55.096  1.00  0.00     0.001 A 
HETATM    7  C   UNL     1       3.072  30.956  56.333  1.00  0.00     0.002 A 
HETATM    8  C   UNL     1       3.850  29.797  56.403  1.00  0.00     0.032 A 
HETATM    9  C   UNL     1       4.314  29.150  55.265  1.00  0.00     0.073 A 
HETATM   10  N   UNL     1       5.051  28.045  55.414  1.00  0.00    -0.228 NA
ENDROOT
BRANCH   1  11
HETATM   11  C   UNL     1       6.246  26.160  54.446  1.00  0.00     0.039 A 
HETATM   12  C   UNL     1       7.419  26.035  55.241  1.00  0.00     0.049 A 
HETATM   13  C   UNL     1       8.074  24.794  55.314  1.00  0.00     0.030 A 
HETATM   14  C   UNL     1       7.605  23.678  54.618  1.00  0.00     0.002 A 
HETATM   15  C   UNL     1       6.472  23.782  53.831  1.00  0.00     0.001 A 
HETATM   16  C   UNL     1       5.806  25.004  53.748  1.00  0.00     0.018 A 
BRANCH  12  17
HETATM   17  N   UNL     1       7.932  27.167  55.923  1.00  0.00    -0.321 N 
HETATM   18  C   UNL     1       8.028  27.397  57.283  1.00  0.00     0.274 C 
HETATM   19  O   UNL     1       7.620  26.677  58.187  1.00  0.00    -0.266 OA
HETATM   20  H   UNL     1       8.268  27.935  55.335  1.00  0.00     0.169 HD
BRANCH  18  21
HETATM   21  C   UNL     1       8.713  28.687  57.630  1.00  0.00     0.124 A 
HETATM   22  C   UNL     1       9.771  29.138  56.848  1.00  0.00     0.037 A 
HETATM   23  C   UNL     1      10.368  30.352  57.177  1.00  0.00     0.004 A 
HETATM   24  C   UNL     1       9.887  31.073  58.265  1.00  0.00     0.019 A 
HETATM   25  C   UNL     1       8.828  30.547  58.989  1.00  0.00     0.117 A 
HETATM   26  N   UNL     1       8.231  29.369  58.707  1.00  0.00    -0.256 NA
ENDBRANCH  18  21
ENDBRANCH  12  17
ENDBRANCH   1  11
BRANCH   3  27
HETATM   27  N   UNL     1       4.212  29.445  51.599  1.00  0.00    -0.340 N 
HETATM   28  H   UNL     1       5.031  29.948  51.275  1.00  0.00     0.167 HD
BRANCH  27  29
HETATM   29  C   UNL     1       3.562  28.759  50.545  1.00  0.00     0.034 A 
HETATM   30  C   UNL     1       2.229  29.026  50.201  1.00  0.00     0.032 A 
HETATM   31  C   UNL     1       1.590  28.394  49.125  1.00  0.00     0.034 A 
HETATM   32  C   UNL     1       2.350  27.489  48.383  1.00  0.00     0.062 A 
HETATM   33  N   UNL     1       2.045  26.715  47.295  1.00  0.00    -0.278 N 
HETATM   34  C   UNL     1       3.683  27.216  48.666  1.00  0.00     0.013 A 
HETATM   35  H   UNL     1       1.157  26.655  46.810  1.00  0.00     0.189 HD
HETATM   36  N   UNL     1       3.070  25.966  46.848  1.00  0.00    -0.186 NA
HETATM   37  C   UNL     1       4.065  26.274  47.685  1.00  0.00     0.152 A 
HETATM   38  C   UNL     1       4.305  27.867  49.748  1.00  0.00     0.044 A 
ENDBRANCH  27  29
ENDBRANCH   3  27
TORSDOF 5
ENDMDL
MODEL 2
REMARK VINA RESULT:     -10.4      2.312      6.067
REMARK  5 active torsions:
REMARK  status: ('A' for Active; 'I' for Inactive)
REMARK       I    between atoms: C_2  and  N_3 
REMARK    1  A    between atoms: C_2  and  C_31 
REMARK    2  A    between atoms: N_3  and  C_4 
REMARK    3  A    between atoms: C_9  and  C_10 
REMARK    4  A    between atoms: C_12  and  N_13 
REMARK    5  A    between atoms: N_13  and  C_14 
ROOT
HETATM    1  C   UNL     1       7.054  25.727  55.680  1.00  0.00     0.164 A 
HETATM    2  N   UNL     1       5.783  26.154  55.760  1.00  0.00    -0.210 NA
HETATM    3  C   UNL     1       5.546  27.349  56.331  1.00  0.00     0.143 A 
HETATM    4  C   UNL     1       6.581  28.137  56.861  1.00  0.00     0.039 A 
HETATM    5  C   UNL     1       6.408  29.387  57.510  1.00  0.00     0.018 A 
HETATM    6  C   UNL     1       7.501  30.085  58.019  1.00  0.00     0.001 A 
HETATM    7  C   UNL     1       8.772  29.543  57.892  1.00  0.00     0.002 A 
HETATM    8  C   UNL     1       8.938  28.308  57.258  1.00  0.00     0.032 A 
HETATM    9  C   UNL     1       7.865  27.596  56.737  1.00  0.00     0.073 A 
HETATM   10  N   UNL     1       8.105  26.421  56.145  1.00  0.00    -0.228 NA
ENDROOT
BRANCH   1  11
HETATM   11  C   UNL     1       7.293  24.403  55.057  1.00  0.00     0.039 A 
HETATM   12  C   UNL     1       7.164  24.137  53.665  1.00  0.00     0.049 A 
HETATM   13  C   UNL     1       7.431  22.844  53.183  1.00  0.00     0.030 A 
HETATM   14  C   UNL     1       7.815  21.809  54.038  1.00  0.00     0.002 A 
HETATM   15  C   UNL     1       7.936  22.047  55.396  1.00  0.00     0.001 A 
HETATM   16  C   UNL     1       7.678  23.323  55.894  1.00  0.00     0.018 A 
BRANCH  12  17
HETATM   17  N   UNL     1       6.737  25.165  52.787  1.00  0.00    -0.321 N 
HETATM   18  C   UNL     1       5.502  25.347  52.193  1.00  0.00     0.274 C 
HETATM   19  O   UNL     1       4.530  24.604  52.260  1.00  0.00    -0.266 OA
HETATM   20  H   UNL     1       7.439  25.868  52.540  1.00  0.00     0.169 HD
BRANCH  18  21
HETATM   21  C   UNL     1       5.400  26.611  51.388  1.00  0.00     0.124 A 
HETATM   22  C   UNL     1       5.776  27.823  51.958  1.00  0.00     0.037 A 
HETATM   23  C   UNL     1       5.698  28.973  51.178  1.00  0.00     0.004 A 
HETATM   24  C   UNL     1       5.257  28.874  49.863  1.00  0.00     0.019 A 
HETATM   25  C   UNL     1       4.904  27.624  49.377  1.00  0.00     0.117 A 
HETATM   26  N   UNL     1       4.955  26.489  50.106  1.00  0.00    -0.256 NA
ENDBRANCH  18  21
ENDBRANCH  12  17
ENDBRANCH   1  11
BRANCH   3  27
HETATM   27  N   UNL     1       4.211  27.836  56.379  1.00  0.00    -0.340 N 
HETATM   28  H   UNL     1       3.832  27.647  57.301  1.00  0.00     0.167 HD
BRANCH  27  29
HETATM   29  C   UNL     1       3.724  29.054  55.847  1.00  0.00     0.034 A 
HETATM   30  C   UNL     1       3.223  30.073  56.670  1.00  0.00     0.032 A 
HETATM   31  C   UNL     1       2.789  31.305  56.161  1.00  0.00     0.034 A 
HETATM   32  C   UNL     1       2.896  31.490  54.782  1.00  0.00     0.062 A 
HETATM   33  N   UNL     1       2.571  32.547  53.974  1.00  0.00    -0.278 N 
HETATM   34  C   UNL     1       3.416  30.523  53.931  1.00  0.00     0.013 A 
HETATM   35  H   UNL     1       2.166  33.434  54.251  1.00  0.00     0.189 HD
HETATM   36  N   UNL     1       2.840  32.347  52.671  1.00  0.00    -0.186 NA
HETATM   37  C   UNL     1       3.354  31.113  52.649  1.00  0.00     0.152 A 
HETATM   38  C   UNL     1       3.850  29.295  54.466  1.00  0.00     0.044 A 
ENDBRANCH  27  29
ENDBRANCH   3  27
TORSDOF 5
ENDMDL
MODEL 3
REMARK VINA RESULT:     -10.3      2.170      9.022
REMARK  5 active torsions:
REMARK  status: ('A' for Active; 'I' for Inactive)
REMARK       I    between atoms: C_2  and  N_3 
REMARK    1  A    between atoms: C_2  and  C_31 
REMARK    2  A    between atoms: N_3  and  C_4 
REMARK    3  A    between atoms: C_9  and  C_10 
REMARK    4  A    between atoms: C_12  and  N_13 
REMARK    5  A    between atoms: N_13  and  C_14 
ROOT
HETATM    1  C   UNL     1       5.263  28.488  54.430  1.00  0.00     0.164 A 
HETATM    2  N   UNL     1       6.197  28.487  55.394  1.00  0.00    -0.210 NA
HETATM    3  C   UNL     1       6.956  27.387  55.546  1.00  0.00     0.143 A 
HETATM    4  C   UNL     1       6.776  26.245  54.749  1.00  0.00     0.039 A 
HETATM    5  C   UNL     1       7.508  25.036  54.873  1.00  0.00     0.018 A 
HETATM    6  C   UNL     1       7.241  23.950  54.041  1.00  0.00     0.001 A 
HETATM    7  C   UNL     1       6.241  24.057  53.086  1.00  0.00     0.002 A 
HETATM    8  C   UNL     1       5.518  25.247  52.970  1.00  0.00     0.032 A 
HETATM    9  C   UNL     1       5.769  26.345  53.783  1.00  0.00     0.073 A 
HETATM   10  N   UNL     1       5.033  27.448  53.612  1.00  0.00    -0.228 NA
ENDROOT
BRANCH   1  11
HETATM   11  C   UNL     1       4.430  29.707  54.285  1.00  0.00     0.039 A 
HETATM   12  C   UNL     1       3.829  30.127  53.065  1.00  0.00     0.049 A 
HETATM   13  C   UNL     1       3.046  31.294  53.048  1.00  0.00     0.030 A 
HETATM   14  C   UNL     1       2.847  32.057  54.200  1.00  0.00     0.002 A 
HETATM   15  C   UNL     1       3.431  31.670  55.394  1.00  0.00     0.001 A 
HETATM   16  C   UNL     1       4.210  30.514  55.432  1.00  0.00     0.018 A 
BRANCH  12  17
HETATM   17  N   UNL     1       4.053  29.386  51.877  1.00  0.00    -0.321 N 
HETATM   18  C   UNL     1       5.001  29.586  50.891  1.00  0.00     0.274 C 
HETATM   19  O   UNL     1       5.812  30.502  50.816  1.00  0.00    -0.266 OA
HETATM   20  H   UNL     1       3.420  28.600  51.709  1.00  0.00     0.169 HD
BRANCH  18  21
HETATM   21  C   UNL     1       4.987  28.535  49.818  1.00  0.00     0.124 A 
HETATM   22  C   UNL     1       4.481  27.270  50.099  1.00  0.00     0.037 A 
HETATM   23  C   UNL     1       4.454  26.326  49.077  1.00  0.00     0.004 A 
HETATM   24  C   UNL     1       4.923  26.676  47.815  1.00  0.00     0.019 A 
HETATM   25  C   UNL     1       5.407  27.961  47.625  1.00  0.00     0.117 A 
HETATM   26  N   UNL     1       5.461  28.900  48.594  1.00  0.00    -0.256 NA
ENDBRANCH  18  21
ENDBRANCH  12  17
ENDBRANCH   1  11
BRANCH   3  27
HETATM   27  N   UNL     1       7.982  27.389  56.531  1.00  0.00    -0.340 N 
HETATM   28  H   UNL     1       8.633  26.641  56.320  1.00  0.00     0.167 HD
BRANCH  27  29
HETATM   29  C   UNL     1       8.633  28.517  57.085  1.00  0.00     0.034 A 
HETATM   30  C   UNL     1       9.906  28.920  56.657  1.00  0.00     0.032 A 
HETATM   31  C   UNL     1      10.539  30.066  57.158  1.00  0.00     0.034 A 
HETATM   32  C   UNL     1       9.834  30.815  58.101  1.00  0.00     0.062 A 
HETATM   33  N   UNL     1      10.150  31.962  58.779  1.00  0.00    -0.278 N 
HETATM   34  C   UNL     1       8.558  30.473  58.532  1.00  0.00     0.013 A 
HETATM   35  H   UNL     1      11.006  32.500  58.717  1.00  0.00     0.189 HD
HETATM   36  N   UNL     1       9.184  32.393  59.611  1.00  0.00    -0.186 NA
HETATM   37  C   UNL     1       8.217  31.483  59.458  1.00  0.00     0.152 A 
HETATM   38  C   UNL     1       7.940  29.320  58.011  1.00  0.00     0.044 A 
ENDBRANCH  27  29
ENDBRANCH   3  27
TORSDOF 5
ENDMDL
MODEL 4
REMARK VINA RESULT:     -10.3      2.591      8.883
REMARK  5 active torsions:
REMARK  status: ('A' for Active; 'I' for Inactive)
REMARK       I    between atoms: C_2  and  N_3 
REMARK    1  A    between atoms: C_2  and  C_31 
REMARK    2  A    between atoms: N_3  and  C_4 
REMARK    3  A    between atoms: C_9  and  C_10 
REMARK    4  A    between atoms: C_12  and  N_13 
REMARK    5  A    between atoms: N_13  and  C_14 
ROOT
HETATM    1  C   UNL     1       6.857  27.730  56.881  1.00  0.00     0.164 A 
HETATM    2  N   UNL     1       7.651  28.660  57.437  1.00  0.00    -0.210 NA
HETATM    3  C   UNL     1       7.129  29.872  57.695  1.00  0.00     0.143 A 
HETATM    4  C   UNL     1       5.800  30.192  57.375  1.00  0.00     0.039 A 
HETATM    5  C   UNL     1       5.188  31.456  57.580  1.00  0.00     0.018 A 
HETATM    6  C   UNL     1       3.863  31.678  57.212  1.00  0.00     0.001 A 
HETATM    7  C   UNL     1       3.138  30.647  56.632  1.00  0.00     0.002 A 
HETATM    8  C   UNL     1       3.745  29.405  56.426  1.00  0.00     0.032 A 
HETATM    9  C   UNL     1       5.062  29.157  56.790  1.00  0.00     0.073 A 
HETATM   10  N   UNL     1       5.571  27.943  56.558  1.00  0.00    -0.228 NA
ENDROOT
BRANCH   1  11
HETATM   11  C   UNL     1       7.454  26.403  56.596  1.00  0.00     0.039 A 
HETATM   12  C   UNL     1       7.365  25.736  55.342  1.00  0.00     0.049 A 
HETATM   13  C   UNL     1       7.984  24.485  55.180  1.00  0.00     0.030 A 
HETATM   14  C   UNL     1       8.682  23.874  56.224  1.00  0.00     0.002 A 
HETATM   15  C   UNL     1       8.771  24.502  57.455  1.00  0.00     0.001 A 
HETATM   16  C   UNL     1       8.165  25.745  57.634  1.00  0.00     0.018 A 
BRANCH  12  17
HETATM   17  N   UNL     1       6.628  26.323  54.282  1.00  0.00    -0.321 N 
HETATM   18  C   UNL     1       5.498  25.852  53.641  1.00  0.00     0.274 C 
HETATM   19  O   UNL     1       4.935  24.779  53.824  1.00  0.00    -0.266 OA
HETATM   20  H   UNL     1       6.983  27.215  53.925  1.00  0.00     0.169 HD
BRANCH  18  21
HETATM   21  C   UNL     1       4.945  26.801  52.617  1.00  0.00     0.124 A 
HETATM   22  C   UNL     1       4.090  27.823  53.015  1.00  0.00     0.037 A 
HETATM   23  C   UNL     1       3.617  28.705  52.048  1.00  0.00     0.004 A 
HETATM   24  C   UNL     1       4.016  28.542  50.725  1.00  0.00     0.019 A 
HETATM   25  C   UNL     1       4.873  27.496  50.419  1.00  0.00     0.117 A 
HETATM   26  N   UNL     1       5.343  26.614  51.327  1.00  0.00    -0.256 NA
ENDBRANCH  18  21
ENDBRANCH  12  17
ENDBRANCH   1  11
BRANCH   3  27
HETATM   27  N   UNL     1       7.943  30.852  58.327  1.00  0.00    -0.340 N 
HETATM   28  H   UNL     1       7.944  31.689  57.754  1.00  0.00     0.167 HD
BRANCH  27  29
HETATM   29  C   UNL     1       7.999  31.156  59.708  1.00  0.00     0.034 A 
HETATM   30  C   UNL     1       8.859  30.474  60.581  1.00  0.00     0.032 A 
HETATM   31  C   UNL     1       8.964  30.802  61.940  1.00  0.00     0.034 A 
HETATM   32  C   UNL     1       8.183  31.866  62.394  1.00  0.00     0.062 A 
HETATM   33  N   UNL     1       8.046  32.435  63.633  1.00  0.00    -0.278 N 
HETATM   34  C   UNL     1       7.342  32.592  61.561  1.00  0.00     0.013 A 
HETATM   35  H   UNL     1       8.511  32.165  64.491  1.00  0.00     0.189 HD
HETATM   36  N   UNL     1       7.189  33.472  63.669  1.00  0.00    -0.186 NA
HETATM   37  C   UNL     1       6.761  33.563  62.406  1.00  0.00     0.152 A 
HETATM   38  C   UNL     1       7.256  32.247  60.199  1.00  0.00     0.044 A 
ENDBRANCH  27  29
ENDBRANCH   3  27
TORSDOF 5
ENDMDL
MODEL 5
REMARK VINA RESULT:     -10.2      3.322      7.449
REMARK  5 active torsions:
REMARK  status: ('A' for Active; 'I' for Inactive)
REMARK       I    between atoms: C_2  and  N_3 
REMARK    1  A    between atoms: C_2  and  C_31 
REMARK    2  A    between atoms: N_3  and  C_4 
REMARK    3  A    between atoms: C_9  and  C_10 
REMARK    4  A    between atoms: C_12  and  N_13 
REMARK    5  A    between atoms: N_13  and  C_14 
ROOT
HETATM    1  C   UNL     1       5.054  27.199  51.491  1.00  0.00     0.164 A 
HETATM    2  N   UNL     1       6.178  26.502  51.725  1.00  0.00    -0.210 NA
HETATM    3  C   UNL     1       6.621  26.412  52.992  1.00  0.00     0.143 A 
HETATM    4  C   UNL     1       5.958  27.043  54.056  1.00  0.00     0.039 A 
HETATM    5  C   UNL     1       6.382  27.027  55.411  1.00  0.00     0.018 A 
HETATM    6  C   UNL     1       5.661  27.701  56.394  1.00  0.00     0.001 A 
HETATM    7  C   UNL     1       4.519  28.402  56.037  1.00  0.00     0.002 A 
HETATM    8  C   UNL     1       4.107  28.422  54.702  1.00  0.00     0.032 A 
HETATM    9  C   UNL     1       4.805  27.752  53.704  1.00  0.00     0.073 A 
HETATM   10  N   UNL     1       4.348  27.820  52.450  1.00  0.00    -0.228 NA
ENDROOT
BRANCH   1  11
HETATM   11  C   UNL     1       4.588  27.295  50.086  1.00  0.00     0.039 A 
HETATM   12  C   UNL     1       4.277  28.517  49.426  1.00  0.00     0.049 A 
HETATM   13  C   UNL     1       3.858  28.489  48.085  1.00  0.00     0.030 A 
HETATM   14  C   UNL     1       3.734  27.289  47.383  1.00  0.00     0.002 A 
HETATM   15  C   UNL     1       4.023  26.090  48.011  1.00  0.00     0.001 A 
HETATM   16  C   UNL     1       4.442  26.097  49.340  1.00  0.00     0.018 A 
BRANCH  12  17
HETATM   17  N   UNL     1       4.360  29.742  50.136  1.00  0.00    -0.321 N 
HETATM   18  C   UNL     1       5.414  30.632  50.219  1.00  0.00     0.274 C 
HETATM   19  O   UNL     1       6.533  30.503  49.736  1.00  0.00    -0.266 OA
HETATM   20  H   UNL     1       3.533  30.006  50.679  1.00  0.00     0.169 HD
BRANCH  18  21
HETATM   21  C   UNL     1       5.096  31.874  51.001  1.00  0.00     0.124 A 
HETATM   22  C   UNL     1       5.693  33.080  50.652  1.00  0.00     0.037 A 
HETATM   23  C   UNL     1       5.356  34.220  51.376  1.00  0.00     0.004 A 
HETATM   24  C   UNL     1       4.435  34.119  52.413  1.00  0.00     0.019 A 
HETATM   25  C   UNL     1       3.888  32.876  52.691  1.00  0.00     0.117 A 
HETATM   26  N   UNL     1       4.199  31.746  52.019  1.00  0.00    -0.256 NA
ENDBRANCH  18  21
ENDBRANCH  12  17
ENDBRANCH   1  11
BRANCH   3  27
HETATM   27  N   UNL     1       7.783  25.638  53.261  1.00  0.00    -0.340 N 
HETATM   28  H   UNL     1       8.429  26.203  53.801  1.00  0.00     0.167 HD
BRANCH  27  29
HETATM   29  C   UNL     1       7.835  24.273  53.635  1.00  0.00     0.034 A 
HETATM   30  C   UNL     1       7.735  23.243  52.688  1.00  0.00     0.032 A 
HETATM   31  C   UNL     1       7.840  21.890  53.037  1.00  0.00     0.034 A 
HETATM   32  C   UNL     1       8.071  21.602  54.383  1.00  0.00     0.062 A 
HETATM   33  N   UNL     1       8.222  20.416  55.051  1.00  0.00    -0.278 N 
HETATM   34  C   UNL     1       8.210  22.589  55.351  1.00  0.00     0.013 A 
HETATM   35  H   UNL     1       8.183  19.480  54.664  1.00  0.00     0.189 HD
HETATM   36  N   UNL     1       8.449  20.552  56.370  1.00  0.00    -0.186 NA
HETATM   37  C   UNL     1       8.440  21.877  56.549  1.00  0.00     0.152 A 
HETATM   38  C   UNL     1       8.106  23.942  54.976  1.00  0.00     0.044 A 
ENDBRANCH  27  29
ENDBRANCH   3  27
TORSDOF 5
ENDMDL
MODEL 6
REMARK VINA RESULT:     -10.1      2.329      7.919
REMARK  5 active torsions:
REMARK  status: ('A' for Active; 'I' for Inactive)
REMARK       I    between atoms: C_2  and  N_3 
REMARK    1  A    between atoms: C_2  and  C_31 
REMARK    2  A    between atoms: N_3  and  C_4 
REMARK    3  A    between atoms: C_9  and  C_10 
REMARK    4  A    between atoms: C_12  and  N_13 
REMARK    5  A    between atoms: N_13  and  C_14 
ROOT
HETATM    1  C   UNL     1       5.713  26.291  52.316  1.00  0.00     0.164 A 
HETATM    2  N   UNL     1       5.663  26.906  53.508  1.00  0.00    -0.210 NA
HETATM    3  C   UNL     1       6.346  26.367  54.533  1.00  0.00     0.143 A 
HETATM    4  C   UNL     1       7.078  25.177  54.394  1.00  0.00     0.039 A 
HETATM    5  C   UNL     1       7.791  24.526  55.434  1.00  0.00     0.018 A 
HETATM    6  C   UNL     1       8.475  23.336  55.196  1.00  0.00     0.001 A 
HETATM    7  C   UNL     1       8.448  22.780  53.926  1.00  0.00     0.002 A 
HETATM    8  C   UNL     1       7.740  23.419  52.905  1.00  0.00     0.032 A 
HETATM    9  C   UNL     1       7.056  24.610  53.115  1.00  0.00     0.073 A 
HETATM   10  N   UNL     1       6.400  25.160  52.088  1.00  0.00    -0.228 NA
ENDROOT
BRANCH   1  11
HETATM   11  C   UNL     1       4.945  26.896  51.200  1.00  0.00     0.039 A 
HETATM   12  C   UNL     1       4.151  28.071  51.318  1.00  0.00     0.049 A 
HETATM   13  C   UNL     1       3.477  28.565  50.188  1.00  0.00     0.030 A 
HETATM   14  C   UNL     1       3.562  27.926  48.950  1.00  0.00     0.002 A 
HETATM   15  C   UNL     1       4.321  26.776  48.818  1.00  0.00     0.001 A 
HETATM   16  C   UNL     1       4.999  26.272  49.927  1.00  0.00     0.018 A 
BRANCH  12  17
HETATM   17  N   UNL     1       4.022  28.711  52.577  1.00  0.00    -0.321 N 
HETATM   18  C   UNL     1       4.004  30.061  52.871  1.00  0.00     0.274 C 
HETATM   19  O   UNL     1       4.164  30.993  52.090  1.00  0.00    -0.266 OA
HETATM   20  H   UNL     1       3.945  28.095  53.391  1.00  0.00     0.169 HD
BRANCH  18  21
HETATM   21  C   UNL     1       3.760  30.360  54.322  1.00  0.00     0.124 A 
HETATM   22  C   UNL     1       3.190  31.575  54.689  1.00  0.00     0.037 A 
HETATM   23  C   UNL     1       2.949  31.812  56.040  1.00  0.00     0.004 A 
HETATM   24  C   UNL     1       3.275  30.832  56.971  1.00  0.00     0.019 A 
HETATM   25  C   UNL     1       3.838  29.650  56.515  1.00  0.00     0.117 A 
HETATM   26  N   UNL     1       4.098  29.388  55.216  1.00  0.00    -0.256 NA
ENDBRANCH  18  21
ENDBRANCH  12  17
ENDBRANCH   1  11
BRANCH   3  27
HETATM   27  N   UNL     1       6.342  27.033  55.790  1.00  0.00    -0.340 N 
HETATM   28  H   UNL     1       6.042  26.376  56.502  1.00  0.00     0.167 HD
BRANCH  27  29
HETATM   29  C   UNL     1       7.311  27.940  56.281  1.00  0.00     0.034 A 
HETATM   30  C   UNL     1       8.324  28.456  55.460  1.00  0.00     0.032 A 
HETATM   31  C   UNL     1       9.257  29.396  55.919  1.00  0.00     0.034 A 
HETATM   32  C   UNL     1       9.124  29.822  57.241  1.00  0.00     0.062 A 
HETATM   33  N   UNL     1       9.848  30.710  57.992  1.00  0.00    -0.278 N 
HETATM   34  C   UNL     1       8.118  29.364  58.082  1.00  0.00     0.013 A 
HETATM   35  H   UNL     1      10.661  31.242  57.705  1.00  0.00     0.189 HD
HETATM   36  N   UNL     1       9.393  30.867  59.249  1.00  0.00    -0.186 NA
HETATM   37  C   UNL     1       8.340  30.045  59.300  1.00  0.00     0.152 A 
HETATM   38  C   UNL     1       7.190  28.424  57.598  1.00  0.00     0.044 A 
ENDBRANCH  27  29
ENDBRANCH   3  27
TORSDOF 5
ENDMDL
MODEL 7
REMARK VINA RESULT:      -9.9      5.139      9.280
REMARK  5 active torsions:
REMARK  status: ('A' for Active; 'I' for Inactive)
REMARK       I    between atoms: C_2  and  N_3 
REMARK    1  A    between atoms: C_2  and  C_31 
REMARK    2  A    between atoms: N_3  and  C_4 
REMARK    3  A    between atoms: C_9  and  C_10 
REMARK    4  A    between atoms: C_12  and  N_13 
REMARK    5  A    between atoms: N_13  and  C_14 
ROOT
HETATM    1  C   UNL     1       5.397  33.051  59.778  1.00  0.00     0.164 A 
HETATM    2  N   UNL     1       5.694  32.284  58.716  1.00  0.00    -0.210 NA
HETATM    3  C   UNL     1       6.754  31.460  58.801  1.00  0.00     0.143 A 
HETATM    4  C   UNL     1       7.561  31.404  59.948  1.00  0.00     0.039 A 
HETATM    5  C   UNL     1       8.714  30.592  60.101  1.00  0.00     0.018 A 
HETATM    6  C   UNL     1       9.460  30.621  61.277  1.00  0.00     0.001 A 
HETATM    7  C   UNL     1       9.068  31.463  62.308  1.00  0.00     0.002 A 
HETATM    8  C   UNL     1       7.936  32.267  62.153  1.00  0.00     0.032 A 
HETATM    9  C   UNL     1       7.172  32.251  60.992  1.00  0.00     0.073 A 
HETATM   10  N   UNL     1       6.103  33.050  60.920  1.00  0.00    -0.228 NA
ENDROOT
BRANCH   1  11
HETATM   11  C   UNL     1       4.231  33.960  59.660  1.00  0.00     0.039 A 
HETATM   12  C   UNL     1       3.695  34.720  60.738  1.00  0.00     0.049 A 
HETATM   13  C   UNL     1       2.595  35.563  60.506  1.00  0.00     0.030 A 
HETATM   14  C   UNL     1       2.008  35.669  59.244  1.00  0.00     0.002 A 
HETATM   15  C   UNL     1       2.509  34.930  58.186  1.00  0.00     0.001 A 
HETATM   16  C   UNL     1       3.602  34.090  58.395  1.00  0.00     0.018 A 
BRANCH  12  17
HETATM   17  N   UNL     1       4.254  34.595  62.035  1.00  0.00    -0.321 N 
HETATM   18  C   UNL     1       3.721  33.993  63.159  1.00  0.00     0.274 C 
HETATM   19  O   UNL     1       2.608  33.493  63.275  1.00  0.00    -0.266 OA
HETATM   20  H   UNL     1       5.175  35.020  62.173  1.00  0.00     0.169 HD
BRANCH  18  21
HETATM   21  C   UNL     1       4.652  33.982  64.337  1.00  0.00     0.124 A 
HETATM   22  C   UNL     1       6.022  34.099  64.133  1.00  0.00     0.037 A 
HETATM   23  C   UNL     1       6.859  34.115  65.246  1.00  0.00     0.004 A 
HETATM   24  C   UNL     1       6.301  34.021  66.517  1.00  0.00     0.019 A 
HETATM   25  C   UNL     1       4.923  33.909  66.626  1.00  0.00     0.117 A 
HETATM   26  N   UNL     1       4.081  33.878  65.570  1.00  0.00    -0.256 NA
ENDBRANCH  18  21
ENDBRANCH  12  17
ENDBRANCH   1  11
BRANCH   3  27
HETATM   27  N   UNL     1       7.052  30.607  57.703  1.00  0.00    -0.340 N 
HETATM   28  H   UNL     1       8.060  30.538  57.612  1.00  0.00     0.167 HD
BRANCH  27  29
HETATM   29  C   UNL     1       6.407  29.394  57.361  1.00  0.00     0.034 A 
HETATM   30  C   UNL     1       5.152  29.375  56.735  1.00  0.00     0.032 A 
HETATM   31  C   UNL     1       4.527  28.184  56.342  1.00  0.00     0.034 A 
HETATM   32  C   UNL     1       5.222  26.998  56.582  1.00  0.00     0.062 A 
HETATM   33  N   UNL     1       4.909  25.689  56.331  1.00  0.00    -0.278 N 
HETATM   34  C   UNL     1       6.480  26.969  57.170  1.00  0.00     0.013 A 
HETATM   35  H   UNL     1       4.064  25.327  55.905  1.00  0.00     0.189 HD
HETATM   36  N   UNL     1       5.861  24.814  56.704  1.00  0.00    -0.186 NA
HETATM   37  C   UNL     1       6.816  25.597  57.215  1.00  0.00     0.152 A 
HETATM   38  C   UNL     1       7.091  28.179  57.552  1.00  0.00     0.044 A 
ENDBRANCH  27  29
ENDBRANCH   3  27
TORSDOF 5
ENDMDL
MODEL 8
REMARK VINA RESULT:      -9.8      4.129      6.843
REMARK  5 active torsions:
REMARK  status: ('A' for Active; 'I' for Inactive)
REMARK       I    between atoms: C_2  and  N_3 
REMARK    1  A    between atoms: C_2  and  C_31 
REMARK    2  A    between atoms: N_3  and  C_4 
REMARK    3  A    between atoms: C_9  and  C_10 
REMARK    4  A    between atoms: C_12  and  N_13 
REMARK    5  A    between atoms: N_13  and  C_14 
ROOT
HETATM    1  C   UNL     1       4.362  32.220  58.939  1.00  0.00     0.164 A 
HETATM    2  N   UNL     1       4.201  30.947  58.546  1.00  0.00    -0.210 NA
HETATM    3  C   UNL     1       3.693  30.717  57.322  1.00  0.00     0.143 A 
HETATM    4  C   UNL     1       3.310  31.763  56.469  1.00  0.00     0.039 A 
HETATM    5  C   UNL     1       2.733  31.602  55.182  1.00  0.00     0.018 A 
HETATM    6  C   UNL     1       2.370  32.708  54.417  1.00  0.00     0.001 A 
HETATM    7  C   UNL     1       2.570  33.982  54.929  1.00  0.00     0.002 A 
HETATM    8  C   UNL     1       3.132  34.138  56.199  1.00  0.00     0.032 A 
HETATM    9  C   UNL     1       3.509  33.051  56.978  1.00  0.00     0.073 A 
HETATM   10  N   UNL     1       4.038  33.282  58.183  1.00  0.00    -0.228 NA
ENDROOT
BRANCH   1  11
HETATM   11  C   UNL     1       4.914  32.453  60.297  1.00  0.00     0.039 A 
HETATM   12  C   UNL     1       6.225  32.081  60.704  1.00  0.00     0.049 A 
HETATM   13  C   UNL     1       6.647  32.365  62.014  1.00  0.00     0.030 A 
HETATM   14  C   UNL     1       5.807  33.000  62.931  1.00  0.00     0.002 A 
HETATM   15  C   UNL     1       4.525  33.361  62.556  1.00  0.00     0.001 A 
HETATM   16  C   UNL     1       4.088  33.089  61.260  1.00  0.00     0.018 A 
BRANCH  12  17
HETATM   17  N   UNL     1       7.078  31.400  59.799  1.00  0.00    -0.321 N 
HETATM   18  C   UNL     1       8.334  31.757  59.347  1.00  0.00     0.274 C 
HETATM   19  O   UNL     1       8.946  32.790  59.598  1.00  0.00    -0.266 OA
HETATM   20  H   UNL     1       6.715  30.526  59.406  1.00  0.00     0.169 HD
BRANCH  18  21
HETATM   21  C   UNL     1       8.970  30.731  58.454  1.00  0.00     0.124 A 
HETATM   22  C   UNL     1       8.282  29.562  58.150  1.00  0.00     0.037 A 
HETATM   23  C   UNL     1       8.884  28.643  57.295  1.00  0.00     0.004 A 
HETATM   24  C   UNL     1      10.142  28.924  56.772  1.00  0.00     0.019 A 
HETATM   25  C   UNL     1      10.754  30.116  57.128  1.00  0.00     0.117 A 
HETATM   26  N   UNL     1      10.206  31.026  57.962  1.00  0.00    -0.256 NA
ENDBRANCH  18  21
ENDBRANCH  12  17
ENDBRANCH   1  11
BRANCH   3  27
HETATM   27  N   UNL     1       3.561  29.373  56.873  1.00  0.00    -0.340 N 
HETATM   28  H   UNL     1       2.654  29.269  56.431  1.00  0.00     0.167 HD
BRANCH  27  29
HETATM   29  C   UNL     1       4.550  28.580  56.244  1.00  0.00     0.034 A 
HETATM   30  C   UNL     1       5.265  29.037  55.127  1.00  0.00     0.032 A 
HETATM   31  C   UNL     1       6.285  28.284  54.529  1.00  0.00     0.034 A 
HETATM   32  C   UNL     1       6.581  27.050  55.109  1.00  0.00     0.062 A 
HETATM   33  N   UNL     1       7.497  26.085  54.785  1.00  0.00    -0.278 N 
HETATM   34  C   UNL     1       5.923  26.570  56.234  1.00  0.00     0.013 A 
HETATM   35  H   UNL     1       8.157  26.093  54.016  1.00  0.00     0.189 HD
HETATM   36  N   UNL     1       7.489  25.020  55.608  1.00  0.00    -0.186 NA
HETATM   37  C   UNL     1       6.529  25.319  56.489  1.00  0.00     0.152 A 
HETATM   38  C   UNL     1       4.906  27.346  56.821  1.00  0.00     0.044 A 
ENDBRANCH  27  29
ENDBRANCH   3  27
TORSDOF 5
ENDMDL
MODEL 9
REMARK VINA RESULT:      -9.6      2.649      6.758
REMARK  5 active torsions:
REMARK  status: ('A' for Active; 'I' for Inactive)
REMARK       I    between atoms: C_2  and  N_3 
REMARK    1  A    between atoms: C_2  and  C_31 
REMARK    2  A    between atoms: N_3  and  C_4 
REMARK    3  A    between atoms: C_9  and  C_10 
REMARK    4  A    between atoms: C_12  and  N_13 
REMARK    5  A    between atoms: N_13  and  C_14 
ROOT
HETATM    1  C   UNL     1       3.489  29.575  50.896  1.00  0.00     0.164 A 
HETATM    2  N   UNL     1       4.595  28.892  51.234  1.00  0.00    -0.210 NA
HETATM    3  C   UNL     1       4.855  27.741  50.589  1.00  0.00     0.143 A 
HETATM    4  C   UNL     1       3.994  27.230  49.605  1.00  0.00     0.039 A 
HETATM    5  C   UNL     1       4.179  26.007  48.910  1.00  0.00     0.018 A 
HETATM    6  C   UNL     1       3.255  25.578  47.959  1.00  0.00     0.001 A 
HETATM    7  C   UNL     1       2.138  26.358  47.699  1.00  0.00     0.002 A 
HETATM    8  C   UNL     1       1.955  27.558  48.390  1.00  0.00     0.032 A 
HETATM    9  C   UNL     1       2.865  28.011  49.337  1.00  0.00     0.073 A 
HETATM   10  N   UNL     1       2.619  29.170  49.956  1.00  0.00    -0.228 NA
ENDROOT
BRANCH   1  11
HETATM   11  C   UNL     1       3.214  30.837  51.625  1.00  0.00     0.039 A 
HETATM   12  C   UNL     1       3.776  31.171  52.889  1.00  0.00     0.049 A 
HETATM   13  C   UNL     1       3.456  32.405  53.481  1.00  0.00     0.030 A 
HETATM   14  C   UNL     1       2.595  33.312  52.861  1.00  0.00     0.002 A 
HETATM   15  C   UNL     1       2.031  33.001  51.636  1.00  0.00     0.001 A 
HETATM   16  C   UNL     1       2.338  31.783  51.031  1.00  0.00     0.018 A 
BRANCH  12  17
HETATM   17  N   UNL     1       4.621  30.246  53.552  1.00  0.00    -0.321 N 
HETATM   18  C   UNL     1       4.459  29.646  54.787  1.00  0.00     0.274 C 
HETATM   19  O   UNL     1       3.563  29.850  55.598  1.00  0.00    -0.266 OA
HETATM   20  H   UNL     1       5.483  29.990  53.062  1.00  0.00     0.169 HD
BRANCH  18  21
HETATM   21  C   UNL     1       5.529  28.646  55.118  1.00  0.00     0.124 A 
HETATM   22  C   UNL     1       5.318  27.723  56.136  1.00  0.00     0.037 A 
HETATM   23  C   UNL     1       6.316  26.789  56.401  1.00  0.00     0.004 A 
HETATM   24  C   UNL     1       7.480  26.804  55.640  1.00  0.00     0.019 A 
HETATM   25  C   UNL     1       7.604  27.760  54.643  1.00  0.00     0.117 A 
HETATM   26  N   UNL     1       6.664  28.688  54.365  1.00  0.00    -0.256 NA
ENDBRANCH  18  21
ENDBRANCH  12  17
ENDBRANCH   1  11
BRANCH   3  27
HETATM   27  N   UNL     1       6.047  27.031  50.902  1.00  0.00    -0.340 N 
HETATM   28  H   UNL     1       6.823  27.684  50.891  1.00  0.00     0.167 HD
BRANCH  27  29
HETATM   29  C   UNL     1       6.214  26.029  51.888  1.00  0.00     0.034 A 
HETATM   30  C   UNL     1       5.181  25.681  52.770  1.00  0.00     0.032 A 
HETATM   31  C   UNL     1       5.313  24.654  53.714  1.00  0.00     0.034 A 
HETATM   32  C   UNL     1       6.527  23.965  53.730  1.00  0.00     0.062 A 
HETATM   33  N   UNL     1       6.981  22.931  54.505  1.00  0.00    -0.278 N 
HETATM   34  C   UNL     1       7.566  24.252  52.855  1.00  0.00     0.013 A 
HETATM   35  H   UNL     1       6.488  22.459  55.254  1.00  0.00     0.189 HD
HETATM   36  N   UNL     1       8.227  22.523  54.203  1.00  0.00    -0.186 NA
HETATM   37  C   UNL     1       8.581  23.330  53.198  1.00  0.00     0.152 A 
HETATM   38  C   UNL     1       7.408  25.285  51.911  1.00  0.00     0.044 A 
ENDBRANCH  27  29
ENDBRANCH   3  27
TORSDOF 5
ENDMDL
MODEL 10
REMARK VINA RESULT:      -9.5      5.262     11.278
REMARK  5 active torsions:
REMARK  status: ('A' for Active; 'I' for Inactive)
REMARK       I    between atoms: C_2  and  N_3 
REMARK    1  A    between atoms: C_2  and  C_31 
REMARK    2  A    between atoms: N_3  and  C_4 
REMARK    3  A    between atoms: C_9  and  C_10 
REMARK    4  A    between atoms: C_12  and  N_13 
REMARK    5  A    between atoms: N_13  and  C_14 
ROOT
HETATM    1  C   UNL     1       5.693  32.657  58.764  1.00  0.00     0.164 A 
HETATM    2  N   UNL     1       4.899  32.753  59.842  1.00  0.00    -0.210 NA
HETATM    3  C   UNL     1       5.454  32.600  61.058  1.00  0.00     0.143 A 
HETATM    4  C   UNL     1       6.820  32.320  61.221  1.00  0.00     0.039 A 
HETATM    5  C   UNL     1       7.471  32.107  62.464  1.00  0.00     0.018 A 
HETATM    6  C   UNL     1       8.832  31.817  62.518  1.00  0.00     0.001 A 
HETATM    7  C   UNL     1       9.555  31.729  61.337  1.00  0.00     0.002 A 
HETATM    8  C   UNL     1       8.910  31.932  60.114  1.00  0.00     0.032 A 
HETATM    9  C   UNL     1       7.555  32.229  60.034  1.00  0.00     0.073 A 
HETATM   10  N   UNL     1       7.011  32.408  58.826  1.00  0.00    -0.228 NA
ENDROOT
BRANCH   1  11
HETATM   11  C   UNL     1       5.060  32.819  57.432  1.00  0.00     0.039 A 
HETATM   12  C   UNL     1       5.035  31.811  56.428  1.00  0.00     0.049 A 
HETATM   13  C   UNL     1       4.392  32.071  55.205  1.00  0.00     0.030 A 
HETATM   14  C   UNL     1       3.780  33.298  54.948  1.00  0.00     0.002 A 
HETATM   15  C   UNL     1       3.802  34.295  55.909  1.00  0.00     0.001 A 
HETATM   16  C   UNL     1       4.433  34.056  57.128  1.00  0.00     0.018 A 
BRANCH  12  17
HETATM   17  N   UNL     1       5.686  30.572  56.657  1.00  0.00    -0.321 N 
HETATM   18  C   UNL     1       5.152  29.298  56.680  1.00  0.00     0.274 C 
HETATM   19  O   UNL     1       3.972  28.986  56.566  1.00  0.00    -0.266 OA
HETATM   20  H   UNL     1       6.691  30.619  56.848  1.00  0.00     0.169 HD
BRANCH  18  21
HETATM   21  C   UNL     1       6.177  28.216  56.869  1.00  0.00     0.124 A 
HETATM   22  C   UNL     1       7.517  28.556  57.013  1.00  0.00     0.037 A 
HETATM   23  C   UNL     1       8.441  27.534  57.217  1.00  0.00     0.004 A 
HETATM   24  C   UNL     1       7.996  26.217  57.275  1.00  0.00     0.019 A 
HETATM   25  C   UNL     1       6.640  25.972  57.122  1.00  0.00     0.117 A 
HETATM   26  N   UNL     1       5.716  26.935  56.912  1.00  0.00    -0.256 NA
ENDBRANCH  18  21
ENDBRANCH  12  17
ENDBRANCH   1  11
BRANCH   3  27
HETATM   27  N   UNL     1       4.635  32.746  62.211  1.00  0.00    -0.340 N 
HETATM   28  H   UNL     1       4.440  31.824  62.588  1.00  0.00     0.167 HD
BRANCH  27  29
HETATM   29  C   UNL     1       4.761  33.718  63.233  1.00  0.00     0.034 A 
HETATM   30  C   UNL     1       4.743  35.092  62.952  1.00  0.00     0.032 A 
HETATM   31  C   UNL     1       4.811  36.065  63.958  1.00  0.00     0.034 A 
HETATM   32  C   UNL     1       4.878  35.607  65.275  1.00  0.00     0.062 A 
HETATM   33  N   UNL     1       4.953  36.271  66.471  1.00  0.00    -0.278 N 
HETATM   34  C   UNL     1       4.866  34.258  65.604  1.00  0.00     0.013 A 
HETATM   35  H   UNL     1       4.982  37.273  66.620  1.00  0.00     0.189 HD
HETATM   36  N   UNL     1       4.988  35.464  67.547  1.00  0.00    -0.186 NA
HETATM   37  C   UNL     1       4.935  34.239  67.015  1.00  0.00     0.152 A 
HETATM   38  C   UNL     1       4.791  33.298  64.576  1.00  0.00     0.044 A 
ENDBRANCH  27  29
ENDBRANCH   3  27
TORSDOF 5
ENDMDL
