MODEL 1
REMARK VINA RESULT:     -10.2      0.000      0.000
REMARK  6 active torsions:
REMARK  status: ('A' for Active; 'I' for Inactive)
REMARK    1  A    between atoms: C_3  and  C_4 
REMARK    2  A    between atoms: C_4  and  C_5 
REMARK    3  A    between atoms: N_8  and  C_10 
REMARK    4  A    between atoms: C_10  and  C_11 
REMARK    5  A    between atoms: N_24  and  C_25 
REMARK    6  A    between atoms: C_25  and  C_26 
ROOT
HETATM    1  C   UNL     1       6.557  28.063  56.591  1.00  0.00     0.149 C 
HETATM    2  N   UNL     1       7.725  27.829  55.751  1.00  0.00    -0.220 NA
HETATM    3  C   UNL     1       7.488  28.170  54.442  1.00  0.00     0.304 C 
HETATM    4  O   UNL     1       8.367  28.219  53.601  1.00  0.00    -0.253 OA
HETATM    5  N   UNL     1       6.163  28.396  54.279  1.00  0.00    -0.270 N 
HETATM    6  C   UNL     1       5.537  28.442  55.493  1.00  0.00     0.257 C 
HETATM    7  O   UNL     1       4.354  28.687  55.689  1.00  0.00    -0.270 OA
HETATM    8  H   UNL     1       8.629  28.149  56.095  1.00  0.00     0.134 HD
ENDROOT
BRANCH   1   9
HETATM    9  C   UNL     1       6.885  29.210  57.543  1.00  0.00     0.067 A 
HETATM   10  C   UNL     1       6.076  30.334  57.691  1.00  0.00     0.030 A 
HETATM   11  C   UNL     1       6.457  31.320  58.597  1.00  0.00     0.003 A 
HETATM   12  C   UNL     1       7.622  31.162  59.341  1.00  0.00     0.019 A 
HETATM   13  C   UNL     1       8.364  30.012  59.155  1.00  0.00     0.117 A 
HETATM   14  N   UNL     1       8.021  29.034  58.286  1.00  0.00    -0.263 NA
ENDBRANCH   1   9
BRANCH   1  15
HETATM   15  C   UNL     1       6.099  26.779  57.369  1.00  0.00     0.028 C 
HETATM   16  C   UNL     1       7.187  26.131  58.241  1.00  0.00     0.035 C 
HETATM   17  C   UNL     1       8.278  25.431  57.444  1.00  0.00     0.235 C 
HETATM   18  N   UNL     1       7.710  24.453  56.440  1.00  0.00    -0.067 N 
HETATM   19  H   UNL     1       7.408  23.622  56.970  1.00  0.00     0.280 HD
HETATM   20  C   UNL     1       6.516  24.930  55.642  1.00  0.00     0.235 C 
HETATM   21  C   UNL     1       5.500  25.647  56.512  1.00  0.00     0.035 C 
BRANCH  18  22
HETATM   22  C   UNL     1       8.775  23.965  55.456  1.00  0.00     0.278 C 
BRANCH  22  23
HETATM   23  C   UNL     1       8.470  22.678  54.749  1.00  0.00     0.028 A 
HETATM   24  C   UNL     1       8.344  21.444  55.405  1.00  0.00     0.045 A 
HETATM   25 CL   UNL     1       8.475  21.304  57.120  1.00  0.00    -0.084 Cl
HETATM   26  C   UNL     1       8.080  20.276  54.682  1.00  0.00     0.024 A 
HETATM   27  C   UNL     1       7.937  20.326  53.295  1.00  0.00     0.005 A 
HETATM   28  C   UNL     1       8.049  21.544  52.632  1.00  0.00     0.043 A 
HETATM   29  C   UNL     1       8.310  22.699  53.361  1.00  0.00     0.126 A 
HETATM   30  F   UNL     1       8.388  23.875  52.721  1.00  0.00    -0.205 F 
ENDBRANCH  22  23
ENDBRANCH  18  22
ENDBRANCH   1  15
BRANCH   5  31
HETATM   31  C   UNL     1       5.527  28.592  52.987  1.00  0.00     0.168 C 
BRANCH  31  32
HETATM   32  C   UNL     1       4.759  27.333  52.543  1.00  0.00     0.140 C 
HETATM   33  O   UNL     1       4.430  27.437  51.133  1.00  0.00    -0.384 OA
HETATM   34  C   UNL     1       4.936  26.263  50.478  1.00  0.00     0.168 C 
HETATM   35  C   UNL     1       6.076  25.767  51.334  1.00  0.00     0.029 C 
HETATM   36  C   UNL     1       5.569  26.054  52.724  1.00  0.00     0.036 C 
ENDBRANCH  31  32
ENDBRANCH   5  31
TORSDOF 6
ENDMDL
MODEL 2
REMARK VINA RESULT:      -9.9      1.361      1.722
REMARK  6 active torsions:
REMARK  status: ('A' for Active; 'I' for Inactive)
REMARK    1  A    between atoms: C_3  and  C_4 
REMARK    2  A    between atoms: C_4  and  C_5 
REMARK    3  A    between atoms: N_8  and  C_10 
REMARK    4  A    between atoms: C_10  and  C_11 
REMARK    5  A    between atoms: N_24  and  C_25 
REMARK    6  A    between atoms: C_25  and  C_26 
ROOT
HETATM    1  C   UNL     1       6.667  28.023  56.308  1.00  0.00     0.149 C 
HETATM    2  N   UNL     1       7.740  27.639  55.400  1.00  0.00    -0.220 NA
HETATM    3  C   UNL     1       7.479  28.028  54.109  1.00  0.00     0.304 C 
HETATM    4  O   UNL     1       8.307  27.964  53.219  1.00  0.00    -0.253 OA
HETATM    5  N   UNL     1       6.192  28.441  54.026  1.00  0.00    -0.270 N 
HETATM    6  C   UNL     1       5.650  28.558  55.275  1.00  0.00     0.257 C 
HETATM    7  O   UNL     1       4.527  28.965  55.541  1.00  0.00    -0.270 OA
HETATM    8  H   UNL     1       8.699  27.823  55.692  1.00  0.00     0.134 HD
ENDROOT
BRANCH   1   9
HETATM    9  C   UNL     1       7.208  29.099  57.247  1.00  0.00     0.067 A 
HETATM   10  C   UNL     1       8.561  29.241  57.545  1.00  0.00     0.030 A 
HETATM   11  C   UNL     1       8.954  30.264  58.404  1.00  0.00     0.003 A 
HETATM   12  C   UNL     1       8.001  31.127  58.933  1.00  0.00     0.019 A 
HETATM   13  C   UNL     1       6.680  30.938  58.577  1.00  0.00     0.117 A 
HETATM   14  N   UNL     1       6.263  29.957  57.744  1.00  0.00    -0.263 NA
ENDBRANCH   1   9
BRANCH   1  15
HETATM   15  C   UNL     1       6.076  26.806  57.105  1.00  0.00     0.028 C 
HETATM   16  C   UNL     1       7.028  26.196  58.148  1.00  0.00     0.035 C 
HETATM   17  C   UNL     1       8.188  25.419  57.542  1.00  0.00     0.235 C 
HETATM   18  N   UNL     1       7.719  24.387  56.540  1.00  0.00    -0.067 N 
HETATM   19  H   UNL     1       7.329  23.602  57.081  1.00  0.00     0.280 HD
HETATM   20  C   UNL     1       6.649  24.834  55.568  1.00  0.00     0.235 C 
HETATM   21  C   UNL     1       5.555  25.632  56.255  1.00  0.00     0.035 C 
BRANCH  18  22
HETATM   22  C   UNL     1       8.883  23.809  55.733  1.00  0.00     0.278 C 
BRANCH  22  23
HETATM   23  C   UNL     1       8.563  22.607  54.895  1.00  0.00     0.028 A 
HETATM   24  C   UNL     1       8.272  22.673  53.524  1.00  0.00     0.045 A 
HETATM   25 CL   UNL     1       8.315  24.162  52.652  1.00  0.00    -0.084 Cl
HETATM   26  C   UNL     1       7.959  21.515  52.805  1.00  0.00     0.024 A 
HETATM   27  C   UNL     1       7.933  20.276  53.446  1.00  0.00     0.005 A 
HETATM   28  C   UNL     1       8.230  20.194  54.803  1.00  0.00     0.043 A 
HETATM   29  C   UNL     1       8.541  21.352  55.508  1.00  0.00     0.126 A 
HETATM   30  F   UNL     1       8.854  21.263  56.809  1.00  0.00    -0.205 F 
ENDBRANCH  22  23
ENDBRANCH  18  22
ENDBRANCH   1  15
BRANCH   5  31
HETATM   31  C   UNL     1       5.518  28.743  52.775  1.00  0.00     0.168 C 
BRANCH  31  32
HETATM   32  C   UNL     1       4.598  27.587  52.340  1.00  0.00     0.140 C 
HETATM   33  O   UNL     1       4.273  27.729  50.932  1.00  0.00    -0.384 OA
HETATM   34  C   UNL     1       4.626  26.500  50.276  1.00  0.00     0.168 C 
HETATM   35  C   UNL     1       5.703  25.870  51.125  1.00  0.00     0.029 C 
HETATM   36  C   UNL     1       5.246  26.219  52.518  1.00  0.00     0.036 C 
ENDBRANCH  31  32
ENDBRANCH   5  31
TORSDOF 6
ENDMDL
MODEL 3
REMARK VINA RESULT:      -9.7      3.261      7.311
REMARK  6 active torsions:
REMARK  status: ('A' for Active; 'I' for Inactive)
REMARK    1  A    between atoms: C_3  and  C_4 
REMARK    2  A    between atoms: C_4  and  C_5 
REMARK    3  A    between atoms: N_8  and  C_10 
REMARK    4  A    between atoms: C_10  and  C_11 
REMARK    5  A    between atoms: N_24  and  C_25 
REMARK    6  A    between atoms: C_25  and  C_26 
ROOT
HETATM    1  C   UNL     1       6.514  26.107  54.640  1.00  0.00     0.149 C 
HETATM    2  N   UNL     1       7.282  26.878  53.670  1.00  0.00    -0.220 NA
HETATM    3  C   UNL     1       7.909  27.951  54.254  1.00  0.00     0.304 C 
HETATM    4  O   UNL     1       8.736  28.630  53.673  1.00  0.00    -0.253 OA
HETATM    5  N   UNL     1       7.433  28.108  55.512  1.00  0.00    -0.270 N 
HETATM    6  C   UNL     1       6.671  27.030  55.869  1.00  0.00     0.257 C 
HETATM    7  O   UNL     1       6.149  26.843  56.959  1.00  0.00    -0.270 OA
HETATM    8  H   UNL     1       7.876  26.367  53.019  1.00  0.00     0.134 HD
ENDROOT
BRANCH   1   9
HETATM    9  C   UNL     1       7.193  24.749  54.804  1.00  0.00     0.067 A 
HETATM   10  C   UNL     1       6.977  23.916  55.898  1.00  0.00     0.030 A 
HETATM   11  C   UNL     1       7.635  22.690  55.948  1.00  0.00     0.003 A 
HETATM   12  C   UNL     1       8.479  22.317  54.908  1.00  0.00     0.019 A 
HETATM   13  C   UNL     1       8.630  23.186  53.845  1.00  0.00     0.117 A 
HETATM   14  N   UNL     1       8.004  24.383  53.763  1.00  0.00    -0.263 NA
ENDBRANCH   1   9
BRANCH   1  15
HETATM   15  C   UNL     1       5.004  25.953  54.238  1.00  0.00     0.028 C 
HETATM   16  C   UNL     1       4.734  24.924  53.127  1.00  0.00     0.035 C 
HETATM   17  C   UNL     1       5.201  25.370  51.749  1.00  0.00     0.235 C 
HETATM   18  N   UNL     1       4.672  26.739  51.385  1.00  0.00    -0.067 N 
HETATM   19  H   UNL     1       3.680  26.618  51.133  1.00  0.00     0.280 HD
HETATM   20  C   UNL     1       4.730  27.791  52.471  1.00  0.00     0.235 C 
HETATM   21  C   UNL     1       4.282  27.246  53.815  1.00  0.00     0.035 C 
BRANCH  18  22
HETATM   22  C   UNL     1       5.360  27.302  50.140  1.00  0.00     0.278 C 
BRANCH  22  23
HETATM   23  C   UNL     1       4.450  27.848  49.081  1.00  0.00     0.028 A 
HETATM   24  C   UNL     1       4.411  29.202  48.715  1.00  0.00     0.045 A 
HETATM   25 CL   UNL     1       5.466  30.369  49.422  1.00  0.00    -0.084 Cl
HETATM   26  C   UNL     1       3.520  29.649  47.733  1.00  0.00     0.024 A 
HETATM   27  C   UNL     1       2.658  28.750  47.105  1.00  0.00     0.005 A 
HETATM   28  C   UNL     1       2.693  27.402  47.450  1.00  0.00     0.043 A 
HETATM   29  C   UNL     1       3.583  26.969  48.426  1.00  0.00     0.126 A 
HETATM   30  F   UNL     1       3.633  25.664  48.735  1.00  0.00    -0.205 F 
ENDBRANCH  22  23
ENDBRANCH  18  22
ENDBRANCH   1  15
BRANCH   5  31
HETATM   31  C   UNL     1       7.732  29.254  56.354  1.00  0.00     0.168 C 
BRANCH  31  32
HETATM   32  C   UNL     1       8.926  28.970  57.284  1.00  0.00     0.140 C 
HETATM   33  O   UNL     1      10.166  29.193  56.563  1.00  0.00    -0.384 OA
HETATM   34  C   UNL     1      10.953  30.125  57.322  1.00  0.00     0.168 C 
HETATM   35  C   UNL     1       9.972  30.922  58.147  1.00  0.00     0.029 C 
HETATM   36  C   UNL     1       8.948  29.877  58.509  1.00  0.00     0.036 C 
ENDBRANCH  31  32
ENDBRANCH   5  31
TORSDOF 6
ENDMDL
MODEL 4
REMARK VINA RESULT:      -9.7      3.201      7.327
REMARK  6 active torsions:
REMARK  status: ('A' for Active; 'I' for Inactive)
REMARK    1  A    between atoms: C_3  and  C_4 
REMARK    2  A    between atoms: C_4  and  C_5 
REMARK    3  A    between atoms: N_8  and  C_10 
REMARK    4  A    between atoms: C_10  and  C_11 
REMARK    5  A    between atoms: N_24  and  C_25 
REMARK    6  A    between atoms: C_25  and  C_26 
ROOT
HETATM    1  C   UNL     1       6.441  26.086  54.532  1.00  0.00     0.149 C 
HETATM    2  N   UNL     1       7.221  26.894  53.603  1.00  0.00    -0.220 NA
HETATM    3  C   UNL     1       7.831  27.950  54.235  1.00  0.00     0.304 C 
HETATM    4  O   UNL     1       8.664  28.654  53.694  1.00  0.00    -0.253 OA
HETATM    5  N   UNL     1       7.331  28.061  55.489  1.00  0.00    -0.270 N 
HETATM    6  C   UNL     1       6.570  26.968  55.794  1.00  0.00     0.257 C 
HETATM    7  O   UNL     1       6.029  26.740  56.868  1.00  0.00    -0.270 OA
HETATM    8  H   UNL     1       7.830  26.409  52.947  1.00  0.00     0.134 HD
ENDROOT
BRANCH   1   9
HETATM    9  C   UNL     1       7.125  24.728  54.662  1.00  0.00     0.067 A 
HETATM   10  C   UNL     1       7.986  24.211  53.697  1.00  0.00     0.030 A 
HETATM   11  C   UNL     1       8.570  22.966  53.917  1.00  0.00     0.003 A 
HETATM   12  C   UNL     1       8.298  22.273  55.091  1.00  0.00     0.019 A 
HETATM   13  C   UNL     1       7.450  22.856  56.012  1.00  0.00     0.117 A 
HETATM   14  N   UNL     1       6.868  24.064  55.832  1.00  0.00    -0.263 NA
ENDBRANCH   1   9
BRANCH   1  15
HETATM   15  C   UNL     1       4.939  25.937  54.098  1.00  0.00     0.028 C 
HETATM   16  C   UNL     1       4.694  24.932  52.959  1.00  0.00     0.035 C 
HETATM   17  C   UNL     1       5.187  25.410  51.601  1.00  0.00     0.235 C 
HETATM   18  N   UNL     1       4.661  26.785  51.256  1.00  0.00    -0.067 N 
HETATM   19  H   UNL     1       3.675  26.667  50.982  1.00  0.00     0.280 HD
HETATM   20  C   UNL     1       4.695  27.813  52.366  1.00  0.00     0.235 C 
HETATM   21  C   UNL     1       4.222  27.238  53.689  1.00  0.00     0.035 C 
BRANCH  18  22
HETATM   22  C   UNL     1       5.372  27.377  50.038  1.00  0.00     0.278 C 
BRANCH  22  23
HETATM   23  C   UNL     1       4.483  27.984  48.994  1.00  0.00     0.028 A 
HETATM   24  C   UNL     1       3.583  27.240  48.215  1.00  0.00     0.045 A 
HETATM   25 CL   UNL     1       3.375  25.541  48.432  1.00  0.00    -0.084 Cl
HETATM   26  C   UNL     1       2.798  27.867  47.241  1.00  0.00     0.024 A 
HETATM   27  C   UNL     1       2.900  29.242  47.034  1.00  0.00     0.005 A 
HETATM   28  C   UNL     1       3.780  29.994  47.807  1.00  0.00     0.043 A 
HETATM   29  C   UNL     1       4.556  29.361  48.773  1.00  0.00     0.126 A 
HETATM   30  F   UNL     1       5.381  30.095  49.534  1.00  0.00    -0.205 F 
ENDBRANCH  22  23
ENDBRANCH  18  22
ENDBRANCH   1  15
BRANCH   5  31
HETATM   31  C   UNL     1       7.607  29.179  56.376  1.00  0.00     0.168 C 
BRANCH  31  32
HETATM   32  C   UNL     1       8.792  28.874  57.312  1.00  0.00     0.140 C 
HETATM   33  O   UNL     1      10.039  29.090  56.602  1.00  0.00    -0.384 OA
HETATM   34  C   UNL     1      10.830  30.006  57.377  1.00  0.00     0.168 C 
HETATM   35  C   UNL     1       9.851  30.805  58.202  1.00  0.00     0.029 C 
HETATM   36  C   UNL     1       8.813  29.768  58.545  1.00  0.00     0.036 C 
ENDBRANCH  31  32
ENDBRANCH   5  31
TORSDOF 6
ENDMDL
MODEL 5
REMARK VINA RESULT:      -9.5      2.231      2.952
REMARK  6 active torsions:
REMARK  status: ('A' for Active; 'I' for Inactive)
REMARK    1  A    between atoms: C_3  and  C_4 
REMARK    2  A    between atoms: C_4  and  C_5 
REMARK    3  A    between atoms: N_8  and  C_10 
REMARK    4  A    between atoms: C_10  and  C_11 
REMARK    5  A    between atoms: N_24  and  C_25 
REMARK    6  A    between atoms: C_25  and  C_26 
ROOT
HETATM    1  C   UNL     1       6.378  27.987  56.214  1.00  0.00     0.149 C 
HETATM    2  N   UNL     1       6.770  27.615  54.860  1.00  0.00    -0.220 NA
HETATM    3  C   UNL     1       6.021  28.272  53.914  1.00  0.00     0.304 C 
HETATM    4  O   UNL     1       6.286  28.246  52.726  1.00  0.00    -0.253 OA
HETATM    5  N   UNL     1       4.982  28.888  54.526  1.00  0.00    -0.270 N 
HETATM    6  C   UNL     1       5.142  28.855  55.883  1.00  0.00     0.257 C 
HETATM    7  O   UNL     1       4.408  29.375  56.711  1.00  0.00    -0.270 OA
HETATM    8  H   UNL     1       7.765  27.591  54.643  1.00  0.00     0.134 HD
ENDROOT
BRANCH   1   9
HETATM    9  C   UNL     1       7.528  28.774  56.837  1.00  0.00     0.067 A 
HETATM   10  C   UNL     1       8.748  28.977  56.197  1.00  0.00     0.030 A 
HETATM   11  C   UNL     1       9.730  29.721  56.846  1.00  0.00     0.003 A 
HETATM   12  C   UNL     1       9.474  30.255  58.104  1.00  0.00     0.019 A 
HETATM   13  C   UNL     1       8.233  30.029  58.669  1.00  0.00     0.117 A 
HETATM   14  N   UNL     1       7.256  29.314  58.065  1.00  0.00    -0.263 NA
ENDBRANCH   1   9
BRANCH   1  15
HETATM   15  C   UNL     1       5.979  26.750  57.095  1.00  0.00     0.028 C 
HETATM   16  C   UNL     1       7.091  26.239  58.027  1.00  0.00     0.035 C 
HETATM   17  C   UNL     1       8.227  25.535  57.301  1.00  0.00     0.235 C 
HETATM   18  N   UNL     1       7.725  24.446  56.380  1.00  0.00    -0.067 N 
HETATM   19  H   UNL     1       7.462  23.648  56.977  1.00  0.00     0.280 HD
HETATM   20  C   UNL     1       6.517  24.787  55.535  1.00  0.00     0.235 C 
HETATM   21  C   UNL     1       5.454  25.519  56.333  1.00  0.00     0.035 C 
BRANCH  18  22
HETATM   22  C   UNL     1       8.827  23.935  55.450  1.00  0.00     0.278 C 
BRANCH  22  23
HETATM   23  C   UNL     1       8.518  22.671  54.704  1.00  0.00     0.028 A 
HETATM   24  C   UNL     1       8.151  22.640  53.350  1.00  0.00     0.045 A 
HETATM   25 CL   UNL     1       8.078  24.072  52.391  1.00  0.00    -0.084 Cl
HETATM   26  C   UNL     1       7.853  21.426  52.721  1.00  0.00     0.024 A 
HETATM   27  C   UNL     1       7.920  20.230  53.434  1.00  0.00     0.005 A 
HETATM   28  C   UNL     1       8.293  20.245  54.775  1.00  0.00     0.043 A 
HETATM   29  C   UNL     1       8.587  21.457  55.391  1.00  0.00     0.126 A 
HETATM   30  F   UNL     1       8.974  21.462  56.675  1.00  0.00    -0.205 F 
ENDBRANCH  22  23
ENDBRANCH  18  22
ENDBRANCH   1  15
BRANCH   5  31
HETATM   31  C   UNL     1       3.881  29.517  53.815  1.00  0.00     0.168 C 
BRANCH  31  32
HETATM   32  C   UNL     1       4.157  31.011  53.562  1.00  0.00     0.140 C 
HETATM   33  O   UNL     1       4.443  31.220  52.154  1.00  0.00    -0.384 OA
HETATM   34  C   UNL     1       3.543  32.229  51.670  1.00  0.00     0.168 C 
HETATM   35  C   UNL     1       2.339  32.184  52.579  1.00  0.00     0.029 C 
HETATM   36  C   UNL     1       2.970  31.899  53.918  1.00  0.00     0.036 C 
ENDBRANCH  31  32
ENDBRANCH   5  31
TORSDOF 6
ENDMDL
MODEL 6
REMARK VINA RESULT:      -9.4      3.153      7.150
REMARK  6 active torsions:
REMARK  status: ('A' for Active; 'I' for Inactive)
REMARK    1  A    between atoms: C_3  and  C_4 
REMARK    2  A    between atoms: C_4  and  C_5 
REMARK    3  A    between atoms: N_8  and  C_10 
REMARK    4  A    between atoms: C_10  and  C_11 
REMARK    5  A    between atoms: N_24  and  C_25 
REMARK    6  A    between atoms: C_25  and  C_26 
ROOT
HETATM    1  C   UNL     1       6.456  25.921  54.423  1.00  0.00     0.149 C 
HETATM    2  N   UNL     1       7.215  26.828  53.570  1.00  0.00    -0.220 NA
HETATM    3  C   UNL     1       7.874  27.784  54.302  1.00  0.00     0.304 C 
HETATM    4  O   UNL     1       8.698  28.538  53.817  1.00  0.00    -0.253 OA
HETATM    5  N   UNL     1       7.430  27.744  55.581  1.00  0.00    -0.270 N 
HETATM    6  C   UNL     1       6.658  26.633  55.779  1.00  0.00     0.257 C 
HETATM    7  O   UNL     1       6.158  26.279  56.838  1.00  0.00    -0.270 OA
HETATM    8  H   UNL     1       7.785  26.420  52.831  1.00  0.00     0.134 HD
ENDROOT
BRANCH   1   9
HETATM    9  C   UNL     1       7.116  24.546  54.350  1.00  0.00     0.067 A 
HETATM   10  C   UNL     1       7.917  24.140  53.286  1.00  0.00     0.030 A 
HETATM   11  C   UNL     1       8.484  22.868  53.321  1.00  0.00     0.003 A 
HETATM   12  C   UNL     1       8.252  22.039  54.413  1.00  0.00     0.019 A 
HETATM   13  C   UNL     1       7.463  22.516  55.440  1.00  0.00     0.117 A 
HETATM   14  N   UNL     1       6.900  23.747  55.440  1.00  0.00    -0.263 NA
ENDBRANCH   1   9
BRANCH   1  15
HETATM   15  C   UNL     1       4.935  25.854  54.041  1.00  0.00     0.028 C 
HETATM   16  C   UNL     1       4.602  24.887  52.892  1.00  0.00     0.035 C 
HETATM   17  C   UNL     1       5.069  25.371  51.526  1.00  0.00     0.235 C 
HETATM   18  N   UNL     1       4.597  26.777  51.229  1.00  0.00    -0.067 N 
HETATM   19  H   UNL     1       3.597  26.712  50.989  1.00  0.00     0.280 HD
HETATM   20  C   UNL     1       4.721  27.777  52.358  1.00  0.00     0.235 C 
HETATM   21  C   UNL     1       4.268  27.196  53.685  1.00  0.00     0.035 C 
BRANCH  18  22
HETATM   22  C   UNL     1       5.293  27.362  49.998  1.00  0.00     0.278 C 
BRANCH  22  23
HETATM   23  C   UNL     1       4.391  27.975  48.969  1.00  0.00     0.028 A 
HETATM   24  C   UNL     1       3.523  27.230  48.156  1.00  0.00     0.045 A 
HETATM   25 CL   UNL     1       3.371  25.518  48.311  1.00  0.00    -0.084 Cl
HETATM   26  C   UNL     1       2.724  27.864  47.198  1.00  0.00     0.024 A 
HETATM   27  C   UNL     1       2.781  29.248  47.041  1.00  0.00     0.005 A 
HETATM   28  C   UNL     1       3.629  30.001  47.848  1.00  0.00     0.043 A 
HETATM   29  C   UNL     1       4.418  29.361  48.797  1.00  0.00     0.126 A 
HETATM   30  F   UNL     1       5.212  30.094  49.591  1.00  0.00    -0.205 F 
ENDBRANCH  22  23
ENDBRANCH  18  22
ENDBRANCH   1  15
BRANCH   5  31
HETATM   31  C   UNL     1       7.767  28.735  56.588  1.00  0.00     0.168 C 
BRANCH  31  32
HETATM   32  C   UNL     1       6.861  29.976  56.480  1.00  0.00     0.140 C 
HETATM   33  O   UNL     1       5.843  29.747  55.471  1.00  0.00    -0.384 OA
HETATM   34  C   UNL     1       4.563  29.979  56.080  1.00  0.00     0.168 C 
HETATM   35  C   UNL     1       4.756  29.740  57.558  1.00  0.00     0.029 C 
HETATM   36  C   UNL     1       6.139  30.294  57.785  1.00  0.00     0.036 C 
ENDBRANCH  31  32
ENDBRANCH   5  31
TORSDOF 6
ENDMDL
MODEL 7
REMARK VINA RESULT:      -8.7      1.774      5.230
REMARK  6 active torsions:
REMARK  status: ('A' for Active; 'I' for Inactive)
REMARK    1  A    between atoms: C_3  and  C_4 
REMARK    2  A    between atoms: C_4  and  C_5 
REMARK    3  A    between atoms: N_8  and  C_10 
REMARK    4  A    between atoms: C_10  and  C_11 
REMARK    5  A    between atoms: N_24  and  C_25 
REMARK    6  A    between atoms: C_25  and  C_26 
ROOT
HETATM    1  C   UNL     1       6.139  27.856  56.812  1.00  0.00     0.149 C 
HETATM    2  N   UNL     1       5.095  28.812  57.160  1.00  0.00    -0.220 NA
HETATM    3  C   UNL     1       5.618  30.023  57.539  1.00  0.00     0.304 C 
HETATM    4  O   UNL     1       4.934  31.016  57.707  1.00  0.00    -0.253 OA
HETATM    5  N   UNL     1       6.956  29.892  57.705  1.00  0.00    -0.270 N 
HETATM    6  C   UNL     1       7.377  28.683  57.225  1.00  0.00     0.257 C 
HETATM    7  O   UNL     1       8.534  28.288  57.176  1.00  0.00    -0.270 OA
HETATM    8  H   UNL     1       4.298  28.894  56.531  1.00  0.00     0.134 HD
ENDROOT
BRANCH   1   9
HETATM    9  C   UNL     1       6.053  27.592  55.311  1.00  0.00     0.067 A 
HETATM   10  C   UNL     1       4.849  27.527  54.615  1.00  0.00     0.030 A 
HETATM   11  C   UNL     1       4.879  27.294  53.243  1.00  0.00     0.003 A 
HETATM   12  C   UNL     1       6.100  27.144  52.594  1.00  0.00     0.019 A 
HETATM   13  C   UNL     1       7.255  27.240  53.345  1.00  0.00     0.117 A 
HETATM   14  N   UNL     1       7.262  27.469  54.679  1.00  0.00    -0.263 NA
ENDBRANCH   1   9
BRANCH   1  15
HETATM   15  C   UNL     1       6.048  26.525  57.639  1.00  0.00     0.028 C 
HETATM   16  C   UNL     1       7.387  26.028  58.209  1.00  0.00     0.035 C 
HETATM   17  C   UNL     1       8.336  25.475  57.157  1.00  0.00     0.235 C 
HETATM   18  N   UNL     1       7.675  24.428  56.288  1.00  0.00    -0.067 N 
HETATM   19  H   UNL     1       7.618  23.567  56.850  1.00  0.00     0.280 HD
HETATM   20  C   UNL     1       6.274  24.742  55.809  1.00  0.00     0.235 C 
HETATM   21  C   UNL     1       5.412  25.322  56.915  1.00  0.00     0.035 C 
BRANCH  18  22
HETATM   22  C   UNL     1       8.528  24.082  55.066  1.00  0.00     0.278 C 
BRANCH  22  23
HETATM   23  C   UNL     1       8.341  22.702  54.509  1.00  0.00     0.028 A 
HETATM   24  C   UNL     1       8.342  21.541  55.296  1.00  0.00     0.045 A 
HETATM   25 CL   UNL     1       8.505  21.603  57.013  1.00  0.00    -0.084 Cl
HETATM   26  C   UNL     1       8.184  20.282  54.709  1.00  0.00     0.024 A 
HETATM   27  C   UNL     1       8.021  20.166  53.328  1.00  0.00     0.005 A 
HETATM   28  C   UNL     1       8.007  21.310  52.536  1.00  0.00     0.043 A 
HETATM   29  C   UNL     1       8.164  22.557  53.130  1.00  0.00     0.126 A 
HETATM   30  F   UNL     1       8.121  23.657  52.365  1.00  0.00    -0.205 F 
ENDBRANCH  22  23
ENDBRANCH  18  22
ENDBRANCH   1  15
BRANCH   5  31
HETATM   31  C   UNL     1       7.805  30.919  58.285  1.00  0.00     0.168 C 
BRANCH  31  32
HETATM   32  C   UNL     1       7.694  30.938  59.821  1.00  0.00     0.140 C 
HETATM   33  O   UNL     1       8.601  29.954  60.385  1.00  0.00    -0.384 OA
HETATM   34  C   UNL     1       9.440  30.628  61.337  1.00  0.00     0.168 C 
HETATM   35  C   UNL     1       9.474  32.075  60.911  1.00  0.00     0.029 C 
HETATM   36  C   UNL     1       8.064  32.289  60.422  1.00  0.00     0.036 C 
ENDBRANCH  31  32
ENDBRANCH   5  31
TORSDOF 6
ENDMDL
MODEL 8
REMARK VINA RESULT:      -8.6      3.277      4.938
REMARK  6 active torsions:
REMARK  status: ('A' for Active; 'I' for Inactive)
REMARK    1  A    between atoms: C_3  and  C_4 
REMARK    2  A    between atoms: C_4  and  C_5 
REMARK    3  A    between atoms: N_8  and  C_10 
REMARK    4  A    between atoms: C_10  and  C_11 
REMARK    5  A    between atoms: N_24  and  C_25 
REMARK    6  A    between atoms: C_25  and  C_26 
ROOT
HETATM    1  C   UNL     1       3.978  30.355  52.371  1.00  0.00     0.149 C 
HETATM    2  N   UNL     1       5.329  30.157  51.861  1.00  0.00    -0.220 NA
HETATM    3  C   UNL     1       5.332  29.897  50.513  1.00  0.00     0.304 C 
HETATM    4  O   UNL     1       6.351  29.868  49.847  1.00  0.00    -0.253 OA
HETATM    5  N   UNL     1       4.062  29.666  50.106  1.00  0.00    -0.270 N 
HETATM    6  C   UNL     1       3.179  29.990  51.099  1.00  0.00     0.257 C 
HETATM    7  O   UNL     1       1.959  29.951  51.024  1.00  0.00    -0.270 OA
HETATM    8  H   UNL     1       6.046  30.821  52.147  1.00  0.00     0.134 HD
ENDROOT
BRANCH   1   9
HETATM    9  C   UNL     1       3.840  31.819  52.781  1.00  0.00     0.067 A 
HETATM   10  C   UNL     1       4.682  32.825  52.314  1.00  0.00     0.030 A 
HETATM   11  C   UNL     1       4.464  34.133  52.739  1.00  0.00     0.003 A 
HETATM   12  C   UNL     1       3.411  34.412  53.603  1.00  0.00     0.019 A 
HETATM   13  C   UNL     1       2.604  33.367  54.009  1.00  0.00     0.117 A 
HETATM   14  N   UNL     1       2.786  32.085  53.614  1.00  0.00    -0.263 NA
ENDBRANCH   1   9
BRANCH   1  15
HETATM   15  C   UNL     1       3.625  29.387  53.556  1.00  0.00     0.028 C 
HETATM   16  C   UNL     1       4.589  29.455  54.752  1.00  0.00     0.035 C 
HETATM   17  C   UNL     1       5.956  28.846  54.475  1.00  0.00     0.235 C 
HETATM   18  N   UNL     1       5.852  27.443  53.919  1.00  0.00    -0.067 N 
HETATM   19  H   UNL     1       5.613  26.826  54.709  1.00  0.00     0.280 HD
HETATM   20  C   UNL     1       4.806  27.223  52.848  1.00  0.00     0.235 C 
HETATM   21  C   UNL     1       3.490  27.896  53.193  1.00  0.00     0.035 C 
BRANCH  18  22
HETATM   22  C   UNL     1       7.195  26.944  53.381  1.00  0.00     0.278 C 
BRANCH  22  23
HETATM   23  C   UNL     1       7.521  25.509  53.672  1.00  0.00     0.028 A 
HETATM   24  C   UNL     1       7.761  25.015  54.963  1.00  0.00     0.045 A 
HETATM   25 CL   UNL     1       7.644  26.019  56.361  1.00  0.00    -0.084 Cl
HETATM   26  C   UNL     1       8.083  23.668  55.161  1.00  0.00     0.024 A 
HETATM   27  C   UNL     1       8.168  22.798  54.075  1.00  0.00     0.005 A 
HETATM   28  C   UNL     1       7.922  23.272  52.789  1.00  0.00     0.043 A 
HETATM   29  C   UNL     1       7.602  24.613  52.603  1.00  0.00     0.126 A 
HETATM   30  F   UNL     1       7.337  25.057  51.366  1.00  0.00    -0.205 F 
ENDBRANCH  22  23
ENDBRANCH  18  22
ENDBRANCH   1  15
BRANCH   5  31
HETATM   31  C   UNL     1       3.710  29.173  48.785  1.00  0.00     0.168 C 
BRANCH  31  32
HETATM   32  C   UNL     1       3.041  27.788  48.862  1.00  0.00     0.140 C 
HETATM   33  O   UNL     1       2.286  27.546  47.645  1.00  0.00    -0.384 OA
HETATM   34  C   UNL     1       2.737  26.300  47.091  1.00  0.00     0.168 C 
HETATM   35  C   UNL     1       4.144  26.104  47.600  1.00  0.00     0.029 C 
HETATM   36  C   UNL     1       4.049  26.653  49.000  1.00  0.00     0.036 C 
ENDBRANCH  31  32
ENDBRANCH   5  31
TORSDOF 6
ENDMDL
MODEL 9
REMARK VINA RESULT:      -8.5      3.743      8.407
REMARK  6 active torsions:
REMARK  status: ('A' for Active; 'I' for Inactive)
REMARK    1  A    between atoms: C_3  and  C_4 
REMARK    2  A    between atoms: C_4  and  C_5 
REMARK    3  A    between atoms: N_8  and  C_10 
REMARK    4  A    between atoms: C_10  and  C_11 
REMARK    5  A    between atoms: N_24  and  C_25 
REMARK    6  A    between atoms: C_25  and  C_26 
ROOT
HETATM    1  C   UNL     1       7.104  27.052  55.718  1.00  0.00     0.149 C 
HETATM    2  N   UNL     1       7.653  28.064  54.824  1.00  0.00    -0.220 NA
HETATM    3  C   UNL     1       8.652  28.789  55.427  1.00  0.00     0.304 C 
HETATM    4  O   UNL     1       9.364  29.567  54.819  1.00  0.00    -0.253 OA
HETATM    5  N   UNL     1       8.664  28.505  56.751  1.00  0.00    -0.270 N 
HETATM    6  C   UNL     1       7.852  27.438  57.015  1.00  0.00     0.257 C 
HETATM    7  O   UNL     1       7.693  26.901  58.102  1.00  0.00    -0.270 OA
HETATM    8  H   UNL     1       7.875  27.785  53.870  1.00  0.00     0.134 HD
ENDROOT
BRANCH   1   9
HETATM    9  C   UNL     1       7.494  25.681  55.172  1.00  0.00     0.067 A 
HETATM   10  C   UNL     1       7.662  24.558  55.978  1.00  0.00     0.030 A 
HETATM   11  C   UNL     1       8.006  23.349  55.379  1.00  0.00     0.003 A 
HETATM   12  C   UNL     1       8.163  23.281  53.999  1.00  0.00     0.019 A 
HETATM   13  C   UNL     1       7.961  24.431  53.262  1.00  0.00     0.117 A 
HETATM   14  N   UNL     1       7.623  25.621  53.810  1.00  0.00    -0.263 NA
ENDBRANCH   1   9
BRANCH   1  15
HETATM   15  C   UNL     1       5.551  27.180  55.903  1.00  0.00     0.028 C 
HETATM   16  C   UNL     1       4.806  27.788  54.702  1.00  0.00     0.035 C 
HETATM   17  C   UNL     1       5.049  29.279  54.518  1.00  0.00     0.235 C 
HETATM   18  N   UNL     1       4.792  30.058  55.788  1.00  0.00    -0.067 N 
HETATM   19  H   UNL     1       3.769  30.124  55.896  1.00  0.00     0.280 HD
HETATM   20  C   UNL     1       5.336  29.456  57.066  1.00  0.00     0.235 C 
HETATM   21  C   UNL     1       5.080  27.962  57.144  1.00  0.00     0.035 C 
BRANCH  18  22
HETATM   22  C   UNL     1       5.301  31.497  55.686  1.00  0.00     0.278 C 
BRANCH  22  23
HETATM   23  C   UNL     1       4.349  32.561  56.144  1.00  0.00     0.028 A 
HETATM   24  C   UNL     1       4.398  33.150  57.416  1.00  0.00     0.045 A 
HETATM   25 CL   UNL     1       5.616  32.738  58.567  1.00  0.00    -0.084 Cl
HETATM   26  C   UNL     1       3.463  34.123  57.787  1.00  0.00     0.024 A 
HETATM   27  C   UNL     1       2.469  34.519  56.893  1.00  0.00     0.005 A 
HETATM   28  C   UNL     1       2.415  33.951  55.624  1.00  0.00     0.043 A 
HETATM   29  C   UNL     1       3.349  32.986  55.265  1.00  0.00     0.126 A 
HETATM   30  F   UNL     1       3.310  32.462  54.031  1.00  0.00    -0.205 F 
ENDBRANCH  22  23
ENDBRANCH  18  22
ENDBRANCH   1  15
BRANCH   5  31
HETATM   31  C   UNL     1       9.461  29.228  57.728  1.00  0.00     0.168 C 
BRANCH  31  32
HETATM   32  C   UNL     1       8.732  30.492  58.223  1.00  0.00     0.140 C 
HETATM   33  O   UNL     1       7.866  30.148  59.336  1.00  0.00    -0.384 OA
HETATM   34  C   UNL     1       8.206  31.007  60.436  1.00  0.00     0.168 C 
HETATM   35  C   UNL     1       9.640  31.422  60.212  1.00  0.00     0.029 C 
HETATM   36  C   UNL     1       9.690  31.571  58.713  1.00  0.00     0.036 C 
ENDBRANCH  31  32
ENDBRANCH   5  31
TORSDOF 6
ENDMDL
MODEL 10
REMARK VINA RESULT:      -8.3      1.913      4.707
REMARK  6 active torsions:
REMARK  status: ('A' for Active; 'I' for Inactive)
REMARK    1  A    between atoms: C_3  and  C_4 
REMARK    2  A    between atoms: C_4  and  C_5 
REMARK    3  A    between atoms: N_8  and  C_10 
REMARK    4  A    between atoms: C_10  and  C_11 
REMARK    5  A    between atoms: N_24  and  C_25 
REMARK    6  A    between atoms: C_25  and  C_26 
ROOT
HETATM    1  C   UNL     1       5.288  27.669  55.816  1.00  0.00     0.149 C 
HETATM    2  N   UNL     1       4.776  28.725  56.680  1.00  0.00    -0.220 NA
HETATM    3  C   UNL     1       5.787  29.374  57.345  1.00  0.00     0.304 C 
HETATM    4  O   UNL     1       5.610  30.394  57.985  1.00  0.00    -0.253 OA
HETATM    5  N   UNL     1       6.939  28.681  57.180  1.00  0.00    -0.270 N 
HETATM    6  C   UNL     1       6.776  27.709  56.232  1.00  0.00     0.257 C 
HETATM    7  O   UNL     1       7.643  26.954  55.814  1.00  0.00    -0.270 OA
HETATM    8  H   UNL     1       4.075  29.355  56.296  1.00  0.00     0.134 HD
ENDROOT
BRANCH   1   9
HETATM    9  C   UNL     1       5.047  28.088  54.368  1.00  0.00     0.067 A 
HETATM   10  C   UNL     1       3.795  28.449  53.877  1.00  0.00     0.030 A 
HETATM   11  C   UNL     1       3.682  28.829  52.542  1.00  0.00     0.003 A 
HETATM   12  C   UNL     1       4.813  28.854  51.733  1.00  0.00     0.019 A 
HETATM   13  C   UNL     1       6.025  28.503  52.294  1.00  0.00     0.117 A 
HETATM   14  N   UNL     1       6.171  28.132  53.587  1.00  0.00    -0.263 NA
ENDBRANCH   1   9
BRANCH   1  15
HETATM   15  C   UNL     1       4.654  26.267  56.125  1.00  0.00     0.028 C 
HETATM   16  C   UNL     1       5.312  25.503  57.287  1.00  0.00     0.035 C 
HETATM   17  C   UNL     1       6.696  24.963  56.962  1.00  0.00     0.235 C 
HETATM   18  N   UNL     1       6.706  24.153  55.684  1.00  0.00    -0.067 N 
HETATM   19  H   UNL     1       6.279  23.242  55.906  1.00  0.00     0.280 HD
HETATM   20  C   UNL     1       5.936  24.734  54.518  1.00  0.00     0.235 C 
HETATM   21  C   UNL     1       4.586  25.281  54.943  1.00  0.00     0.035 C 
BRANCH  18  22
HETATM   22  C   UNL     1       8.129  23.852  55.212  1.00  0.00     0.278 C 
BRANCH  22  23
HETATM   23  C   UNL     1       8.362  22.468  54.682  1.00  0.00     0.028 A 
HETATM   24  C   UNL     1       8.541  21.344  55.502  1.00  0.00     0.045 A 
HETATM   25 CL   UNL     1       8.449  21.445  57.222  1.00  0.00    -0.084 Cl
HETATM   26  C   UNL     1       8.777  20.084  54.941  1.00  0.00     0.024 A 
HETATM   27  C   UNL     1       8.836  19.931  53.557  1.00  0.00     0.005 A 
HETATM   28  C   UNL     1       8.650  21.036  52.731  1.00  0.00     0.043 A 
HETATM   29  C   UNL     1       8.416  22.284  53.298  1.00  0.00     0.126 A 
HETATM   30  F   UNL     1       8.208  23.339  52.497  1.00  0.00    -0.205 F 
ENDBRANCH  22  23
ENDBRANCH  18  22
ENDBRANCH   1  15
BRANCH   5  31
HETATM   31  C   UNL     1       8.170  28.971  57.897  1.00  0.00     0.168 C 
BRANCH  31  32
HETATM   32  C   UNL     1       8.953  30.116  57.228  1.00  0.00     0.140 C 
HETATM   33  O   UNL     1       9.536  30.966  58.250  1.00  0.00    -0.384 OA
HETATM   34  C   UNL     1      10.946  31.057  57.990  1.00  0.00     0.168 C 
HETATM   35  C   UNL     1      11.309  29.810  57.223  1.00  0.00     0.029 C 
HETATM   36  C   UNL     1      10.095  29.616  56.351  1.00  0.00     0.036 C 
ENDBRANCH  31  32
ENDBRANCH   5  31
TORSDOF 6
ENDMDL
