MODEL 1
REMARK VINA RESULT:      -9.5      0.000      0.000
REMARK  4 active torsions:
REMARK  status: ('A' for Active; 'I' for Inactive)
REMARK    1  A    between atoms: C_2  and  C_3 
REMARK    2  A    between atoms: C_7  and  N_8 
REMARK       I    between atoms: N_8  and  C_9 
REMARK    3  A    between atoms: C_9  and  C_10 
REMARK    4  A    between atoms: C_12  and  C_13 
ROOT
HETATM    1  C   UNL     1       6.779  26.376  54.603  1.00  0.00     0.149 A 
HETATM    2  N   UNL     1       7.612  25.287  54.841  1.00  0.00    -0.223 NA
HETATM    3  C   UNL     1       7.137  24.285  54.123  1.00  0.00     0.139 A 
HETATM    4  N   UNL     1       6.029  24.700  53.419  1.00  0.00    -0.342 N 
HETATM    5  H   UNL     1       5.467  24.118  52.817  1.00  0.00     0.167 HD
HETATM    6  C   UNL     1       5.785  26.017  53.712  1.00  0.00     0.041 A 
HETATM    7  C   UNL     1       4.654  26.780  53.135  1.00  0.00     0.071 C 
ENDROOT
BRANCH   1   8
HETATM    8  C   UNL     1       6.977  27.681  55.252  1.00  0.00     0.278 C 
HETATM    9  N   UNL     1       7.853  27.558  56.306  1.00  0.00    -0.304 N 
HETATM   10  H   UNL     1       8.242  26.635  56.441  1.00  0.00     0.171 HD
HETATM   11  O   UNL     1       6.413  28.690  54.848  1.00  0.00    -0.265 OA
BRANCH   9  12
HETATM   12  C   UNL     1       8.205  28.551  57.189  1.00  0.00     0.158 A 
HETATM   13  N   UNL     1       7.639  28.737  58.380  1.00  0.00    -0.156 NA
HETATM   14  N   UNL     1       8.305  29.759  58.922  1.00  0.00    -0.280 N 
HETATM   15  C   UNL     1       9.288  30.261  58.119  1.00  0.00     0.037 A 
HETATM   16  H   UNL     1       8.036  30.060  59.852  1.00  0.00     0.189 HD
HETATM   17  C   UNL     1       9.242  29.504  56.960  1.00  0.00     0.010 A 
HETATM   18  C   UNL     1      10.103  29.657  55.760  1.00  0.00     0.054 C 
BRANCH  15  19
HETATM   19  C   UNL     1      10.154  31.393  58.547  1.00  0.00     0.055 C 
HETATM   20  C   UNL     1       9.657  32.016  59.843  1.00  0.00     0.011 C 
ENDBRANCH  15  19
ENDBRANCH   9  12
ENDBRANCH   1   8
BRANCH   3  21
HETATM   21  C   UNL     1       7.662  22.916  54.099  1.00  0.00     0.012 A 
HETATM   22  C   UNL     1       8.088  22.327  55.298  1.00  0.00     0.039 A 
HETATM   23  C   UNL     1       8.574  21.020  55.311  1.00  0.00     0.035 A 
HETATM   24 CL   UNL     1       9.080  20.309  56.795  1.00  0.00    -0.084 Cl
HETATM   25  C   UNL     1       8.652  20.282  54.131  1.00  0.00     0.024 A 
HETATM   26  C   UNL     1       8.244  20.860  52.931  1.00  0.00     0.003 A 
HETATM   27  C   UNL     1       7.753  22.169  52.913  1.00  0.00     0.015 A 
ENDBRANCH   3  21
TORSDOF 4
ENDMDL
MODEL 2
REMARK VINA RESULT:      -9.3      3.114      8.379
REMARK  4 active torsions:
REMARK  status: ('A' for Active; 'I' for Inactive)
REMARK    1  A    between atoms: C_2  and  C_3 
REMARK    2  A    between atoms: C_7  and  N_8 
REMARK       I    between atoms: N_8  and  C_9 
REMARK    3  A    between atoms: C_9  and  C_10 
REMARK    4  A    between atoms: C_12  and  C_13 
ROOT
HETATM    1  C   UNL     1       7.621  27.222  56.779  1.00  0.00     0.149 A 
HETATM    2  N   UNL     1       7.932  27.864  57.974  1.00  0.00    -0.223 NA
HETATM    3  C   UNL     1       8.274  29.101  57.659  1.00  0.00     0.139 A 
HETATM    4  N   UNL     1       8.180  29.278  56.297  1.00  0.00    -0.342 N 
HETATM    5  H   UNL     1       8.412  30.125  55.800  1.00  0.00     0.167 HD
HETATM    6  C   UNL     1       7.772  28.102  55.723  1.00  0.00     0.041 A 
HETATM    7  C   UNL     1       7.581  27.935  54.264  1.00  0.00     0.071 C 
ENDROOT
BRANCH   1   8
HETATM    8  C   UNL     1       7.214  25.809  56.722  1.00  0.00     0.278 C 
HETATM    9  N   UNL     1       8.253  25.036  56.258  1.00  0.00    -0.304 N 
HETATM   10  H   UNL     1       9.115  25.532  56.074  1.00  0.00     0.171 HD
HETATM   11  O   UNL     1       6.095  25.450  57.064  1.00  0.00    -0.265 OA
BRANCH   9  12
HETATM   12  C   UNL     1       8.208  23.687  55.996  1.00  0.00     0.158 A 
HETATM   13  N   UNL     1       8.417  22.734  56.903  1.00  0.00    -0.156 NA
HETATM   14  N   UNL     1       8.230  21.588  56.247  1.00  0.00    -0.280 N 
HETATM   15  C   UNL     1       7.913  21.754  54.929  1.00  0.00     0.037 A 
HETATM   16  H   UNL     1       8.331  20.723  56.767  1.00  0.00     0.189 HD
HETATM   17  C   UNL     1       7.907  23.123  54.720  1.00  0.00     0.010 A 
HETATM   18  C   UNL     1       7.630  23.829  53.444  1.00  0.00     0.054 C 
BRANCH  15  19
HETATM   19  C   UNL     1       7.651  20.598  54.030  1.00  0.00     0.055 C 
HETATM   20  C   UNL     1       8.778  20.405  53.026  1.00  0.00     0.011 C 
ENDBRANCH  15  19
ENDBRANCH   9  12
ENDBRANCH   1   8
BRANCH   3  21
HETATM   21  C   UNL     1       8.735  30.132  58.593  1.00  0.00     0.012 A 
HETATM   22  C   UNL     1       8.143  30.218  59.862  1.00  0.00     0.039 A 
HETATM   23  C   UNL     1       8.572  31.177  60.780  1.00  0.00     0.035 A 
HETATM   24 CL   UNL     1       7.843  31.258  62.337  1.00  0.00    -0.084 Cl
HETATM   25  C   UNL     1       9.590  32.068  60.448  1.00  0.00     0.024 A 
HETATM   26  C   UNL     1      10.178  32.003  59.187  1.00  0.00     0.003 A 
HETATM   27  C   UNL     1       9.753  31.042  58.264  1.00  0.00     0.015 A 
ENDBRANCH   3  21
TORSDOF 4
ENDMDL
MODEL 3
REMARK VINA RESULT:      -9.2      4.373      8.093
REMARK  4 active torsions:
REMARK  status: ('A' for Active; 'I' for Inactive)
REMARK    1  A    between atoms: C_2  and  C_3 
REMARK    2  A    between atoms: C_7  and  N_8 
REMARK       I    between atoms: N_8  and  C_9 
REMARK    3  A    between atoms: C_9  and  C_10 
REMARK    4  A    between atoms: C_12  and  C_13 
ROOT
HETATM    1  C   UNL     1       5.436  26.529  51.755  1.00  0.00     0.149 A 
HETATM    2  N   UNL     1       6.309  25.447  51.818  1.00  0.00    -0.223 NA
HETATM    3  C   UNL     1       6.452  25.153  53.099  1.00  0.00     0.139 A 
HETATM    4  N   UNL     1       5.687  26.007  53.861  1.00  0.00    -0.342 N 
HETATM    5  H   UNL     1       5.643  26.009  54.869  1.00  0.00     0.167 HD
HETATM    6  C   UNL     1       5.041  26.885  53.031  1.00  0.00     0.041 A 
HETATM    7  C   UNL     1       4.141  27.953  53.523  1.00  0.00     0.071 C 
ENDROOT
BRANCH   1   8
HETATM    8  C   UNL     1       5.049  27.161  50.484  1.00  0.00     0.278 C 
HETATM    9  N   UNL     1       3.906  26.575  49.992  1.00  0.00    -0.304 N 
HETATM   10  H   UNL     1       3.501  25.856  50.576  1.00  0.00     0.171 HD
HETATM   11  O   UNL     1       5.699  28.079  50.001  1.00  0.00    -0.265 OA
BRANCH   9  12
HETATM   12  C   UNL     1       3.306  26.851  48.787  1.00  0.00     0.158 A 
HETATM   13  N   UNL     1       3.575  26.217  47.647  1.00  0.00    -0.156 NA
HETATM   14  N   UNL     1       2.747  26.754  46.749  1.00  0.00    -0.280 N 
HETATM   15  C   UNL     1       1.944  27.734  47.261  1.00  0.00     0.037 A 
HETATM   16  H   UNL     1       2.779  26.398  45.800  1.00  0.00     0.189 HD
HETATM   17  C   UNL     1       2.295  27.840  48.596  1.00  0.00     0.010 A 
HETATM   18  C   UNL     1       1.722  28.775  49.597  1.00  0.00     0.054 C 
BRANCH  15  19
HETATM   19  C   UNL     1       0.940  28.446  46.425  1.00  0.00     0.055 C 
HETATM   20  C   UNL     1      -0.173  27.512  45.972  1.00  0.00     0.011 C 
ENDBRANCH  15  19
ENDBRANCH   9  12
ENDBRANCH   1   8
BRANCH   3  21
HETATM   21  C   UNL     1       7.325  24.114  53.652  1.00  0.00     0.012 A 
HETATM   22  C   UNL     1       7.440  22.888  52.979  1.00  0.00     0.039 A 
HETATM   23  C   UNL     1       8.276  21.887  53.471  1.00  0.00     0.035 A 
HETATM   24 CL   UNL     1       8.414  20.394  52.624  1.00  0.00    -0.084 Cl
HETATM   25  C   UNL     1       9.005  22.084  54.642  1.00  0.00     0.024 A 
HETATM   26  C   UNL     1       8.891  23.292  55.327  1.00  0.00     0.003 A 
HETATM   27  C   UNL     1       8.056  24.300  54.837  1.00  0.00     0.015 A 
ENDBRANCH   3  21
TORSDOF 4
ENDMDL
MODEL 4
REMARK VINA RESULT:      -9.0      3.145      8.310
REMARK  4 active torsions:
REMARK  status: ('A' for Active; 'I' for Inactive)
REMARK    1  A    between atoms: C_2  and  C_3 
REMARK    2  A    between atoms: C_7  and  N_8 
REMARK       I    between atoms: N_8  and  C_9 
REMARK    3  A    between atoms: C_9  and  C_10 
REMARK    4  A    between atoms: C_12  and  C_13 
ROOT
HETATM    1  C   UNL     1       6.486  27.378  57.150  1.00  0.00     0.149 A 
HETATM    2  N   UNL     1       7.593  27.870  57.834  1.00  0.00    -0.223 NA
HETATM    3  C   UNL     1       7.388  29.165  58.000  1.00  0.00     0.139 A 
HETATM    4  N   UNL     1       6.175  29.519  57.453  1.00  0.00    -0.342 N 
HETATM    5  H   UNL     1       5.798  30.454  57.424  1.00  0.00     0.167 HD
HETATM    6  C   UNL     1       5.592  28.404  56.908  1.00  0.00     0.041 A 
HETATM    7  C   UNL     1       4.280  28.429  56.222  1.00  0.00     0.071 C 
ENDROOT
BRANCH   1   8
HETATM    8  C   UNL     1       6.361  25.965  56.758  1.00  0.00     0.278 C 
HETATM    9  N   UNL     1       7.193  25.692  55.697  1.00  0.00    -0.304 N 
HETATM   10  H   UNL     1       7.768  26.464  55.387  1.00  0.00     0.171 HD
HETATM   11  O   UNL     1       5.609  25.201  57.349  1.00  0.00    -0.265 OA
BRANCH   9  12
HETATM   12  C   UNL     1       7.276  24.501  55.016  1.00  0.00     0.158 A 
HETATM   13  N   UNL     1       6.840  24.310  53.772  1.00  0.00    -0.156 NA
HETATM   14  N   UNL     1       7.158  23.047  53.485  1.00  0.00    -0.280 N 
HETATM   15  C   UNL     1       7.784  22.392  54.508  1.00  0.00     0.037 A 
HETATM   16  H   UNL     1       6.922  22.696  52.564  1.00  0.00     0.189 HD
HETATM   17  C   UNL     1       7.863  23.311  55.542  1.00  0.00     0.010 A 
HETATM   18  C   UNL     1       8.449  23.091  56.888  1.00  0.00     0.054 C 
BRANCH  15  19
HETATM   19  C   UNL     1       8.233  20.980  54.381  1.00  0.00     0.055 C 
HETATM   20  C   UNL     1       8.217  20.517  52.932  1.00  0.00     0.011 C 
ENDBRANCH  15  19
ENDBRANCH   9  12
ENDBRANCH   1   8
BRANCH   3  21
HETATM   21  C   UNL     1       8.317  30.112  58.624  1.00  0.00     0.012 A 
HETATM   22  C   UNL     1       8.081  30.533  59.941  1.00  0.00     0.039 A 
HETATM   23  C   UNL     1       8.957  31.419  60.569  1.00  0.00     0.035 A 
HETATM   24 CL   UNL     1       8.657  31.914  62.190  1.00  0.00    -0.084 Cl
HETATM   25  C   UNL     1      10.075  31.905  59.895  1.00  0.00     0.024 A 
HETATM   26  C   UNL     1      10.315  31.505  58.583  1.00  0.00     0.003 A 
HETATM   27  C   UNL     1       9.441  30.615  57.950  1.00  0.00     0.015 A 
ENDBRANCH   3  21
TORSDOF 4
ENDMDL
MODEL 5
REMARK VINA RESULT:      -9.0      3.133      4.892
REMARK  4 active torsions:
REMARK  status: ('A' for Active; 'I' for Inactive)
REMARK    1  A    between atoms: C_2  and  C_3 
REMARK    2  A    between atoms: C_7  and  N_8 
REMARK       I    between atoms: N_8  and  C_9 
REMARK    3  A    between atoms: C_9  and  C_10 
REMARK    4  A    between atoms: C_12  and  C_13 
ROOT
HETATM    1  C   UNL     1       7.687  29.449  57.773  1.00  0.00     0.149 A 
HETATM    2  N   UNL     1       8.260  28.181  57.799  1.00  0.00    -0.223 NA
HETATM    3  C   UNL     1       7.654  27.476  56.860  1.00  0.00     0.139 A 
HETATM    4  N   UNL     1       6.717  28.257  56.222  1.00  0.00    -0.342 N 
HETATM    5  H   UNL     1       6.102  27.947  55.485  1.00  0.00     0.167 HD
HETATM    6  C   UNL     1       6.721  29.506  56.787  1.00  0.00     0.041 A 
HETATM    7  C   UNL     1       5.821  30.597  56.348  1.00  0.00     0.071 C 
ENDROOT
BRANCH   1   8
HETATM    8  C   UNL     1       8.089  30.518  58.702  1.00  0.00     0.278 C 
HETATM    9  N   UNL     1       7.180  30.621  59.729  1.00  0.00    -0.304 N 
HETATM   10  H   UNL     1       6.427  29.947  59.710  1.00  0.00     0.171 HD
HETATM   11  O   UNL     1       9.108  31.172  58.522  1.00  0.00    -0.265 OA
BRANCH   9  12
HETATM   12  C   UNL     1       7.189  31.563  60.729  1.00  0.00     0.158 A 
HETATM   13  N   UNL     1       6.488  32.695  60.706  1.00  0.00    -0.156 NA
HETATM   14  N   UNL     1       6.743  33.282  61.877  1.00  0.00    -0.280 N 
HETATM   15  C   UNL     1       7.602  32.576  62.670  1.00  0.00     0.037 A 
HETATM   16  H   UNL     1       6.290  34.168  62.072  1.00  0.00     0.189 HD
HETATM   17  C   UNL     1       7.933  31.445  61.942  1.00  0.00     0.010 A 
HETATM   18  C   UNL     1       8.850  30.354  62.356  1.00  0.00     0.054 C 
BRANCH  15  19
HETATM   19  C   UNL     1       8.001  33.054  64.021  1.00  0.00     0.055 C 
HETATM   20  C   UNL     1       6.855  33.772  64.720  1.00  0.00     0.011 C 
ENDBRANCH  15  19
ENDBRANCH   9  12
ENDBRANCH   1   8
BRANCH   3  21
HETATM   21  C   UNL     1       7.891  26.061  56.556  1.00  0.00     0.012 A 
HETATM   22  C   UNL     1       7.545  25.567  55.290  1.00  0.00     0.039 A 
HETATM   23  C   UNL     1       7.775  24.230  54.964  1.00  0.00     0.035 A 
HETATM   24 CL   UNL     1       7.355  23.646  53.401  1.00  0.00    -0.084 Cl
HETATM   25  C   UNL     1       8.345  23.364  55.894  1.00  0.00     0.024 A 
HETATM   26  C   UNL     1       8.683  23.838  57.160  1.00  0.00     0.003 A 
HETATM   27  C   UNL     1       8.456  25.178  57.490  1.00  0.00     0.015 A 
ENDBRANCH   3  21
TORSDOF 4
ENDMDL
MODEL 6
REMARK VINA RESULT:      -8.9      3.740      9.189
REMARK  4 active torsions:
REMARK  status: ('A' for Active; 'I' for Inactive)
REMARK    1  A    between atoms: C_2  and  C_3 
REMARK    2  A    between atoms: C_7  and  N_8 
REMARK       I    between atoms: N_8  and  C_9 
REMARK    3  A    between atoms: C_9  and  C_10 
REMARK    4  A    between atoms: C_12  and  C_13 
ROOT
HETATM    1  C   UNL     1       8.461  29.590  57.684  1.00  0.00     0.149 A 
HETATM    2  N   UNL     1       7.652  30.142  58.674  1.00  0.00    -0.223 NA
HETATM    3  C   UNL     1       8.443  30.873  59.440  1.00  0.00     0.139 A 
HETATM    4  N   UNL     1       9.734  30.817  58.966  1.00  0.00    -0.342 N 
HETATM    5  H   UNL     1      10.532  31.267  59.389  1.00  0.00     0.167 HD
HETATM    6  C   UNL     1       9.766  30.009  57.859  1.00  0.00     0.041 A 
HETATM    7  C   UNL     1      11.006  29.718  57.104  1.00  0.00     0.071 C 
ENDROOT
BRANCH   1   8
HETATM    8  C   UNL     1       7.937  28.687  56.647  1.00  0.00     0.278 C 
HETATM    9  N   UNL     1       7.655  27.455  57.189  1.00  0.00    -0.304 N 
HETATM   10  H   UNL     1       7.807  27.374  58.186  1.00  0.00     0.171 HD
HETATM   11  O   UNL     1       7.793  29.058  55.489  1.00  0.00    -0.265 OA
BRANCH   9  12
HETATM   12  C   UNL     1       7.232  26.343  56.502  1.00  0.00     0.158 A 
HETATM   13  N   UNL     1       6.175  26.313  55.692  1.00  0.00    -0.156 NA
HETATM   14  N   UNL     1       6.152  25.073  55.200  1.00  0.00    -0.280 N 
HETATM   15  C   UNL     1       7.159  24.278  55.669  1.00  0.00     0.037 A 
HETATM   16  H   UNL     1       5.419  24.838  54.539  1.00  0.00     0.189 HD
HETATM   17  C   UNL     1       7.881  25.072  56.544  1.00  0.00     0.010 A 
HETATM   18  C   UNL     1       9.075  24.674  57.331  1.00  0.00     0.054 C 
BRANCH  15  19
HETATM   19  C   UNL     1       7.317  22.865  55.229  1.00  0.00     0.055 C 
HETATM   20  C   UNL     1       7.587  22.773  53.734  1.00  0.00     0.011 C 
ENDBRANCH  15  19
ENDBRANCH   9  12
ENDBRANCH   1   8
BRANCH   3  21
HETATM   21  C   UNL     1       8.039  31.602  60.647  1.00  0.00     0.012 A 
HETATM   22  C   UNL     1       6.917  32.442  60.594  1.00  0.00     0.039 A 
HETATM   23  C   UNL     1       6.498  33.134  61.730  1.00  0.00     0.035 A 
HETATM   24 CL   UNL     1       5.111  34.150  61.649  1.00  0.00    -0.084 Cl
HETATM   25  C   UNL     1       7.191  33.008  62.932  1.00  0.00     0.024 A 
HETATM   26  C   UNL     1       8.315  32.187  62.995  1.00  0.00     0.003 A 
HETATM   27  C   UNL     1       8.738  31.489  61.860  1.00  0.00     0.015 A 
ENDBRANCH   3  21
TORSDOF 4
ENDMDL
MODEL 7
REMARK VINA RESULT:      -8.8      3.408      5.916
REMARK  4 active torsions:
REMARK  status: ('A' for Active; 'I' for Inactive)
REMARK    1  A    between atoms: C_2  and  C_3 
REMARK    2  A    between atoms: C_7  and  N_8 
REMARK       I    between atoms: N_8  and  C_9 
REMARK    3  A    between atoms: C_9  and  C_10 
REMARK    4  A    between atoms: C_12  and  C_13 
ROOT
HETATM    1  C   UNL     1       8.748  30.022  58.571  1.00  0.00     0.149 A 
HETATM    2  N   UNL     1       7.802  29.003  58.500  1.00  0.00    -0.223 NA
HETATM    3  C   UNL     1       8.217  28.170  57.563  1.00  0.00     0.139 A 
HETATM    4  N   UNL     1       9.409  28.615  57.037  1.00  0.00    -0.342 N 
HETATM    5  H   UNL     1       9.919  28.172  56.288  1.00  0.00     0.167 HD
HETATM    6  C   UNL     1       9.758  29.786  57.658  1.00  0.00     0.041 A 
HETATM    7  C   UNL     1      10.984  30.547  57.323  1.00  0.00     0.071 C 
ENDROOT
BRANCH   1   8
HETATM    8  C   UNL     1       8.616  31.161  59.494  1.00  0.00     0.278 C 
HETATM    9  N   UNL     1       8.084  30.742  60.691  1.00  0.00    -0.304 N 
HETATM   10  H   UNL     1       7.909  29.749  60.764  1.00  0.00     0.171 HD
HETATM   11  O   UNL     1       8.963  32.290  59.171  1.00  0.00    -0.265 OA
BRANCH   9  12
HETATM   12  C   UNL     1       7.744  31.544  61.753  1.00  0.00     0.158 A 
HETATM   13  N   UNL     1       8.458  31.660  62.871  1.00  0.00    -0.156 NA
HETATM   14  N   UNL     1       7.807  32.565  63.605  1.00  0.00    -0.280 N 
HETATM   15  C   UNL     1       6.675  33.044  63.008  1.00  0.00     0.037 A 
HETATM   16  H   UNL     1       8.197  32.814  64.507  1.00  0.00     0.189 HD
HETATM   17  C   UNL     1       6.588  32.382  61.795  1.00  0.00     0.010 A 
HETATM   18  C   UNL     1       5.526  32.536  60.769  1.00  0.00     0.054 C 
BRANCH  15  19
HETATM   19  C   UNL     1       5.817  34.071  63.657  1.00  0.00     0.055 C 
HETATM   20  C   UNL     1       6.136  34.210  65.139  1.00  0.00     0.011 C 
ENDBRANCH  15  19
ENDBRANCH   9  12
ENDBRANCH   1   8
BRANCH   3  21
HETATM   21  C   UNL     1       7.510  26.971  57.100  1.00  0.00     0.012 A 
HETATM   22  C   UNL     1       8.155  25.727  57.173  1.00  0.00     0.039 A 
HETATM   23  C   UNL     1       7.502  24.567  56.758  1.00  0.00     0.035 A 
HETATM   24 CL   UNL     1       8.304  23.048  56.866  1.00  0.00    -0.084 Cl
HETATM   25  C   UNL     1       6.203  24.626  56.259  1.00  0.00     0.024 A 
HETATM   26  C   UNL     1       5.555  25.856  56.170  1.00  0.00     0.003 A 
HETATM   27  C   UNL     1       6.204  27.022  56.586  1.00  0.00     0.015 A 
ENDBRANCH   3  21
TORSDOF 4
ENDMDL
MODEL 8
REMARK VINA RESULT:      -8.7      3.491      6.244
REMARK  4 active torsions:
REMARK  status: ('A' for Active; 'I' for Inactive)
REMARK    1  A    between atoms: C_2  and  C_3 
REMARK    2  A    between atoms: C_7  and  N_8 
REMARK       I    between atoms: N_8  and  C_9 
REMARK    3  A    between atoms: C_9  and  C_10 
REMARK    4  A    between atoms: C_12  and  C_13 
ROOT
HETATM    1  C   UNL     1       5.438  26.323  53.609  1.00  0.00     0.149 A 
HETATM    2  N   UNL     1       6.002  25.135  53.153  1.00  0.00    -0.223 NA
HETATM    3  C   UNL     1       6.450  24.497  54.220  1.00  0.00     0.139 A 
HETATM    4  N   UNL     1       6.179  25.233  55.351  1.00  0.00    -0.342 N 
HETATM    5  H   UNL     1       6.442  24.979  56.292  1.00  0.00     0.167 HD
HETATM    6  C   UNL     1       5.543  26.392  54.986  1.00  0.00     0.041 A 
HETATM    7  C   UNL     1       5.119  27.425  55.958  1.00  0.00     0.071 C 
ENDROOT
BRANCH   1   8
HETATM    8  C   UNL     1       4.850  27.320  52.701  1.00  0.00     0.278 C 
HETATM    9  N   UNL     1       5.668  27.508  51.611  1.00  0.00    -0.304 N 
HETATM   10  H   UNL     1       6.494  26.926  51.582  1.00  0.00     0.171 HD
HETATM   11  O   UNL     1       3.777  27.855  52.946  1.00  0.00    -0.265 OA
BRANCH   9  12
HETATM   12  C   UNL     1       5.479  28.423  50.603  1.00  0.00     0.158 A 
HETATM   13  N   UNL     1       5.781  29.718  50.692  1.00  0.00    -0.156 NA
HETATM   14  N   UNL     1       5.491  30.223  49.492  1.00  0.00    -0.280 N 
HETATM   15  C   UNL     1       4.997  29.301  48.613  1.00  0.00     0.037 A 
HETATM   16  H   UNL     1       5.662  31.211  49.339  1.00  0.00     0.189 HD
HETATM   17  C   UNL     1       4.956  28.107  49.313  1.00  0.00     0.010 A 
HETATM   18  C   UNL     1       4.483  26.793  48.809  1.00  0.00     0.054 C 
BRANCH  15  19
HETATM   19  C   UNL     1       4.627  29.663  47.218  1.00  0.00     0.055 C 
HETATM   20  C   UNL     1       3.121  29.815  47.061  1.00  0.00     0.011 C 
ENDBRANCH  15  19
ENDBRANCH   9  12
ENDBRANCH   1   8
BRANCH   3  21
HETATM   21  C   UNL     1       7.172  23.221  54.222  1.00  0.00     0.012 A 
HETATM   22  C   UNL     1       7.497  22.622  55.448  1.00  0.00     0.039 A 
HETATM   23  C   UNL     1       8.167  21.399  55.482  1.00  0.00     0.035 A 
HETATM   24 CL   UNL     1       8.546  20.673  56.997  1.00  0.00    -0.084 Cl
HETATM   25  C   UNL     1       8.530  20.758  54.300  1.00  0.00     0.024 A 
HETATM   26  C   UNL     1       8.224  21.347  53.076  1.00  0.00     0.003 A 
HETATM   27  C   UNL     1       7.551  22.572  53.036  1.00  0.00     0.015 A 
ENDBRANCH   3  21
TORSDOF 4
ENDMDL
MODEL 9
REMARK VINA RESULT:      -8.6      3.546      8.591
REMARK  4 active torsions:
REMARK  status: ('A' for Active; 'I' for Inactive)
REMARK    1  A    between atoms: C_2  and  C_3 
REMARK    2  A    between atoms: C_7  and  N_8 
REMARK       I    between atoms: N_8  and  C_9 
REMARK    3  A    between atoms: C_9  and  C_10 
REMARK    4  A    between atoms: C_12  and  C_13 
ROOT
HETATM    1  C   UNL     1       7.177  29.160  56.649  1.00  0.00     0.149 A 
HETATM    2  N   UNL     1       7.941  29.338  57.798  1.00  0.00    -0.223 NA
HETATM    3  C   UNL     1       7.383  30.328  58.472  1.00  0.00     0.139 A 
HETATM    4  N   UNL     1       6.274  30.785  57.795  1.00  0.00    -0.342 N 
HETATM    5  H   UNL     1       5.688  31.554  58.086  1.00  0.00     0.167 HD
HETATM    6  C   UNL     1       6.129  30.062  56.640  1.00  0.00     0.041 A 
HETATM    7  C   UNL     1       5.042  30.302  55.665  1.00  0.00     0.071 C 
ENDROOT
BRANCH   1   8
HETATM    8  C   UNL     1       7.505  28.152  55.628  1.00  0.00     0.278 C 
HETATM    9  N   UNL     1       6.966  26.935  55.973  1.00  0.00    -0.304 N 
HETATM   10  H   UNL     1       6.415  26.929  56.821  1.00  0.00     0.171 HD
HETATM   11  O   UNL     1       8.162  28.437  54.635  1.00  0.00    -0.265 OA
BRANCH   9  12
HETATM   12  C   UNL     1       7.140  25.749  55.301  1.00  0.00     0.158 A 
HETATM   13  N   UNL     1       6.586  25.460  54.125  1.00  0.00    -0.156 NA
HETATM   14  N   UNL     1       7.050  24.248  53.814  1.00  0.00    -0.280 N 
HETATM   15  C   UNL     1       7.888  23.723  54.755  1.00  0.00     0.037 A 
HETATM   16  H   UNL     1       6.755  23.839  52.934  1.00  0.00     0.189 HD
HETATM   17  C   UNL     1       7.959  24.673  55.760  1.00  0.00     0.010 A 
HETATM   18  C   UNL     1       8.734  24.581  57.023  1.00  0.00     0.054 C 
BRANCH  15  19
HETATM   19  C   UNL     1       8.523  22.388  54.588  1.00  0.00     0.055 C 
HETATM   20  C   UNL     1       8.009  21.677  53.344  1.00  0.00     0.011 C 
ENDBRANCH  15  19
ENDBRANCH   9  12
ENDBRANCH   1   8
BRANCH   3  21
HETATM   21  C   UNL     1       7.878  30.904  59.726  1.00  0.00     0.012 A 
HETATM   22  C   UNL     1       7.157  31.944  60.331  1.00  0.00     0.039 A 
HETATM   23  C   UNL     1       7.592  32.500  61.534  1.00  0.00     0.035 A 
HETATM   24 CL   UNL     1       6.686  33.767  62.268  1.00  0.00    -0.084 Cl
HETATM   25  C   UNL     1       8.752  32.037  62.149  1.00  0.00     0.024 A 
HETATM   26  C   UNL     1       9.485  31.013  61.552  1.00  0.00     0.003 A 
HETATM   27  C   UNL     1       9.052  30.450  60.348  1.00  0.00     0.015 A 
ENDBRANCH   3  21
TORSDOF 4
ENDMDL
MODEL 10
REMARK VINA RESULT:      -8.2      4.858      8.142
REMARK  4 active torsions:
REMARK  status: ('A' for Active; 'I' for Inactive)
REMARK    1  A    between atoms: C_2  and  C_3 
REMARK    2  A    between atoms: C_7  and  N_8 
REMARK       I    between atoms: N_8  and  C_9 
REMARK    3  A    between atoms: C_9  and  C_10 
REMARK    4  A    between atoms: C_12  and  C_13 
ROOT
HETATM    1  C   UNL     1       7.206  31.596  60.265  1.00  0.00     0.149 A 
HETATM    2  N   UNL     1       6.690  30.838  59.217  1.00  0.00    -0.223 NA
HETATM    3  C   UNL     1       7.690  30.112  58.750  1.00  0.00     0.139 A 
HETATM    4  N   UNL     1       8.832  30.370  59.475  1.00  0.00    -0.342 N 
HETATM    5  H   UNL     1       9.739  29.963  59.300  1.00  0.00     0.167 HD
HETATM    6  C   UNL     1       8.547  31.307  60.434  1.00  0.00     0.041 A 
HETATM    7  C   UNL     1       9.557  31.827  61.384  1.00  0.00     0.071 C 
ENDROOT
BRANCH   1   8
HETATM    8  C   UNL     1       6.390  32.555  61.025  1.00  0.00     0.278 C 
HETATM    9  N   UNL     1       6.265  32.142  62.331  1.00  0.00    -0.304 N 
HETATM   10  H   UNL     1       6.768  31.297  62.568  1.00  0.00     0.171 HD
HETATM   11  O   UNL     1       5.929  33.561  60.500  1.00  0.00    -0.265 OA
BRANCH   9  12
HETATM   12  C   UNL     1       5.505  32.744  63.304  1.00  0.00     0.158 A 
HETATM   13  N   UNL     1       4.176  32.835  63.277  1.00  0.00    -0.156 NA
HETATM   14  N   UNL     1       3.848  33.439  64.420  1.00  0.00    -0.280 N 
HETATM   15  C   UNL     1       4.923  33.759  65.200  1.00  0.00     0.037 A 
HETATM   16  H   UNL     1       2.864  33.597  64.607  1.00  0.00     0.189 HD
HETATM   17  C   UNL     1       6.034  33.335  64.491  1.00  0.00     0.010 A 
HETATM   18  C   UNL     1       7.455  33.462  64.901  1.00  0.00     0.054 C 
BRANCH  15  19
HETATM   19  C   UNL     1       4.766  34.425  66.522  1.00  0.00     0.055 C 
HETATM   20  C   UNL     1       4.197  35.829  66.376  1.00  0.00     0.011 C 
ENDBRANCH  15  19
ENDBRANCH   9  12
ENDBRANCH   1   8
BRANCH   3  21
HETATM   21  C   UNL     1       7.631  29.198  57.605  1.00  0.00     0.012 A 
HETATM   22  C   UNL     1       7.956  27.847  57.791  1.00  0.00     0.039 A 
HETATM   23  C   UNL     1       7.891  26.950  56.725  1.00  0.00     0.035 A 
HETATM   24 CL   UNL     1       8.281  25.292  56.977  1.00  0.00    -0.084 Cl
HETATM   25  C   UNL     1       7.510  27.384  55.458  1.00  0.00     0.024 A 
HETATM   26  C   UNL     1       7.196  28.726  55.255  1.00  0.00     0.003 A 
HETATM   27  C   UNL     1       7.257  29.629  56.321  1.00  0.00     0.015 A 
ENDBRANCH   3  21
TORSDOF 4
ENDMDL
