MODEL 1
REMARK VINA RESULT:     -11.0      0.000      0.000
REMARK  6 active torsions:
REMARK  status: ('A' for Active; 'I' for Inactive)
REMARK    1  A    between atoms: C_2  and  O_3 
REMARK    2  A    between atoms: O_3  and  C_4 
REMARK    3  A    between atoms: C_5  and  O_6 
REMARK    4  A    between atoms: O_6  and  C_7 
REMARK    5  A    between atoms: C_7  and  C_8 
REMARK    6  A    between atoms: C_18  and  C_19 
ROOT
HETATM    1  C   UNL     1       5.789  28.402  56.446  1.00  0.00     0.103 A 
HETATM    2  C   UNL     1       6.818  27.516  56.105  1.00  0.00     0.112 A 
HETATM    3  C   UNL     1       8.101  27.637  56.638  1.00  0.00     0.041 A 
HETATM    4  C   UNL     1       8.361  28.643  57.563  1.00  0.00     0.014 A 
HETATM    5  C   UNL     1       7.349  29.542  57.944  1.00  0.00    -0.013 A 
HETATM    6  C   UNL     1       6.066  29.414  57.373  1.00  0.00     0.050 A 
ENDROOT
BRANCH   5   7
HETATM    7  C   UNL     1       7.631  30.629  58.957  1.00  0.00     0.219 C 
HETATM    8  N   UNL     1       8.209  30.085  60.159  1.00  0.00    -0.332 N 
HETATM    9  C   UNL     1       8.253  30.790  61.332  1.00  0.00     0.256 C 
HETATM   10  H   UNL     1       8.928  29.384  60.060  1.00  0.00     0.165 HD
HETATM   11  O   UNL     1       9.034  30.507  62.234  1.00  0.00    -0.267 OA
HETATM   12  C   UNL     1       7.285  31.869  61.442  1.00  0.00     0.073 A 
HETATM   13  C   UNL     1       6.399  32.075  60.410  1.00  0.00     0.088 A 
HETATM   14  C   UNL     1       7.063  32.782  62.522  1.00  0.00    -0.023 A 
HETATM   15  S   UNL     1       5.306  33.337  60.723  1.00  0.00    -0.074 SA
HETATM   16  N   UNL     1       6.404  31.328  59.285  1.00  0.00    -0.358 N 
HETATM   17  C   UNL     1       6.000  33.626  62.251  1.00  0.00     0.018 A 
HETATM   18  C   UNL     1       5.497  34.689  63.163  1.00  0.00     0.281 C 
HETATM   19  N   UNL     1       6.018  34.494  64.583  1.00  0.00    -0.070 N 
HETATM   20  C   UNL     1       7.505  34.141  64.591  1.00  0.00     0.239 C 
HETATM   21  H   UNL     1       5.930  35.406  65.046  1.00  0.00     0.279 HD
HETATM   22  C   UNL     1       5.177  33.537  65.380  1.00  0.00     0.270 C 
HETATM   23  C   UNL     1       7.803  32.841  63.824  1.00  0.00     0.068 C 
HETATM   24  H   UNL     1       5.850  31.616  58.483  1.00  0.00     0.162 HD
ENDBRANCH   5   7
BRANCH   1  25
HETATM   25  O   UNL     1       4.588  28.204  55.822  1.00  0.00    -0.349 OA
BRANCH  25  26
HETATM   26  C   UNL     1       4.245  29.089  54.757  1.00  0.00     0.171 C 
HETATM   27  C   UNL     1       3.876  28.251  53.547  1.00  0.00     0.034 C 
ENDBRANCH  25  26
ENDBRANCH   1  25
BRANCH   2  28
HETATM   28  O   UNL     1       6.596  26.502  55.169  1.00  0.00    -0.272 OA
BRANCH  28  29
HETATM   29  C   UNL     1       6.402  25.282  55.780  1.00  0.00     0.300 C 
HETATM   30  O   UNL     1       5.623  24.994  56.677  1.00  0.00    -0.259 OA
BRANCH  29  31
HETATM   31  C   UNL     1       7.257  24.283  55.114  1.00  0.00     0.061 A 
HETATM   32  C   UNL     1       8.395  23.734  55.717  1.00  0.00     0.050 A 
HETATM   33 CL   UNL     1       8.895  24.135  57.322  1.00  0.00    -0.083 Cl
HETATM   34  C   UNL     1       9.145  22.774  55.031  1.00  0.00     0.025 A 
HETATM   35  C   UNL     1       8.755  22.354  53.756  1.00  0.00     0.002 A 
HETATM   36  C   UNL     1       7.611  22.885  53.165  1.00  0.00     0.001 A 
HETATM   37  C   UNL     1       6.858  23.846  53.842  1.00  0.00     0.019 A 
ENDBRANCH  29  31
ENDBRANCH  28  29
ENDBRANCH   2  28
TORSDOF 6
ENDMDL
MODEL 2
REMARK VINA RESULT:      -9.9      1.809      3.215
REMARK  6 active torsions:
REMARK  status: ('A' for Active; 'I' for Inactive)
REMARK    1  A    between atoms: C_2  and  O_3 
REMARK    2  A    between atoms: O_3  and  C_4 
REMARK    3  A    between atoms: C_5  and  O_6 
REMARK    4  A    between atoms: O_6  and  C_7 
REMARK    5  A    between atoms: C_7  and  C_8 
REMARK    6  A    between atoms: C_18  and  C_19 
ROOT
HETATM    1  C   UNL     1       7.766  28.101  57.242  1.00  0.00     0.103 A 
HETATM    2  C   UNL     1       6.846  28.452  56.248  1.00  0.00     0.112 A 
HETATM    3  C   UNL     1       6.140  29.654  56.288  1.00  0.00     0.041 A 
HETATM    4  C   UNL     1       6.380  30.549  57.326  1.00  0.00     0.014 A 
HETATM    5  C   UNL     1       7.310  30.240  58.335  1.00  0.00    -0.013 A 
HETATM    6  C   UNL     1       7.994  29.007  58.284  1.00  0.00     0.050 A 
ENDROOT
BRANCH   5   7
HETATM    7  C   UNL     1       7.577  31.218  59.457  1.00  0.00     0.219 C 
HETATM    8  N   UNL     1       8.007  30.537  60.651  1.00  0.00    -0.332 N 
HETATM    9  C   UNL     1       7.997  31.140  61.881  1.00  0.00     0.256 C 
HETATM   10  H   UNL     1       8.682  29.792  60.551  1.00  0.00     0.165 HD
HETATM   11  O   UNL     1       8.674  30.727  62.815  1.00  0.00    -0.267 OA
HETATM   12  C   UNL     1       7.100  32.277  62.003  1.00  0.00     0.073 A 
HETATM   13  C   UNL     1       6.325  32.633  60.923  1.00  0.00     0.088 A 
HETATM   14  C   UNL     1       6.848  33.116  63.135  1.00  0.00    -0.023 A 
HETATM   15  S   UNL     1       5.300  33.947  61.253  1.00  0.00    -0.074 SA
HETATM   16  N   UNL     1       6.377  31.981  59.742  1.00  0.00    -0.358 N 
HETATM   17  C   UNL     1       5.875  34.059  62.852  1.00  0.00     0.018 A 
HETATM   18  C   UNL     1       5.369  35.081  63.809  1.00  0.00     0.281 C 
HETATM   19  N   UNL     1       5.748  34.732  65.245  1.00  0.00    -0.070 N 
HETATM   20  C   UNL     1       7.200  34.267  65.343  1.00  0.00     0.239 C 
HETATM   21  H   UNL     1       5.683  35.609  65.775  1.00  0.00     0.279 HD
HETATM   22  C   UNL     1       4.775  33.783  65.884  1.00  0.00     0.270 C 
HETATM   23  C   UNL     1       7.473  33.014  64.495  1.00  0.00     0.068 C 
HETATM   24  H   UNL     1       5.917  32.374  58.925  1.00  0.00     0.162 HD
ENDBRANCH   5   7
BRANCH   1  25
HETATM   25  O   UNL     1       8.361  26.876  57.111  1.00  0.00    -0.349 OA
BRANCH  25  26
HETATM   26  C   UNL     1       7.723  25.764  57.736  1.00  0.00     0.171 C 
HETATM   27  C   UNL     1       7.925  24.547  56.853  1.00  0.00     0.034 C 
ENDBRANCH  25  26
ENDBRANCH   1  25
BRANCH   2  28
HETATM   28  O   UNL     1       6.569  27.572  55.198  1.00  0.00    -0.272 OA
BRANCH  28  29
HETATM   29  C   UNL     1       7.274  27.901  54.061  1.00  0.00     0.300 C 
HETATM   30  O   UNL     1       8.361  28.453  53.971  1.00  0.00    -0.259 OA
BRANCH  29  31
HETATM   31  C   UNL     1       6.535  27.398  52.889  1.00  0.00     0.061 A 
HETATM   32  C   UNL     1       6.651  26.081  52.427  1.00  0.00     0.050 A 
HETATM   33 CL   UNL     1       7.637  24.894  53.203  1.00  0.00    -0.083 Cl
HETATM   34  C   UNL     1       5.900  25.670  51.320  1.00  0.00     0.025 A 
HETATM   35  C   UNL     1       5.030  26.561  50.688  1.00  0.00     0.002 A 
HETATM   36  C   UNL     1       4.900  27.865  51.162  1.00  0.00     0.001 A 
HETATM   37  C   UNL     1       5.647  28.285  52.263  1.00  0.00     0.019 A 
ENDBRANCH  29  31
ENDBRANCH  28  29
ENDBRANCH   2  28
TORSDOF 6
ENDMDL
MODEL 3
REMARK VINA RESULT:      -9.7      1.930      2.249
REMARK  6 active torsions:
REMARK  status: ('A' for Active; 'I' for Inactive)
REMARK    1  A    between atoms: C_2  and  O_3 
REMARK    2  A    between atoms: O_3  and  C_4 
REMARK    3  A    between atoms: C_5  and  O_6 
REMARK    4  A    between atoms: O_6  and  C_7 
REMARK    5  A    between atoms: C_7  and  C_8 
REMARK    6  A    between atoms: C_18  and  C_19 
ROOT
HETATM    1  C   UNL     1       7.375  27.766  55.032  1.00  0.00     0.103 A 
HETATM    2  C   UNL     1       7.760  26.679  55.825  1.00  0.00     0.112 A 
HETATM    3  C   UNL     1       7.965  26.807  57.199  1.00  0.00     0.041 A 
HETATM    4  C   UNL     1       7.748  28.038  57.808  1.00  0.00     0.014 A 
HETATM    5  C   UNL     1       7.343  29.150  57.048  1.00  0.00    -0.013 A 
HETATM    6  C   UNL     1       7.165  29.001  55.656  1.00  0.00     0.050 A 
ENDROOT
BRANCH   5   7
HETATM    7  C   UNL     1       7.098  30.486  57.713  1.00  0.00     0.219 C 
HETATM    8  N   UNL     1       7.999  30.690  58.818  1.00  0.00    -0.332 N 
HETATM    9  C   UNL     1       7.777  31.647  59.774  1.00  0.00     0.256 C 
HETATM   10  H   UNL     1       8.968  30.438  58.689  1.00  0.00     0.165 HD
HETATM   11  O   UNL     1       8.676  32.072  60.491  1.00  0.00    -0.267 OA
HETATM   12  C   UNL     1       6.398  32.089  59.897  1.00  0.00     0.073 A 
HETATM   13  C   UNL     1       5.440  31.510  59.098  1.00  0.00     0.088 A 
HETATM   14  C   UNL     1       5.832  33.057  60.787  1.00  0.00    -0.023 A 
HETATM   15  S   UNL     1       3.878  32.103  59.407  1.00  0.00    -0.074 SA
HETATM   16  N   UNL     1       5.730  30.558  58.185  1.00  0.00    -0.358 N 
HETATM   17  C   UNL     1       4.461  33.145  60.621  1.00  0.00     0.018 A 
HETATM   18  C   UNL     1       3.562  34.047  61.392  1.00  0.00     0.281 C 
HETATM   19  N   UNL     1       4.250  34.576  62.647  1.00  0.00    -0.070 N 
HETATM   20  C   UNL     1       5.683  35.016  62.356  1.00  0.00     0.239 C 
HETATM   21  H   UNL     1       3.733  35.420  62.919  1.00  0.00     0.279 HD
HETATM   22  C   UNL     1       4.143  33.627  63.807  1.00  0.00     0.270 C 
HETATM   23  C   UNL     1       6.554  33.865  61.824  1.00  0.00     0.068 C 
HETATM   24  H   UNL     1       5.028  30.278  57.505  1.00  0.00     0.162 HD
ENDBRANCH   5   7
BRANCH   1  25
HETATM   25  O   UNL     1       7.248  27.522  53.692  1.00  0.00    -0.349 OA
BRANCH  25  26
HETATM   26  C   UNL     1       6.059  27.981  53.050  1.00  0.00     0.171 C 
HETATM   27  C   UNL     1       5.167  26.779  52.795  1.00  0.00     0.034 C 
ENDBRANCH  25  26
ENDBRANCH   1  25
BRANCH   2  28
HETATM   28  O   UNL     1       8.000  25.430  55.246  1.00  0.00    -0.272 OA
BRANCH  28  29
HETATM   29  C   UNL     1       6.909  24.598  55.365  1.00  0.00     0.300 C 
HETATM   30  O   UNL     1       5.778  24.872  55.739  1.00  0.00    -0.259 OA
BRANCH  29  31
HETATM   31  C   UNL     1       7.286  23.260  54.874  1.00  0.00     0.061 A 
HETATM   32  C   UNL     1       7.571  22.996  53.529  1.00  0.00     0.050 A 
HETATM   33 CL   UNL     1       7.555  24.218  52.307  1.00  0.00    -0.083 Cl
HETATM   34  C   UNL     1       7.943  21.705  53.143  1.00  0.00     0.025 A 
HETATM   35  C   UNL     1       8.043  20.685  54.093  1.00  0.00     0.002 A 
HETATM   36  C   UNL     1       7.779  20.953  55.435  1.00  0.00     0.001 A 
HETATM   37  C   UNL     1       7.405  22.239  55.829  1.00  0.00     0.019 A 
ENDBRANCH  29  31
ENDBRANCH  28  29
ENDBRANCH   2  28
TORSDOF 6
ENDMDL
MODEL 4
REMARK VINA RESULT:      -9.7      1.724      2.023
REMARK  6 active torsions:
REMARK  status: ('A' for Active; 'I' for Inactive)
REMARK    1  A    between atoms: C_2  and  O_3 
REMARK    2  A    between atoms: O_3  and  C_4 
REMARK    3  A    between atoms: C_5  and  O_6 
REMARK    4  A    between atoms: O_6  and  C_7 
REMARK    5  A    between atoms: C_7  and  C_8 
REMARK    6  A    between atoms: C_18  and  C_19 
ROOT
HETATM    1  C   UNL     1       5.782  29.943  56.227  1.00  0.00     0.103 A 
HETATM    2  C   UNL     1       6.652  28.887  55.929  1.00  0.00     0.112 A 
HETATM    3  C   UNL     1       7.812  28.658  56.670  1.00  0.00     0.041 A 
HETATM    4  C   UNL     1       8.098  29.477  57.757  1.00  0.00     0.014 A 
HETATM    5  C   UNL     1       7.239  30.537  58.098  1.00  0.00    -0.013 A 
HETATM    6  C   UNL     1       6.084  30.763  57.319  1.00  0.00     0.050 A 
ENDROOT
BRANCH   5   7
HETATM    7  C   UNL     1       7.546  31.421  59.286  1.00  0.00     0.219 C 
HETATM    8  N   UNL     1       7.912  30.637  60.438  1.00  0.00    -0.332 N 
HETATM    9  C   UNL     1       7.918  31.159  61.705  1.00  0.00     0.256 C 
HETATM   10  H   UNL     1       8.541  29.860  60.298  1.00  0.00     0.165 HD
HETATM   11  O   UNL     1       8.551  30.643  62.619  1.00  0.00    -0.267 OA
HETATM   12  C   UNL     1       7.091  32.340  61.891  1.00  0.00     0.073 A 
HETATM   13  C   UNL     1       6.359  32.813  60.826  1.00  0.00     0.088 A 
HETATM   14  C   UNL     1       6.871  33.116  63.072  1.00  0.00    -0.023 A 
HETATM   15  S   UNL     1       5.410  34.164  61.229  1.00  0.00    -0.074 SA
HETATM   16  N   UNL     1       6.391  32.238  59.606  1.00  0.00    -0.358 N 
HETATM   17  C   UNL     1       5.963  34.135  62.839  1.00  0.00     0.018 A 
HETATM   18  C   UNL     1       5.504  35.122  63.855  1.00  0.00     0.281 C 
HETATM   19  N   UNL     1       5.836  34.657  65.269  1.00  0.00    -0.070 N 
HETATM   20  C   UNL     1       7.255  34.097  65.356  1.00  0.00     0.239 C 
HETATM   21  H   UNL     1       5.816  35.500  65.856  1.00  0.00     0.279 HD
HETATM   22  C   UNL     1       4.795  33.731  65.832  1.00  0.00     0.270 C 
HETATM   23  C   UNL     1       7.465  32.886  64.430  1.00  0.00     0.068 C 
HETATM   24  H   UNL     1       5.970  32.711  58.810  1.00  0.00     0.162 HD
ENDBRANCH   5   7
BRANCH   1  25
HETATM   25  O   UNL     1       4.701  30.087  55.400  1.00  0.00    -0.349 OA
BRANCH  25  26
HETATM   26  C   UNL     1       4.199  31.407  55.200  1.00  0.00     0.171 C 
HETATM   27  C   UNL     1       2.707  31.391  55.481  1.00  0.00     0.034 C 
ENDBRANCH  25  26
ENDBRANCH   1  25
BRANCH   2  28
HETATM   28  O   UNL     1       6.404  28.053  54.836  1.00  0.00    -0.272 OA
BRANCH  28  29
HETATM   29  C   UNL     1       6.021  26.792  55.238  1.00  0.00     0.300 C 
HETATM   30  O   UNL     1       5.230  26.478  56.115  1.00  0.00    -0.259 OA
BRANCH  29  31
HETATM   31  C   UNL     1       6.675  25.803  54.361  1.00  0.00     0.061 A 
HETATM   32  C   UNL     1       6.597  25.857  52.965  1.00  0.00     0.050 A 
HETATM   33 CL   UNL     1       5.763  27.110  52.116  1.00  0.00    -0.083 Cl
HETATM   34  C   UNL     1       7.262  24.894  52.199  1.00  0.00     0.025 A 
HETATM   35  C   UNL     1       8.012  23.893  52.820  1.00  0.00     0.002 A 
HETATM   36  C   UNL     1       8.107  23.852  54.210  1.00  0.00     0.001 A 
HETATM   37  C   UNL     1       7.444  24.807  54.982  1.00  0.00     0.019 A 
ENDBRANCH  29  31
ENDBRANCH  28  29
ENDBRANCH   2  28
TORSDOF 6
ENDMDL
MODEL 5
REMARK VINA RESULT:      -9.3      6.330     10.545
REMARK  6 active torsions:
REMARK  status: ('A' for Active; 'I' for Inactive)
REMARK    1  A    between atoms: C_2  and  O_3 
REMARK    2  A    between atoms: O_3  and  C_4 
REMARK    3  A    between atoms: C_5  and  O_6 
REMARK    4  A    between atoms: O_6  and  C_7 
REMARK    5  A    between atoms: C_7  and  C_8 
REMARK    6  A    between atoms: C_18  and  C_19 
ROOT
HETATM    1  C   UNL     1       7.037  27.009  53.567  1.00  0.00     0.103 A 
HETATM    2  C   UNL     1       7.206  25.681  53.158  1.00  0.00     0.112 A 
HETATM    3  C   UNL     1       6.522  25.156  52.061  1.00  0.00     0.041 A 
HETATM    4  C   UNL     1       5.675  25.982  51.329  1.00  0.00     0.014 A 
HETATM    5  C   UNL     1       5.494  27.327  51.698  1.00  0.00    -0.013 A 
HETATM    6  C   UNL     1       6.178  27.827  52.826  1.00  0.00     0.050 A 
ENDROOT
BRANCH   5   7
HETATM    7  C   UNL     1       4.580  28.226  50.896  1.00  0.00     0.219 C 
HETATM    8  N   UNL     1       3.905  27.490  49.858  1.00  0.00    -0.332 N 
HETATM    9  C   UNL     1       3.288  28.111  48.804  1.00  0.00     0.256 C 
HETATM   10  H   UNL     1       3.529  26.583  50.093  1.00  0.00     0.165 HD
HETATM   11  O   UNL     1       2.428  27.554  48.132  1.00  0.00    -0.267 OA
HETATM   12  C   UNL     1       3.756  29.458  48.522  1.00  0.00     0.073 A 
HETATM   13  C   UNL     1       4.774  29.982  49.284  1.00  0.00     0.088 A 
HETATM   14  C   UNL     1       3.334  30.369  47.502  1.00  0.00    -0.023 A 
HETATM   15  S   UNL     1       5.232  31.541  48.788  1.00  0.00    -0.074 SA
HETATM   16  N   UNL     1       5.346  29.304  50.302  1.00  0.00    -0.358 N 
HETATM   17  C   UNL     1       4.074  31.538  47.539  1.00  0.00     0.018 A 
HETATM   18  C   UNL     1       3.901  32.691  46.614  1.00  0.00     0.281 C 
HETATM   19  N   UNL     1       3.094  32.297  45.381  1.00  0.00    -0.070 N 
HETATM   20  C   UNL     1       1.882  31.446  45.754  1.00  0.00     0.239 C 
HETATM   21  H   UNL     1       2.729  33.173  44.989  1.00  0.00     0.279 HD
HETATM   22  C   UNL     1       3.946  31.681  44.308  1.00  0.00     0.270 C 
HETATM   23  C   UNL     1       2.278  30.139  46.462  1.00  0.00     0.068 C 
HETATM   24  H   UNL     1       5.974  29.784  50.942  1.00  0.00     0.162 HD
ENDBRANCH   5   7
BRANCH   1  25
HETATM   25  O   UNL     1       7.731  27.391  54.683  1.00  0.00    -0.349 OA
BRANCH  25  26
HETATM   26  C   UNL     1       6.987  27.965  55.756  1.00  0.00     0.171 C 
HETATM   27  C   UNL     1       7.259  27.152  57.008  1.00  0.00     0.034 C 
ENDBRANCH  25  26
ENDBRANCH   1  25
BRANCH   2  28
HETATM   28  O   UNL     1       8.038  24.819  53.878  1.00  0.00    -0.272 OA
BRANCH  28  29
HETATM   29  C   UNL     1       7.312  23.965  54.679  1.00  0.00     0.300 C 
HETATM   30  O   UNL     1       6.344  24.217  55.381  1.00  0.00    -0.259 OA
BRANCH  29  31
HETATM   31  C   UNL     1       7.841  22.600  54.508  1.00  0.00     0.061 A 
HETATM   32  C   UNL     1       8.363  21.849  55.568  1.00  0.00     0.050 A 
HETATM   33 CL   UNL     1       8.406  22.423  57.197  1.00  0.00    -0.083 Cl
HETATM   34  C   UNL     1       8.826  20.551  55.331  1.00  0.00     0.025 A 
HETATM   35  C   UNL     1       8.757  19.999  54.050  1.00  0.00     0.002 A 
HETATM   36  C   UNL     1       8.217  20.739  53.000  1.00  0.00     0.001 A 
HETATM   37  C   UNL     1       7.754  22.036  53.226  1.00  0.00     0.019 A 
ENDBRANCH  29  31
ENDBRANCH  28  29
ENDBRANCH   2  28
TORSDOF 6
ENDMDL
MODEL 6
REMARK VINA RESULT:      -9.2      6.107     10.033
REMARK  6 active torsions:
REMARK  status: ('A' for Active; 'I' for Inactive)
REMARK    1  A    between atoms: C_2  and  O_3 
REMARK    2  A    between atoms: O_3  and  C_4 
REMARK    3  A    between atoms: C_5  and  O_6 
REMARK    4  A    between atoms: O_6  and  C_7 
REMARK    5  A    between atoms: C_7  and  C_8 
REMARK    6  A    between atoms: C_18  and  C_19 
ROOT
HETATM    1  C   UNL     1       5.252  26.346  54.040  1.00  0.00     0.103 A 
HETATM    2  C   UNL     1       5.719  25.147  53.489  1.00  0.00     0.112 A 
HETATM    3  C   UNL     1       5.729  24.924  52.112  1.00  0.00     0.041 A 
HETATM    4  C   UNL     1       5.297  25.933  51.257  1.00  0.00     0.014 A 
HETATM    5  C   UNL     1       4.838  27.158  51.772  1.00  0.00    -0.013 A 
HETATM    6  C   UNL     1       4.815  27.350  53.169  1.00  0.00     0.050 A 
ENDROOT
BRANCH   5   7
HETATM    7  C   UNL     1       4.377  28.257  50.840  1.00  0.00     0.219 C 
HETATM    8  N   UNL     1       4.410  27.824  49.467  1.00  0.00    -0.332 N 
HETATM    9  C   UNL     1       4.360  28.706  48.420  1.00  0.00     0.256 C 
HETATM   10  H   UNL     1       4.062  26.899  49.257  1.00  0.00     0.165 HD
HETATM   11  O   UNL     1       4.029  28.362  47.292  1.00  0.00    -0.267 OA
HETATM   12  C   UNL     1       4.764  30.066  48.740  1.00  0.00     0.073 A 
HETATM   13  C   UNL     1       5.187  30.352  50.017  1.00  0.00     0.088 A 
HETATM   14  C   UNL     1       4.833  31.215  47.889  1.00  0.00    -0.023 A 
HETATM   15  S   UNL     1       5.671  31.969  50.204  1.00  0.00    -0.074 SA
HETATM   16  N   UNL     1       5.224  29.424  50.998  1.00  0.00    -0.358 N 
HETATM   17  C   UNL     1       5.325  32.313  48.573  1.00  0.00     0.018 A 
HETATM   18  C   UNL     1       5.532  33.665  47.985  1.00  0.00     0.281 C 
HETATM   19  N   UNL     1       5.517  33.616  46.461  1.00  0.00    -0.070 N 
HETATM   20  C   UNL     1       4.381  32.738  45.940  1.00  0.00     0.239 C 
HETATM   21  H   UNL     1       5.317  34.573  46.148  1.00  0.00     0.279 HD
HETATM   22  C   UNL     1       6.857  33.258  45.882  1.00  0.00     0.270 C 
HETATM   23  C   UNL     1       4.490  31.284  46.431  1.00  0.00     0.068 C 
HETATM   24  H   UNL     1       5.381  29.710  51.961  1.00  0.00     0.162 HD
ENDBRANCH   5   7
BRANCH   1  25
HETATM   25  O   UNL     1       5.254  26.426  55.406  1.00  0.00    -0.349 OA
BRANCH  25  26
HETATM   26  C   UNL     1       5.421  27.717  55.990  1.00  0.00     0.171 C 
HETATM   27  C   UNL     1       6.874  27.863  56.402  1.00  0.00     0.034 C 
ENDBRANCH  25  26
ENDBRANCH   1  25
BRANCH   2  28
HETATM   28  O   UNL     1       6.147  24.107  54.319  1.00  0.00    -0.272 OA
BRANCH  28  29
HETATM   29  C   UNL     1       7.522  24.059  54.402  1.00  0.00     0.300 C 
HETATM   30  O   UNL     1       8.309  24.980  54.564  1.00  0.00    -0.259 OA
BRANCH  29  31
HETATM   31  C   UNL     1       7.945  22.648  54.346  1.00  0.00     0.061 A 
HETATM   32  C   UNL     1       8.327  21.923  55.481  1.00  0.00     0.050 A 
HETATM   33 CL   UNL     1       8.302  22.590  57.075  1.00  0.00    -0.083 Cl
HETATM   34  C   UNL     1       8.696  20.581  55.351  1.00  0.00     0.025 A 
HETATM   35  C   UNL     1       8.671  19.961  54.100  1.00  0.00     0.002 A 
HETATM   36  C   UNL     1       8.270  20.677  52.973  1.00  0.00     0.001 A 
HETATM   37  C   UNL     1       7.903  22.017  53.093  1.00  0.00     0.019 A 
ENDBRANCH  29  31
ENDBRANCH  28  29
ENDBRANCH   2  28
TORSDOF 6
ENDMDL
MODEL 7
REMARK VINA RESULT:      -9.2      6.735     11.124
REMARK  6 active torsions:
REMARK  status: ('A' for Active; 'I' for Inactive)
REMARK    1  A    between atoms: C_2  and  O_3 
REMARK    2  A    between atoms: O_3  and  C_4 
REMARK    3  A    between atoms: C_5  and  O_6 
REMARK    4  A    between atoms: O_6  and  C_7 
REMARK    5  A    between atoms: C_7  and  C_8 
REMARK    6  A    between atoms: C_18  and  C_19 
ROOT
HETATM    1  C   UNL     1       5.162  26.774  53.420  1.00  0.00     0.103 A 
HETATM    2  C   UNL     1       5.564  25.465  53.130  1.00  0.00     0.112 A 
HETATM    3  C   UNL     1       5.416  24.914  51.857  1.00  0.00     0.041 A 
HETATM    4  C   UNL     1       4.887  25.696  50.835  1.00  0.00     0.014 A 
HETATM    5  C   UNL     1       4.488  27.022  51.083  1.00  0.00    -0.013 A 
HETATM    6  C   UNL     1       4.626  27.548  52.384  1.00  0.00     0.050 A 
ENDROOT
BRANCH   5   7
HETATM    7  C   UNL     1       3.922  27.873  49.968  1.00  0.00     0.219 C 
HETATM    8  N   UNL     1       3.206  29.008  50.492  1.00  0.00    -0.332 N 
HETATM    9  C   UNL     1       2.336  29.740  49.727  1.00  0.00     0.256 C 
HETATM   10  H   UNL     1       3.622  29.514  51.260  1.00  0.00     0.165 HD
HETATM   11  O   UNL     1       2.007  30.882  50.027  1.00  0.00    -0.267 OA
HETATM   12  C   UNL     1       1.808  29.050  48.562  1.00  0.00     0.073 A 
HETATM   13  C   UNL     1       2.179  27.745  48.336  1.00  0.00     0.088 A 
HETATM   14  C   UNL     1       0.887  29.518  47.571  1.00  0.00    -0.023 A 
HETATM   15  S   UNL     1       1.432  27.076  46.965  1.00  0.00    -0.074 SA
HETATM   16  N   UNL     1       3.032  27.079  49.144  1.00  0.00    -0.358 N 
HETATM   17  C   UNL     1       0.596  28.525  46.652  1.00  0.00     0.018 A 
HETATM   18  C   UNL     1      -0.332  28.674  45.497  1.00  0.00     0.281 C 
HETATM   19  N   UNL     1      -1.224  29.900  45.656  1.00  0.00    -0.070 N 
HETATM   20  C   UNL     1      -0.430  31.112  46.140  1.00  0.00     0.239 C 
HETATM   21  H   UNL     1      -1.564  30.128  44.714  1.00  0.00     0.279 HD
HETATM   22  C   UNL     1      -2.446  29.621  46.485  1.00  0.00     0.270 C 
HETATM   23  C   UNL     1       0.239  30.869  47.504  1.00  0.00     0.068 C 
HETATM   24  H   UNL     1       3.408  26.180  48.854  1.00  0.00     0.162 HD
ENDBRANCH   5   7
BRANCH   1  25
HETATM   25  O   UNL     1       5.321  27.183  54.716  1.00  0.00    -0.349 OA
BRANCH  25  26
HETATM   26  C   UNL     1       6.445  28.009  55.012  1.00  0.00     0.171 C 
HETATM   27  C   UNL     1       7.120  27.459  56.256  1.00  0.00     0.034 C 
ENDBRANCH  25  26
ENDBRANCH   1  25
BRANCH   2  28
HETATM   28  O   UNL     1       6.087  24.646  54.135  1.00  0.00    -0.272 OA
BRANCH  28  29
HETATM   29  C   UNL     1       7.439  24.442  53.969  1.00  0.00     0.300 C 
HETATM   30  O   UNL     1       8.313  25.265  53.741  1.00  0.00    -0.259 OA
BRANCH  29  31
HETATM   31  C   UNL     1       7.727  23.014  54.197  1.00  0.00     0.061 A 
HETATM   32  C   UNL     1       7.989  22.484  55.466  1.00  0.00     0.050 A 
HETATM   33 CL   UNL     1       7.962  23.437  56.907  1.00  0.00    -0.083 Cl
HETATM   34  C   UNL     1       8.233  21.114  55.605  1.00  0.00     0.025 A 
HETATM   35  C   UNL     1       8.202  20.275  54.489  1.00  0.00     0.002 A 
HETATM   36  C   UNL     1       7.919  20.799  53.229  1.00  0.00     0.001 A 
HETATM   37  C   UNL     1       7.677  22.166  53.080  1.00  0.00     0.019 A 
ENDBRANCH  29  31
ENDBRANCH  28  29
ENDBRANCH   2  28
TORSDOF 6
ENDMDL
MODEL 8
REMARK VINA RESULT:      -9.2      4.011      4.661
REMARK  6 active torsions:
REMARK  status: ('A' for Active; 'I' for Inactive)
REMARK    1  A    between atoms: C_2  and  O_3 
REMARK    2  A    between atoms: O_3  and  C_4 
REMARK    3  A    between atoms: C_5  and  O_6 
REMARK    4  A    between atoms: O_6  and  C_7 
REMARK    5  A    between atoms: C_7  and  C_8 
REMARK    6  A    between atoms: C_18  and  C_19 
ROOT
HETATM    1  C   UNL     1       5.211  26.718  54.437  1.00  0.00     0.103 A 
HETATM    2  C   UNL     1       6.004  25.785  55.115  1.00  0.00     0.112 A 
HETATM    3  C   UNL     1       6.678  26.110  56.293  1.00  0.00     0.041 A 
HETATM    4  C   UNL     1       6.531  27.384  56.831  1.00  0.00     0.014 A 
HETATM    5  C   UNL     1       5.729  28.343  56.188  1.00  0.00    -0.013 A 
HETATM    6  C   UNL     1       5.076  27.998  54.986  1.00  0.00     0.050 A 
ENDROOT
BRANCH   5   7
HETATM    7  C   UNL     1       5.563  29.725  56.779  1.00  0.00     0.219 C 
HETATM    8  N   UNL     1       4.456  29.769  57.700  1.00  0.00    -0.332 N 
HETATM    9  C   UNL     1       3.896  30.948  58.114  1.00  0.00     0.256 C 
HETATM   10  H   UNL     1       4.353  29.001  58.349  1.00  0.00     0.165 HD
HETATM   11  O   UNL     1       3.223  31.027  59.136  1.00  0.00    -0.267 OA
HETATM   12  C   UNL     1       4.125  32.083  57.236  1.00  0.00     0.073 A 
HETATM   13  C   UNL     1       4.835  31.891  56.073  1.00  0.00     0.088 A 
HETATM   14  C   UNL     1       3.682  33.437  57.368  1.00  0.00    -0.023 A 
HETATM   15  S   UNL     1       4.966  33.305  55.140  1.00  0.00    -0.074 SA
HETATM   16  N   UNL     1       5.347  30.692  55.721  1.00  0.00    -0.358 N 
HETATM   17  C   UNL     1       4.069  34.198  56.279  1.00  0.00     0.018 A 
HETATM   18  C   UNL     1       3.765  35.644  56.093  1.00  0.00     0.281 C 
HETATM   19  N   UNL     1       2.653  36.102  57.031  1.00  0.00    -0.070 N 
HETATM   20  C   UNL     1       2.850  35.553  58.444  1.00  0.00     0.239 C 
HETATM   21  H   UNL     1       2.741  37.123  57.098  1.00  0.00     0.279 HD
HETATM   22  C   UNL     1       1.283  35.835  56.476  1.00  0.00     0.270 C 
HETATM   23  C   UNL     1       2.856  34.015  58.479  1.00  0.00     0.068 C 
HETATM   24  H   UNL     1       6.002  30.629  54.945  1.00  0.00     0.162 HD
ENDBRANCH   5   7
BRANCH   1  25
HETATM   25  O   UNL     1       4.637  26.290  53.271  1.00  0.00    -0.349 OA
BRANCH  25  26
HETATM   26  C   UNL     1       5.030  26.944  52.066  1.00  0.00     0.171 C 
HETATM   27  C   UNL     1       5.412  25.879  51.054  1.00  0.00     0.034 C 
ENDBRANCH  25  26
ENDBRANCH   1  25
BRANCH   2  28
HETATM   28  O   UNL     1       6.185  24.500  54.597  1.00  0.00    -0.272 OA
BRANCH  28  29
HETATM   29  C   UNL     1       7.396  24.379  53.951  1.00  0.00     0.300 C 
HETATM   30  O   UNL     1       8.050  25.245  53.388  1.00  0.00    -0.259 OA
BRANCH  29  31
HETATM   31  C   UNL     1       7.873  22.993  54.106  1.00  0.00     0.061 A 
HETATM   32  C   UNL     1       8.486  22.527  55.276  1.00  0.00     0.050 A 
HETATM   33 CL   UNL     1       8.712  23.512  56.677  1.00  0.00    -0.083 Cl
HETATM   34  C   UNL     1       8.892  21.191  55.356  1.00  0.00     0.025 A 
HETATM   35  C   UNL     1       8.677  20.322  54.284  1.00  0.00     0.002 A 
HETATM   36  C   UNL     1       8.047  20.782  53.129  1.00  0.00     0.001 A 
HETATM   37  C   UNL     1       7.640  22.113  53.039  1.00  0.00     0.019 A 
ENDBRANCH  29  31
ENDBRANCH  28  29
ENDBRANCH   2  28
TORSDOF 6
ENDMDL
MODEL 9
REMARK VINA RESULT:      -9.1      1.902      2.940
REMARK  6 active torsions:
REMARK  status: ('A' for Active; 'I' for Inactive)
REMARK    1  A    between atoms: C_2  and  O_3 
REMARK    2  A    between atoms: O_3  and  C_4 
REMARK    3  A    between atoms: C_5  and  O_6 
REMARK    4  A    between atoms: O_6  and  C_7 
REMARK    5  A    between atoms: C_7  and  C_8 
REMARK    6  A    between atoms: C_18  and  C_19 
ROOT
HETATM    1  C   UNL     1       7.131  28.922  56.648  1.00  0.00     0.103 A 
HETATM    2  C   UNL     1       5.922  28.388  56.187  1.00  0.00     0.112 A 
HETATM    3  C   UNL     1       4.692  28.946  56.533  1.00  0.00     0.041 A 
HETATM    4  C   UNL     1       4.662  30.086  57.329  1.00  0.00     0.014 A 
HETATM    5  C   UNL     1       5.856  30.663  57.797  1.00  0.00    -0.013 A 
HETATM    6  C   UNL     1       7.087  30.066  57.453  1.00  0.00     0.050 A 
ENDROOT
BRANCH   5   7
HETATM    7  C   UNL     1       5.822  31.908  58.654  1.00  0.00     0.219 C 
HETATM    8  N   UNL     1       6.717  31.792  59.777  1.00  0.00    -0.332 N 
HETATM    9  C   UNL     1       6.636  32.621  60.865  1.00  0.00     0.256 C 
HETATM   10  H   UNL     1       7.633  31.402  59.611  1.00  0.00     0.165 HD
HETATM   11  O   UNL     1       7.575  32.778  61.637  1.00  0.00    -0.267 OA
HETATM   12  C   UNL     1       5.347  33.267  61.055  1.00  0.00     0.073 A 
HETATM   13  C   UNL     1       4.325  32.982  60.179  1.00  0.00     0.088 A 
HETATM   14  C   UNL     1       4.930  34.175  62.080  1.00  0.00    -0.023 A 
HETATM   15  S   UNL     1       2.877  33.778  60.575  1.00  0.00    -0.074 SA
HETATM   16  N   UNL     1       4.473  32.140  59.134  1.00  0.00    -0.358 N 
HETATM   17  C   UNL     1       3.597  34.517  61.931  1.00  0.00     0.018 A 
HETATM   18  C   UNL     1       2.843  35.434  62.829  1.00  0.00     0.281 C 
HETATM   19  N   UNL     1       3.579  35.648  64.148  1.00  0.00    -0.070 N 
HETATM   20  C   UNL     1       5.073  35.878  63.924  1.00  0.00     0.239 C 
HETATM   21  H   UNL     1       3.204  36.518  64.544  1.00  0.00     0.279 HD
HETATM   22  C   UNL     1       3.287  34.570  65.153  1.00  0.00     0.270 C 
HETATM   23  C   UNL     1       5.751  34.687  63.225  1.00  0.00     0.068 C 
HETATM   24  H   UNL     1       3.752  32.086  58.420  1.00  0.00     0.162 HD
ENDBRANCH   5   7
BRANCH   1  25
HETATM   25  O   UNL     1       8.268  28.258  56.274  1.00  0.00    -0.349 OA
BRANCH  25  26
HETATM   26  C   UNL     1       9.492  28.650  56.893  1.00  0.00     0.171 C 
HETATM   27  C   UNL     1      10.198  29.624  55.968  1.00  0.00     0.034 C 
ENDBRANCH  25  26
ENDBRANCH   1  25
BRANCH   2  28
HETATM   28  O   UNL     1       5.914  27.235  55.397  1.00  0.00    -0.272 OA
BRANCH  28  29
HETATM   29  C   UNL     1       5.733  26.101  56.158  1.00  0.00     0.300 C 
HETATM   30  O   UNL     1       4.939  25.910  57.066  1.00  0.00    -0.259 OA
BRANCH  29  31
HETATM   31  C   UNL     1       6.630  25.048  55.647  1.00  0.00     0.061 A 
HETATM   32  C   UNL     1       6.428  24.407  54.419  1.00  0.00     0.050 A 
HETATM   33 CL   UNL     1       5.132  24.809  53.350  1.00  0.00    -0.083 Cl
HETATM   34  C   UNL     1       7.335  23.432  53.992  1.00  0.00     0.025 A 
HETATM   35  C   UNL     1       8.444  23.108  54.777  1.00  0.00     0.002 A 
HETATM   36  C   UNL     1       8.656  23.761  55.990  1.00  0.00     0.001 A 
HETATM   37  C   UNL     1       7.755  24.734  56.425  1.00  0.00     0.019 A 
ENDBRANCH  29  31
ENDBRANCH  28  29
ENDBRANCH   2  28
TORSDOF 6
ENDMDL
MODEL 10
REMARK VINA RESULT:      -9.1      2.765      3.870
REMARK  6 active torsions:
REMARK  status: ('A' for Active; 'I' for Inactive)
REMARK    1  A    between atoms: C_2  and  O_3 
REMARK    2  A    between atoms: O_3  and  C_4 
REMARK    3  A    between atoms: C_5  and  O_6 
REMARK    4  A    between atoms: O_6  and  C_7 
REMARK    5  A    between atoms: C_7  and  C_8 
REMARK    6  A    between atoms: C_18  and  C_19 
ROOT
HETATM    1  C   UNL     1       7.418  28.542  56.628  1.00  0.00     0.103 A 
HETATM    2  C   UNL     1       6.767  27.641  55.778  1.00  0.00     0.112 A 
HETATM    3  C   UNL     1       5.420  27.785  55.445  1.00  0.00     0.041 A 
HETATM    4  C   UNL     1       4.710  28.873  55.940  1.00  0.00     0.014 A 
HETATM    5  C   UNL     1       5.334  29.810  56.783  1.00  0.00    -0.013 A 
HETATM    6  C   UNL     1       6.691  29.629  57.124  1.00  0.00     0.050 A 
ENDROOT
BRANCH   5   7
HETATM    7  C   UNL     1       4.563  30.998  57.313  1.00  0.00     0.219 C 
HETATM    8  N   UNL     1       5.168  32.239  56.900  1.00  0.00    -0.332 N 
HETATM    9  C   UNL     1       4.870  33.433  57.502  1.00  0.00     0.256 C 
HETATM   10  H   UNL     1       5.483  32.314  55.944  1.00  0.00     0.165 HD
HETATM   11  O   UNL     1       5.082  34.509  56.954  1.00  0.00    -0.267 OA
HETATM   12  C   UNL     1       4.322  33.329  58.844  1.00  0.00     0.073 A 
HETATM   13  C   UNL     1       4.180  32.083  59.410  1.00  0.00     0.088 A 
HETATM   14  C   UNL     1       3.915  34.368  59.740  1.00  0.00    -0.023 A 
HETATM   15  S   UNL     1       3.576  32.146  60.996  1.00  0.00    -0.074 SA
HETATM   16  N   UNL     1       4.510  30.946  58.761  1.00  0.00    -0.358 N 
HETATM   17  C   UNL     1       3.498  33.846  60.953  1.00  0.00     0.018 A 
HETATM   18  C   UNL     1       3.019  34.649  62.111  1.00  0.00     0.281 C 
HETATM   19  N   UNL     1       3.402  36.118  61.964  1.00  0.00    -0.070 N 
HETATM   20  C   UNL     1       3.148  36.624  60.545  1.00  0.00     0.239 C 
HETATM   21  H   UNL     1       2.767  36.640  62.579  1.00  0.00     0.279 HD
HETATM   22  C   UNL     1       4.792  36.404  62.458  1.00  0.00     0.270 C 
HETATM   23  C   UNL     1       3.957  35.846  59.492  1.00  0.00     0.068 C 
HETATM   24  H   UNL     1       4.236  30.045  59.145  1.00  0.00     0.162 HD
ENDBRANCH   5   7
BRANCH   1  25
HETATM   25  O   UNL     1       8.728  28.267  56.912  1.00  0.00    -0.349 OA
BRANCH  25  26
HETATM   26  C   UNL     1       9.524  29.328  57.439  1.00  0.00     0.171 C 
HETATM   27  C   UNL     1      10.521  29.743  56.373  1.00  0.00     0.034 C 
ENDBRANCH  25  26
ENDBRANCH   1  25
BRANCH   2  28
HETATM   28  O   UNL     1       7.445  26.528  55.272  1.00  0.00    -0.272 OA
BRANCH  28  29
HETATM   29  C   UNL     1       7.076  25.371  55.922  1.00  0.00     0.300 C 
HETATM   30  O   UNL     1       6.417  25.247  56.944  1.00  0.00    -0.259 OA
BRANCH  29  31
HETATM   31  C   UNL     1       7.545  24.219  55.130  1.00  0.00     0.061 A 
HETATM   32  C   UNL     1       6.939  23.825  53.931  1.00  0.00     0.050 A 
HETATM   33 CL   UNL     1       5.605  24.670  53.229  1.00  0.00    -0.083 Cl
HETATM   34  C   UNL     1       7.454  22.735  53.223  1.00  0.00     0.025 A 
HETATM   35  C   UNL     1       8.574  22.050  53.700  1.00  0.00     0.002 A 
HETATM   36  C   UNL     1       9.189  22.456  54.883  1.00  0.00     0.001 A 
HETATM   37  C   UNL     1       8.681  23.542  55.597  1.00  0.00     0.019 A 
ENDBRANCH  29  31
ENDBRANCH  28  29
ENDBRANCH   2  28
TORSDOF 6
ENDMDL
