MODEL 1
REMARK VINA RESULT:     -10.7      0.000      0.000
REMARK  6 active torsions:
REMARK  status: ('A' for Active; 'I' for Inactive)
REMARK    1  A    between atoms: C_3  and  C_4 
REMARK    2  A    between atoms: C_4  and  C_5 
REMARK       I    between atoms: C_5  and  N_6 
REMARK    3  A    between atoms: N_6  and  C_7 
REMARK    4  A    between atoms: C_7  and  C_8 
REMARK    5  A    between atoms: C_8  and  C_9 
REMARK    6  A    between atoms: C_28  and  O_29 
ROOT
HETATM    1  C   UNL     1       7.308  28.096  56.520  1.00  0.00     0.222 C 
HETATM    2  N   UNL     1       7.409  28.652  57.777  1.00  0.00    -0.360 N 
HETATM    3  O   UNL     1       8.022  28.430  55.578  1.00  0.00    -0.273 OA
HETATM    4  H   UNL     1       6.857  28.267  58.541  1.00  0.00     0.162 HD
ENDROOT
BRANCH   1   5
HETATM    5  C   UNL     1       6.230  27.039  56.371  1.00  0.00     0.148 C 
BRANCH   5   6
HETATM    6  C   UNL     1       6.830  25.726  55.944  1.00  0.00     0.033 C 
HETATM    7  C   UNL     1       6.764  25.199  54.704  1.00  0.00    -0.036 C 
HETATM    8  C   UNL     1       6.124  25.900  53.532  1.00  0.00     0.050 C 
HETATM    9  C   UNL     1       7.326  23.853  54.468  1.00  0.00     0.005 A 
HETATM   10  C   UNL     1       7.753  23.090  55.560  1.00  0.00     0.099 A 
HETATM   11  C   UNL     1       7.408  23.269  53.198  1.00  0.00     0.017 A 
HETATM   12  O   UNL     1       7.800  23.670  56.845  1.00  0.00    -0.274 OA
HETATM   13  C   UNL     1       8.186  21.753  55.441  1.00  0.00     0.006 A 
HETATM   14  C   UNL     1       7.511  25.007  57.048  1.00  0.00     0.295 C 
HETATM   15  O   UNL     1       7.768  25.565  58.113  1.00  0.00    -0.259 OA
HETATM   16  C   UNL     1       8.574  20.957  56.654  1.00  0.00     0.054 C 
HETATM   17  C   UNL     1       8.264  21.218  54.152  1.00  0.00     0.074 A 
HETATM   18  C   UNL     1       7.883  21.965  53.041  1.00  0.00     0.038 A 
BRANCH  17  19
HETATM   19  O   UNL     1       8.713  19.955  53.890  1.00  0.00    -0.360 OA
HETATM   20  H   UNL     1       8.039  19.307  54.149  1.00  0.00     0.217 HD
ENDBRANCH  17  19
ENDBRANCH   5   6
ENDBRANCH   1   5
BRANCH   2  21
HETATM   21  C   UNL     1       8.327  29.750  58.029  1.00  0.00     0.127 C 
BRANCH  21  22
HETATM   22  C   UNL     1       7.630  30.924  58.723  1.00  0.00     0.060 C 
BRANCH  22  23
HETATM   23  C   UNL     1       8.062  31.109  60.143  1.00  0.00    -0.029 A 
HETATM   24  C   UNL     1       7.511  31.998  61.120  1.00  0.00    -0.000 A 
HETATM   25  C   UNL     1       8.258  31.849  62.291  1.00  0.00     0.043 A 
HETATM   26  C   UNL     1       6.447  32.924  61.116  1.00  0.00     0.038 A 
HETATM   27  C   UNL     1       8.004  32.580  63.456  1.00  0.00     0.032 A 
HETATM   28  N   UNL     1       9.221  30.900  62.038  1.00  0.00    -0.365 N 
HETATM   29  C   UNL     1       6.946  33.493  63.428  1.00  0.00     0.026 A 
HETATM   30  C   UNL     1       6.181  33.658  62.276  1.00  0.00     0.035 A 
HETATM   31 CL   UNL     1       4.883  34.792  62.277  1.00  0.00    -0.084 Cl
HETATM   32  H   UNL     1       9.912  30.589  62.706  1.00  0.00     0.165 HD
HETATM   33  C   UNL     1       9.112  30.449  60.752  1.00  0.00     0.096 A 
ENDBRANCH  22  23
ENDBRANCH  21  22
ENDBRANCH   2  21
TORSDOF 6
ENDMDL
MODEL 2
REMARK VINA RESULT:     -10.7      1.321      1.730
REMARK  6 active torsions:
REMARK  status: ('A' for Active; 'I' for Inactive)
REMARK    1  A    between atoms: C_3  and  C_4 
REMARK    2  A    between atoms: C_4  and  C_5 
REMARK       I    between atoms: C_5  and  N_6 
REMARK    3  A    between atoms: N_6  and  C_7 
REMARK    4  A    between atoms: C_7  and  C_8 
REMARK    5  A    between atoms: C_8  and  C_9 
REMARK    6  A    between atoms: C_28  and  O_29 
ROOT
HETATM    1  C   UNL     1       7.538  27.811  56.459  1.00  0.00     0.222 C 
HETATM    2  N   UNL     1       7.889  28.369  57.668  1.00  0.00    -0.360 N 
HETATM    3  O   UNL     1       8.007  28.183  55.385  1.00  0.00    -0.273 OA
HETATM    4  H   UNL     1       7.542  27.956  58.531  1.00  0.00     0.162 HD
ENDROOT
BRANCH   1   5
HETATM    5  C   UNL     1       6.508  26.701  56.539  1.00  0.00     0.148 C 
BRANCH   5   6
HETATM    6  C   UNL     1       7.082  25.405  56.033  1.00  0.00     0.033 C 
HETATM    7  C   UNL     1       6.906  24.898  54.796  1.00  0.00    -0.036 C 
HETATM    8  C   UNL     1       6.146  25.608  53.703  1.00  0.00     0.050 C 
HETATM    9  C   UNL     1       7.462  23.565  54.483  1.00  0.00     0.005 A 
HETATM   10  C   UNL     1       8.003  22.790  55.514  1.00  0.00     0.099 A 
HETATM   11  C   UNL     1       7.429  23.003  53.200  1.00  0.00     0.017 A 
HETATM   12  O   UNL     1       8.164  23.350  56.800  1.00  0.00    -0.274 OA
HETATM   13  C   UNL     1       8.441  21.464  55.331  1.00  0.00     0.006 A 
HETATM   14  C   UNL     1       7.877  24.679  57.054  1.00  0.00     0.295 C 
HETATM   15  O   UNL     1       8.227  25.223  58.099  1.00  0.00    -0.259 OA
HETATM   16  C   UNL     1       8.956  20.653  56.486  1.00  0.00     0.054 C 
HETATM   17  C   UNL     1       8.403  20.951  54.030  1.00  0.00     0.074 A 
HETATM   18  C   UNL     1       7.906  21.710  52.975  1.00  0.00     0.038 A 
BRANCH  17  19
HETATM   19  O   UNL     1       8.843  19.700  53.704  1.00  0.00    -0.360 OA
HETATM   20  H   UNL     1       9.466  19.755  52.962  1.00  0.00     0.217 HD
ENDBRANCH  17  19
ENDBRANCH   5   6
ENDBRANCH   1   5
BRANCH   2  21
HETATM   21  C   UNL     1       8.786  29.512  57.724  1.00  0.00     0.127 C 
BRANCH  21  22
HETATM   22  C   UNL     1       8.755  30.190  59.097  1.00  0.00     0.060 C 
BRANCH  22  23
HETATM   23  C   UNL     1       7.611  31.142  59.256  1.00  0.00    -0.029 A 
HETATM   24  C   UNL     1       7.267  31.914  60.411  1.00  0.00    -0.000 A 
HETATM   25  C   UNL     1       6.106  32.628  60.105  1.00  0.00     0.043 A 
HETATM   26  C   UNL     1       7.829  32.067  61.695  1.00  0.00     0.038 A 
HETATM   27  C   UNL     1       5.474  33.483  61.016  1.00  0.00     0.032 A 
HETATM   28  N   UNL     1       5.763  32.310  58.812  1.00  0.00    -0.365 N 
HETATM   29  C   UNL     1       6.050  33.617  62.282  1.00  0.00     0.026 A 
HETATM   30  C   UNL     1       7.209  32.920  62.613  1.00  0.00     0.035 A 
HETATM   31 CL   UNL     1       7.893  33.111  64.183  1.00  0.00    -0.084 Cl
HETATM   32  H   UNL     1       4.960  32.678  58.322  1.00  0.00     0.165 HD
HETATM   33  C   UNL     1       6.661  31.419  58.293  1.00  0.00     0.096 A 
ENDBRANCH  22  23
ENDBRANCH  21  22
ENDBRANCH   2  21
TORSDOF 6
ENDMDL
MODEL 3
REMARK VINA RESULT:     -10.5      3.109      4.159
REMARK  6 active torsions:
REMARK  status: ('A' for Active; 'I' for Inactive)
REMARK    1  A    between atoms: C_3  and  C_4 
REMARK    2  A    between atoms: C_4  and  C_5 
REMARK       I    between atoms: C_5  and  N_6 
REMARK    3  A    between atoms: N_6  and  C_7 
REMARK    4  A    between atoms: C_7  and  C_8 
REMARK    5  A    between atoms: C_8  and  C_9 
REMARK    6  A    between atoms: C_28  and  O_29 
ROOT
HETATM    1  C   UNL     1       6.251  27.440  54.181  1.00  0.00     0.222 C 
HETATM    2  N   UNL     1       6.334  28.746  54.612  1.00  0.00    -0.360 N 
HETATM    3  O   UNL     1       5.220  26.775  54.246  1.00  0.00    -0.273 OA
HETATM    4  H   UNL     1       7.186  29.277  54.444  1.00  0.00     0.162 HD
ENDROOT
BRANCH   1   5
HETATM    5  C   UNL     1       7.540  26.865  53.625  1.00  0.00     0.148 C 
BRANCH   5   6
HETATM    6  C   UNL     1       7.623  25.386  53.896  1.00  0.00     0.033 C 
HETATM    7  C   UNL     1       7.862  24.821  55.097  1.00  0.00    -0.036 C 
HETATM    8  C   UNL     1       8.019  25.608  56.374  1.00  0.00     0.050 C 
HETATM    9  C   UNL     1       8.004  23.352  55.180  1.00  0.00     0.005 A 
HETATM   10  C   UNL     1       8.060  22.603  54.001  1.00  0.00     0.099 A 
HETATM   11  C   UNL     1       8.141  22.663  56.392  1.00  0.00     0.017 A 
HETATM   12  O   UNL     1       7.813  23.229  52.760  1.00  0.00    -0.274 OA
HETATM   13  C   UNL     1       8.317  21.217  53.982  1.00  0.00     0.006 A 
HETATM   14  C   UNL     1       7.435  24.557  52.681  1.00  0.00     0.295 C 
HETATM   15  O   UNL     1       7.003  25.040  51.636  1.00  0.00    -0.259 OA
HETATM   16  C   UNL     1       8.429  20.470  52.684  1.00  0.00     0.054 C 
HETATM   17  C   UNL     1       8.432  20.570  55.216  1.00  0.00     0.074 A 
HETATM   18  C   UNL     1       8.343  21.281  56.409  1.00  0.00     0.038 A 
BRANCH  17  19
HETATM   19  O   UNL     1       8.631  19.226  55.343  1.00  0.00    -0.360 OA
HETATM   20  H   UNL     1       7.905  18.745  54.916  1.00  0.00     0.217 HD
ENDBRANCH  17  19
ENDBRANCH   5   6
ENDBRANCH   1   5
BRANCH   2  21
HETATM   21  C   UNL     1       5.202  29.384  55.263  1.00  0.00     0.127 C 
BRANCH  21  22
HETATM   22  C   UNL     1       5.126  29.022  56.750  1.00  0.00     0.060 C 
BRANCH  22  23
HETATM   23  C   UNL     1       5.769  30.042  57.637  1.00  0.00    -0.029 A 
HETATM   24  C   UNL     1       7.167  30.276  57.833  1.00  0.00    -0.000 A 
HETATM   25  C   UNL     1       7.291  31.301  58.774  1.00  0.00     0.043 A 
HETATM   26  C   UNL     1       8.343  29.705  57.305  1.00  0.00     0.038 A 
HETATM   27  C   UNL     1       8.527  31.783  59.219  1.00  0.00     0.032 A 
HETATM   28  N   UNL     1       6.017  31.681  59.129  1.00  0.00    -0.365 N 
HETATM   29  C   UNL     1       9.678  31.201  58.682  1.00  0.00     0.026 A 
HETATM   30  C   UNL     1       9.584  30.180  57.739  1.00  0.00     0.035 A 
HETATM   31 CL   UNL     1      11.025  29.486  57.096  1.00  0.00    -0.084 Cl
HETATM   32  H   UNL     1       5.798  32.405  59.799  1.00  0.00     0.165 HD
HETATM   33  C   UNL     1       5.097  30.932  58.451  1.00  0.00     0.096 A 
ENDBRANCH  22  23
ENDBRANCH  21  22
ENDBRANCH   2  21
TORSDOF 6
ENDMDL
MODEL 4
REMARK VINA RESULT:     -10.5      4.222     10.170
REMARK  6 active torsions:
REMARK  status: ('A' for Active; 'I' for Inactive)
REMARK    1  A    between atoms: C_3  and  C_4 
REMARK    2  A    between atoms: C_4  and  C_5 
REMARK       I    between atoms: C_5  and  N_6 
REMARK    3  A    between atoms: N_6  and  C_7 
REMARK    4  A    between atoms: C_7  and  C_8 
REMARK    5  A    between atoms: C_8  and  C_9 
REMARK    6  A    between atoms: C_28  and  O_29 
ROOT
HETATM    1  C   UNL     1       5.809  28.769  56.283  1.00  0.00     0.222 C 
HETATM    2  N   UNL     1       6.366  27.636  55.733  1.00  0.00    -0.360 N 
HETATM    3  O   UNL     1       4.648  28.823  56.681  1.00  0.00    -0.273 OA
HETATM    4  H   UNL     1       7.359  27.622  55.510  1.00  0.00     0.162 HD
ENDROOT
BRANCH   1   5
HETATM    5  C   UNL     1       6.733  29.970  56.351  1.00  0.00     0.148 C 
BRANCH   5   6
HETATM    6  C   UNL     1       6.984  30.367  57.781  1.00  0.00     0.033 C 
HETATM    7  C   UNL     1       6.439  31.430  58.407  1.00  0.00    -0.036 C 
HETATM    8  C   UNL     1       5.430  32.350  57.767  1.00  0.00     0.050 C 
HETATM    9  C   UNL     1       6.859  31.738  59.791  1.00  0.00     0.005 A 
HETATM   10  C   UNL     1       7.928  31.033  60.354  1.00  0.00     0.099 A 
HETATM   11  C   UNL     1       6.272  32.748  60.563  1.00  0.00     0.017 A 
HETATM   12  O   UNL     1       8.480  29.931  59.666  1.00  0.00    -0.274 OA
HETATM   13  C   UNL     1       8.474  31.343  61.615  1.00  0.00     0.006 A 
HETATM   14  C   UNL     1       7.940  29.472  58.479  1.00  0.00     0.295 C 
HETATM   15  O   UNL     1       8.269  28.389  58.000  1.00  0.00    -0.259 OA
HETATM   16  C   UNL     1       9.663  30.595  62.147  1.00  0.00     0.054 C 
HETATM   17  C   UNL     1       7.846  32.349  62.355  1.00  0.00     0.074 A 
HETATM   18  C   UNL     1       6.755  33.043  61.839  1.00  0.00     0.038 A 
BRANCH  17  19
HETATM   19  O   UNL     1       8.239  32.715  63.610  1.00  0.00    -0.360 OA
HETATM   20  H   UNL     1       9.207  32.681  63.673  1.00  0.00     0.217 HD
ENDBRANCH  17  19
ENDBRANCH   5   6
ENDBRANCH   1   5
BRANCH   2  21
HETATM   21  C   UNL     1       5.559  26.447  55.511  1.00  0.00     0.127 C 
BRANCH  21  22
HETATM   22  C   UNL     1       6.322  25.385  54.713  1.00  0.00     0.060 C 
BRANCH  22  23
HETATM   23  C   UNL     1       7.062  24.417  55.581  1.00  0.00    -0.029 A 
HETATM   24  C   UNL     1       7.597  23.141  55.214  1.00  0.00    -0.000 A 
HETATM   25  C   UNL     1       8.171  22.583  56.359  1.00  0.00     0.043 A 
HETATM   26  C   UNL     1       7.639  22.401  54.014  1.00  0.00     0.038 A 
HETATM   27  C   UNL     1       8.781  21.323  56.370  1.00  0.00     0.032 A 
HETATM   28  N   UNL     1       8.000  23.489  57.379  1.00  0.00    -0.365 N 
HETATM   29  C   UNL     1       8.809  20.609  55.170  1.00  0.00     0.026 A 
HETATM   30  C   UNL     1       8.248  21.142  54.012  1.00  0.00     0.035 A 
HETATM   31 CL   UNL     1       8.302  20.234  52.548  1.00  0.00    -0.084 Cl
HETATM   32  H   UNL     1       8.316  23.352  58.330  1.00  0.00     0.165 HD
HETATM   33  C   UNL     1       7.337  24.593  56.923  1.00  0.00     0.096 A 
ENDBRANCH  22  23
ENDBRANCH  21  22
ENDBRANCH   2  21
TORSDOF 6
ENDMDL
MODEL 5
REMARK VINA RESULT:     -10.3      6.326      8.577
REMARK  6 active torsions:
REMARK  status: ('A' for Active; 'I' for Inactive)
REMARK    1  A    between atoms: C_3  and  C_4 
REMARK    2  A    between atoms: C_4  and  C_5 
REMARK       I    between atoms: C_5  and  N_6 
REMARK    3  A    between atoms: N_6  and  C_7 
REMARK    4  A    between atoms: C_7  and  C_8 
REMARK    5  A    between atoms: C_8  and  C_9 
REMARK    6  A    between atoms: C_28  and  O_29 
ROOT
HETATM    1  C   UNL     1       5.785  27.076  54.408  1.00  0.00     0.222 C 
HETATM    2  N   UNL     1       5.267  27.563  53.229  1.00  0.00    -0.360 N 
HETATM    3  O   UNL     1       5.090  26.775  55.376  1.00  0.00    -0.273 OA
HETATM    4  H   UNL     1       5.882  27.702  52.430  1.00  0.00     0.162 HD
ENDROOT
BRANCH   1   5
HETATM    5  C   UNL     1       7.296  26.947  54.440  1.00  0.00     0.148 C 
BRANCH   5   6
HETATM    6  C   UNL     1       7.704  25.503  54.567  1.00  0.00     0.033 C 
HETATM    7  C   UNL     1       7.783  24.618  53.553  1.00  0.00    -0.036 C 
HETATM    8  C   UNL     1       7.529  24.976  52.110  1.00  0.00     0.050 C 
HETATM    9  C   UNL     1       8.111  23.209  53.857  1.00  0.00     0.005 A 
HETATM   10  C   UNL     1       8.163  22.792  55.191  1.00  0.00     0.099 A 
HETATM   11  C   UNL     1       8.326  22.242  52.868  1.00  0.00     0.017 A 
HETATM   12  O   UNL     1       8.068  23.745  56.228  1.00  0.00    -0.274 OA
HETATM   13  C   UNL     1       8.347  21.447  55.570  1.00  0.00     0.006 A 
HETATM   14  C   UNL     1       8.007  25.101  55.963  1.00  0.00     0.295 C 
HETATM   15  O   UNL     1       8.153  25.936  56.853  1.00  0.00    -0.259 OA
HETATM   16  C   UNL     1       8.331  21.042  57.016  1.00  0.00     0.054 C 
HETATM   17  C   UNL     1       8.571  20.519  54.548  1.00  0.00     0.074 A 
HETATM   18  C   UNL     1       8.564  20.909  53.212  1.00  0.00     0.038 A 
BRANCH  17  19
HETATM   19  O   UNL     1       8.812  19.195  54.776  1.00  0.00    -0.360 OA
HETATM   20  H   UNL     1       9.488  19.099  55.465  1.00  0.00     0.217 HD
ENDBRANCH  17  19
ENDBRANCH   5   6
ENDBRANCH   1   5
BRANCH   2  21
HETATM   21  C   UNL     1       3.844  27.835  53.102  1.00  0.00     0.127 C 
BRANCH  21  22
HETATM   22  C   UNL     1       3.581  29.105  52.287  1.00  0.00     0.060 C 
BRANCH  22  23
HETATM   23  C   UNL     1       4.391  29.176  51.031  1.00  0.00    -0.029 A 
HETATM   24  C   UNL     1       4.377  28.267  49.925  1.00  0.00    -0.000 A 
HETATM   25  C   UNL     1       5.322  28.719  49.001  1.00  0.00     0.043 A 
HETATM   26  C   UNL     1       3.653  27.095  49.625  1.00  0.00     0.038 A 
HETATM   27  C   UNL     1       5.587  28.059  47.795  1.00  0.00     0.032 A 
HETATM   28  N   UNL     1       5.883  29.862  49.521  1.00  0.00    -0.365 N 
HETATM   29  C   UNL     1       4.858  26.899  47.522  1.00  0.00     0.026 A 
HETATM   30  C   UNL     1       3.906  26.428  48.423  1.00  0.00     0.035 A 
HETATM   31 CL   UNL     1       3.024  24.994  48.052  1.00  0.00    -0.084 Cl
HETATM   32  H   UNL     1       6.603  30.408  49.068  1.00  0.00     0.165 HD
HETATM   33  C   UNL     1       5.330  30.146  50.738  1.00  0.00     0.096 A 
ENDBRANCH  22  23
ENDBRANCH  21  22
ENDBRANCH   2  21
TORSDOF 6
ENDMDL
MODEL 6
REMARK VINA RESULT:     -10.3      6.386      9.119
REMARK  6 active torsions:
REMARK  status: ('A' for Active; 'I' for Inactive)
REMARK    1  A    between atoms: C_3  and  C_4 
REMARK    2  A    between atoms: C_4  and  C_5 
REMARK       I    between atoms: C_5  and  N_6 
REMARK    3  A    between atoms: N_6  and  C_7 
REMARK    4  A    between atoms: C_7  and  C_8 
REMARK    5  A    between atoms: C_8  and  C_9 
REMARK    6  A    between atoms: C_28  and  O_29 
ROOT
HETATM    1  C   UNL     1       5.631  26.922  53.896  1.00  0.00     0.222 C 
HETATM    2  N   UNL     1       5.235  28.098  53.300  1.00  0.00    -0.360 N 
HETATM    3  O   UNL     1       4.871  25.975  54.088  1.00  0.00    -0.273 OA
HETATM    4  H   UNL     1       5.930  28.808  53.080  1.00  0.00     0.162 HD
ENDROOT
BRANCH   1   5
HETATM    5  C   UNL     1       7.086  26.876  54.321  1.00  0.00     0.148 C 
BRANCH   5   6
HETATM    6  C   UNL     1       7.548  25.452  54.484  1.00  0.00     0.033 C 
HETATM    7  C   UNL     1       7.733  24.568  53.483  1.00  0.00    -0.036 C 
HETATM    8  C   UNL     1       7.560  24.909  52.024  1.00  0.00     0.050 C 
HETATM    9  C   UNL     1       8.102  23.176  53.818  1.00  0.00     0.005 A 
HETATM   10  C   UNL     1       8.084  22.766  55.155  1.00  0.00     0.099 A 
HETATM   11  C   UNL     1       8.425  22.216  52.851  1.00  0.00     0.017 A 
HETATM   12  O   UNL     1       7.878  23.718  56.176  1.00  0.00    -0.274 OA
HETATM   13  C   UNL     1       8.301  21.432  55.553  1.00  0.00     0.006 A 
HETATM   14  C   UNL     1       7.775  25.069  55.899  1.00  0.00     0.295 C 
HETATM   15  O   UNL     1       7.825  25.913  56.792  1.00  0.00    -0.259 OA
HETATM   16  C   UNL     1       8.207  21.032  56.997  1.00  0.00     0.054 C 
HETATM   17  C   UNL     1       8.633  20.511  54.554  1.00  0.00     0.074 A 
HETATM   18  C   UNL     1       8.698  20.896  53.218  1.00  0.00     0.038 A 
BRANCH  17  19
HETATM   19  O   UNL     1       8.917  19.200  54.806  1.00  0.00    -0.360 OA
HETATM   20  H   UNL     1       8.759  19.005  55.743  1.00  0.00     0.217 HD
ENDBRANCH  17  19
ENDBRANCH   5   6
ENDBRANCH   1   5
BRANCH   2  21
HETATM   21  C   UNL     1       3.843  28.314  52.941  1.00  0.00     0.127 C 
BRANCH  21  22
HETATM   22  C   UNL     1       3.706  28.926  51.543  1.00  0.00     0.060 C 
BRANCH  22  23
HETATM   23  C   UNL     1       4.123  27.994  50.450  1.00  0.00    -0.029 A 
HETATM   24  C   UNL     1       3.359  27.575  49.315  1.00  0.00    -0.000 A 
HETATM   25  C   UNL     1       4.145  26.677  48.589  1.00  0.00     0.043 A 
HETATM   26  C   UNL     1       2.064  27.869  48.839  1.00  0.00     0.038 A 
HETATM   27  C   UNL     1       3.706  26.052  47.416  1.00  0.00     0.032 A 
HETATM   28  N   UNL     1       5.344  26.562  49.252  1.00  0.00    -0.365 N 
HETATM   29  C   UNL     1       2.419  26.359  46.965  1.00  0.00     0.026 A 
HETATM   30  C   UNL     1       1.615  27.254  47.666  1.00  0.00     0.035 A 
HETATM   31 CL   UNL     1       0.033  27.609  47.080  1.00  0.00    -0.084 Cl
HETATM   32  H   UNL     1       6.112  25.974  48.957  1.00  0.00     0.165 HD
HETATM   33  C   UNL     1       5.342  27.349  50.370  1.00  0.00     0.096 A 
ENDBRANCH  22  23
ENDBRANCH  21  22
ENDBRANCH   2  21
TORSDOF 6
ENDMDL
MODEL 7
REMARK VINA RESULT:     -10.1      2.475      3.165
REMARK  6 active torsions:
REMARK  status: ('A' for Active; 'I' for Inactive)
REMARK    1  A    between atoms: C_3  and  C_4 
REMARK    2  A    between atoms: C_4  and  C_5 
REMARK       I    between atoms: C_5  and  N_6 
REMARK    3  A    between atoms: N_6  and  C_7 
REMARK    4  A    between atoms: C_7  and  C_8 
REMARK    5  A    between atoms: C_8  and  C_9 
REMARK    6  A    between atoms: C_28  and  O_29 
ROOT
HETATM    1  C   UNL     1       6.090  27.283  55.385  1.00  0.00     0.222 C 
HETATM    2  N   UNL     1       6.282  28.428  56.126  1.00  0.00    -0.360 N 
HETATM    3  O   UNL     1       5.096  26.569  55.495  1.00  0.00    -0.273 OA
HETATM    4  H   UNL     1       7.077  29.030  55.922  1.00  0.00     0.162 HD
ENDROOT
BRANCH   1   5
HETATM    5  C   UNL     1       7.210  26.949  54.419  1.00  0.00     0.148 C 
BRANCH   5   6
HETATM    6  C   UNL     1       7.627  25.509  54.565  1.00  0.00     0.033 C 
HETATM    7  C   UNL     1       7.661  24.598  53.572  1.00  0.00    -0.036 C 
HETATM    8  C   UNL     1       7.341  24.917  52.133  1.00  0.00     0.050 C 
HETATM    9  C   UNL     1       8.006  23.198  53.898  1.00  0.00     0.005 A 
HETATM   10  C   UNL     1       8.120  22.816  55.238  1.00  0.00     0.099 A 
HETATM   11  C   UNL     1       8.178  22.205  52.925  1.00  0.00     0.017 A 
HETATM   12  O   UNL     1       8.070  23.796  56.253  1.00  0.00    -0.274 OA
HETATM   13  C   UNL     1       8.324  21.481  55.643  1.00  0.00     0.006 A 
HETATM   14  C   UNL     1       7.994  25.144  55.955  1.00  0.00     0.295 C 
HETATM   15  O   UNL     1       8.179  26.003  56.815  1.00  0.00    -0.259 OA
HETATM   16  C   UNL     1       8.375  21.115  57.099  1.00  0.00     0.054 C 
HETATM   17  C   UNL     1       8.503  20.527  54.637  1.00  0.00     0.074 A 
HETATM   18  C   UNL     1       8.434  20.882  53.293  1.00  0.00     0.038 A 
BRANCH  17  19
HETATM   19  O   UNL     1       8.757  19.210  54.888  1.00  0.00    -0.360 OA
HETATM   20  H   UNL     1       7.974  18.678  54.677  1.00  0.00     0.217 HD
ENDBRANCH  17  19
ENDBRANCH   5   6
ENDBRANCH   1   5
BRANCH   2  21
HETATM   21  C   UNL     1       5.336  28.806  57.163  1.00  0.00     0.127 C 
BRANCH  21  22
HETATM   22  C   UNL     1       5.029  30.307  57.131  1.00  0.00     0.060 C 
BRANCH  22  23
HETATM   23  C   UNL     1       5.739  31.075  58.200  1.00  0.00    -0.029 A 
HETATM   24  C   UNL     1       7.148  31.158  58.433  1.00  0.00    -0.000 A 
HETATM   25  C   UNL     1       7.340  31.961  59.560  1.00  0.00     0.043 A 
HETATM   26  C   UNL     1       8.283  30.617  57.793  1.00  0.00     0.038 A 
HETATM   27  C   UNL     1       8.605  32.248  60.086  1.00  0.00     0.032 A 
HETATM   28  N   UNL     1       6.096  32.357  59.990  1.00  0.00    -0.365 N 
HETATM   29  C   UNL     1       9.714  31.699  59.436  1.00  0.00     0.026 A 
HETATM   30  C   UNL     1       9.553  30.899  58.307  1.00  0.00     0.035 A 
HETATM   31 CL   UNL     1      10.943  30.241  57.530  1.00  0.00    -0.084 Cl
HETATM   32  H   UNL     1       5.925  32.947  60.793  1.00  0.00     0.165 HD
HETATM   33  C   UNL     1       5.128  31.832  59.181  1.00  0.00     0.096 A 
ENDBRANCH  22  23
ENDBRANCH  21  22
ENDBRANCH   2  21
TORSDOF 6
ENDMDL
MODEL 8
REMARK VINA RESULT:     -10.1      1.716      2.554
REMARK  6 active torsions:
REMARK  status: ('A' for Active; 'I' for Inactive)
REMARK    1  A    between atoms: C_3  and  C_4 
REMARK    2  A    between atoms: C_4  and  C_5 
REMARK       I    between atoms: C_5  and  N_6 
REMARK    3  A    between atoms: N_6  and  C_7 
REMARK    4  A    between atoms: C_7  and  C_8 
REMARK    5  A    between atoms: C_8  and  C_9 
REMARK    6  A    between atoms: C_28  and  O_29 
ROOT
HETATM    1  C   UNL     1       6.272  27.395  55.438  1.00  0.00     0.222 C 
HETATM    2  N   UNL     1       6.661  28.528  56.117  1.00  0.00    -0.360 N 
HETATM    3  O   UNL     1       5.181  26.854  55.602  1.00  0.00    -0.273 OA
HETATM    4  H   UNL     1       7.536  28.986  55.869  1.00  0.00     0.162 HD
ENDROOT
BRANCH   1   5
HETATM    5  C   UNL     1       7.300  26.842  54.469  1.00  0.00     0.148 C 
BRANCH   5   6
HETATM    6  C   UNL     1       7.420  25.348  54.616  1.00  0.00     0.033 C 
HETATM    7  C   UNL     1       7.898  24.702  55.699  1.00  0.00    -0.036 C 
HETATM    8  C   UNL     1       8.329  25.399  56.965  1.00  0.00     0.050 C 
HETATM    9  C   UNL     1       8.037  23.231  55.651  1.00  0.00     0.005 A 
HETATM   10  C   UNL     1       7.835  22.565  54.438  1.00  0.00     0.099 A 
HETATM   11  C   UNL     1       8.417  22.461  56.757  1.00  0.00     0.017 A 
HETATM   12  O   UNL     1       7.342  23.275  53.322  1.00  0.00    -0.274 OA
HETATM   13  C   UNL     1       8.066  21.185  54.271  1.00  0.00     0.006 A 
HETATM   14  C   UNL     1       6.971  24.604  53.414  1.00  0.00     0.295 C 
HETATM   15  O   UNL     1       6.336  25.156  52.519  1.00  0.00    -0.259 OA
HETATM   16  C   UNL     1       7.894  20.529  52.931  1.00  0.00     0.054 C 
HETATM   17  C   UNL     1       8.430  20.454  55.407  1.00  0.00     0.074 A 
HETATM   18  C   UNL     1       8.601  21.082  56.637  1.00  0.00     0.038 A 
BRANCH  17  19
HETATM   19  O   UNL     1       8.634  19.105  55.398  1.00  0.00    -0.360 OA
HETATM   20  H   UNL     1       7.804  18.649  55.191  1.00  0.00     0.217 HD
ENDBRANCH  17  19
ENDBRANCH   5   6
ENDBRANCH   1   5
BRANCH   2  21
HETATM   21  C   UNL     1       5.814  29.099  57.151  1.00  0.00     0.127 C 
BRANCH  21  22
HETATM   22  C   UNL     1       6.199  30.549  57.463  1.00  0.00     0.060 C 
BRANCH  22  23
HETATM   23  C   UNL     1       7.161  30.670  58.603  1.00  0.00    -0.029 A 
HETATM   24  C   UNL     1       7.067  31.530  59.742  1.00  0.00    -0.000 A 
HETATM   25  C   UNL     1       8.209  31.321  60.520  1.00  0.00     0.043 A 
HETATM   26  C   UNL     1       6.119  32.476  60.184  1.00  0.00     0.038 A 
HETATM   27  C   UNL     1       8.457  32.011  61.711  1.00  0.00     0.032 A 
HETATM   28  N   UNL     1       8.963  30.365  59.881  1.00  0.00    -0.365 N 
HETATM   29  C   UNL     1       7.504  32.945  62.127  1.00  0.00     0.026 A 
HETATM   30  C   UNL     1       6.354  33.170  61.375  1.00  0.00     0.035 A 
HETATM   31 CL   UNL     1       5.199  34.328  61.919  1.00  0.00    -0.084 Cl
HETATM   32  H   UNL     1       9.850  30.014  60.215  1.00  0.00     0.165 HD
HETATM   33  C   UNL     1       8.343  29.966  58.731  1.00  0.00     0.096 A 
ENDBRANCH  22  23
ENDBRANCH  21  22
ENDBRANCH   2  21
TORSDOF 6
ENDMDL
MODEL 9
REMARK VINA RESULT:     -10.0      4.328     10.324
REMARK  6 active torsions:
REMARK  status: ('A' for Active; 'I' for Inactive)
REMARK    1  A    between atoms: C_3  and  C_4 
REMARK    2  A    between atoms: C_4  and  C_5 
REMARK       I    between atoms: C_5  and  N_6 
REMARK    3  A    between atoms: N_6  and  C_7 
REMARK    4  A    between atoms: C_7  and  C_8 
REMARK    5  A    between atoms: C_8  and  C_9 
REMARK    6  A    between atoms: C_28  and  O_29 
ROOT
HETATM    1  C   UNL     1       5.978  28.859  56.424  1.00  0.00     0.222 C 
HETATM    2  N   UNL     1       6.755  27.867  55.868  1.00  0.00    -0.360 N 
HETATM    3  O   UNL     1       4.908  28.640  56.986  1.00  0.00    -0.273 OA
HETATM    4  H   UNL     1       7.677  28.097  55.502  1.00  0.00     0.162 HD
ENDROOT
BRANCH   1   5
HETATM    5  C   UNL     1       6.534  30.264  56.283  1.00  0.00     0.148 C 
BRANCH   5   6
HETATM    6  C   UNL     1       6.835  30.855  57.634  1.00  0.00     0.033 C 
HETATM    7  C   UNL     1       7.950  30.630  58.358  1.00  0.00    -0.036 C 
HETATM    8  C   UNL     1       9.104  29.787  57.875  1.00  0.00     0.050 C 
HETATM    9  C   UNL     1       8.055  31.215  59.712  1.00  0.00     0.005 A 
HETATM   10  C   UNL     1       6.937  31.838  60.275  1.00  0.00     0.099 A 
HETATM   11  C   UNL     1       9.213  31.133  60.494  1.00  0.00     0.017 A 
HETATM   12  O   UNL     1       5.783  32.049  59.491  1.00  0.00    -0.274 OA
HETATM   13  C   UNL     1       6.908  32.312  61.602  1.00  0.00     0.006 A 
HETATM   14  C   UNL     1       5.751  31.730  58.146  1.00  0.00     0.295 C 
HETATM   15  O   UNL     1       4.842  32.116  57.415  1.00  0.00    -0.259 OA
HETATM   16  C   UNL     1       5.660  32.917  62.180  1.00  0.00     0.054 C 
HETATM   17  C   UNL     1       8.092  32.221  62.340  1.00  0.00     0.074 A 
HETATM   18  C   UNL     1       9.234  31.642  61.795  1.00  0.00     0.038 A 
BRANCH  17  19
HETATM   19  O   UNL     1       8.218  32.687  63.617  1.00  0.00    -0.360 OA
HETATM   20  H   UNL     1       7.985  31.986  64.246  1.00  0.00     0.217 HD
ENDBRANCH  17  19
ENDBRANCH   5   6
ENDBRANCH   1   5
BRANCH   2  21
HETATM   21  C   UNL     1       6.288  26.490  55.840  1.00  0.00     0.127 C 
BRANCH  21  22
HETATM   22  C   UNL     1       7.255  25.580  55.075  1.00  0.00     0.060 C 
BRANCH  22  23
HETATM   23  C   UNL     1       7.739  24.421  55.888  1.00  0.00    -0.029 A 
HETATM   24  C   UNL     1       8.011  23.089  55.442  1.00  0.00    -0.000 A 
HETATM   25  C   UNL     1       8.407  22.347  56.558  1.00  0.00     0.043 A 
HETATM   26  C   UNL     1       7.949  22.439  54.192  1.00  0.00     0.038 A 
HETATM   27  C   UNL     1       8.739  20.989  56.492  1.00  0.00     0.032 A 
HETATM   28  N   UNL     1       8.386  23.198  57.638  1.00  0.00    -0.365 N 
HETATM   29  C   UNL     1       8.669  20.367  55.243  1.00  0.00     0.026 A 
HETATM   30  C   UNL     1       8.282  21.083  54.113  1.00  0.00     0.035 A 
HETATM   31 CL   UNL     1       8.208  20.284  52.588  1.00  0.00    -0.084 Cl
HETATM   32  H   UNL     1       8.625  22.934  58.584  1.00  0.00     0.165 HD
HETATM   33  C   UNL     1       7.987  24.446  57.247  1.00  0.00     0.096 A 
ENDBRANCH  22  23
ENDBRANCH  21  22
ENDBRANCH   2  21
TORSDOF 6
ENDMDL
MODEL 10
REMARK VINA RESULT:      -9.8      6.175      9.403
REMARK  6 active torsions:
REMARK  status: ('A' for Active; 'I' for Inactive)
REMARK    1  A    between atoms: C_3  and  C_4 
REMARK    2  A    between atoms: C_4  and  C_5 
REMARK       I    between atoms: C_5  and  N_6 
REMARK    3  A    between atoms: N_6  and  C_7 
REMARK    4  A    between atoms: C_7  and  C_8 
REMARK    5  A    between atoms: C_8  and  C_9 
REMARK    6  A    between atoms: C_28  and  O_29 
ROOT
HETATM    1  C   UNL     1       6.226  27.317  53.828  1.00  0.00     0.222 C 
HETATM    2  N   UNL     1       6.113  28.024  52.652  1.00  0.00    -0.360 N 
HETATM    3  O   UNL     1       5.267  27.055  54.551  1.00  0.00    -0.273 OA
HETATM    4  H   UNL     1       6.925  28.126  52.048  1.00  0.00     0.162 HD
ENDROOT
BRANCH   1   5
HETATM    5  C   UNL     1       7.636  26.887  54.185  1.00  0.00     0.148 C 
BRANCH   5   6
HETATM    6  C   UNL     1       7.714  25.391  54.335  1.00  0.00     0.033 C 
HETATM    7  C   UNL     1       7.941  24.729  55.488  1.00  0.00    -0.036 C 
HETATM    8  C   UNL     1       8.086  25.408  56.827  1.00  0.00     0.050 C 
HETATM    9  C   UNL     1       8.081  23.257  55.452  1.00  0.00     0.005 A 
HETATM   10  C   UNL     1       8.147  22.607  54.215  1.00  0.00     0.099 A 
HETATM   11  C   UNL     1       8.205  22.471  56.604  1.00  0.00     0.017 A 
HETATM   12  O   UNL     1       7.914  23.334  53.028  1.00  0.00    -0.274 OA
HETATM   13  C   UNL     1       8.403  21.227  54.085  1.00  0.00     0.006 A 
HETATM   14  C   UNL     1       7.538  24.664  53.054  1.00  0.00     0.295 C 
HETATM   15  O   UNL     1       7.117  25.232  52.048  1.00  0.00    -0.259 OA
HETATM   16  C   UNL     1       8.527  20.589  52.731  1.00  0.00     0.054 C 
HETATM   17  C   UNL     1       8.505  20.481  55.263  1.00  0.00     0.074 A 
HETATM   18  C   UNL     1       8.405  21.092  56.509  1.00  0.00     0.038 A 
BRANCH  17  19
HETATM   19  O   UNL     1       8.701  19.130  55.281  1.00  0.00    -0.360 OA
HETATM   20  H   UNL     1       7.965  18.698  55.742  1.00  0.00     0.217 HD
ENDBRANCH  17  19
ENDBRANCH   5   6
ENDBRANCH   1   5
BRANCH   2  21
HETATM   21  C   UNL     1       4.835  28.586  52.247  1.00  0.00     0.127 C 
BRANCH  21  22
HETATM   22  C   UNL     1       4.822  28.949  50.758  1.00  0.00     0.060 C 
BRANCH  22  23
HETATM   23  C   UNL     1       4.201  27.891  49.901  1.00  0.00    -0.029 A 
HETATM   24  C   UNL     1       3.152  28.044  48.940  1.00  0.00    -0.000 A 
HETATM   25  C   UNL     1       2.879  26.779  48.413  1.00  0.00     0.043 A 
HETATM   26  C   UNL     1       2.400  29.142  48.473  1.00  0.00     0.038 A 
HETATM   27  C   UNL     1       1.892  26.552  47.448  1.00  0.00     0.032 A 
HETATM   28  N   UNL     1       3.735  25.894  49.023  1.00  0.00    -0.365 N 
HETATM   29  C   UNL     1       1.158  27.655  47.002  1.00  0.00     0.026 A 
HETATM   30  C   UNL     1       1.412  28.928  47.506  1.00  0.00     0.035 A 
HETATM   31 CL   UNL     1       0.490  30.266  46.932  1.00  0.00    -0.084 Cl
HETATM   32  H   UNL     1       3.763  24.900  48.839  1.00  0.00     0.165 HD
HETATM   33  C   UNL     1       4.534  26.550  49.918  1.00  0.00     0.096 A 
ENDBRANCH  22  23
ENDBRANCH  21  22
ENDBRANCH   2  21
TORSDOF 6
ENDMDL
