MODEL 1
REMARK VINA RESULT:     -10.8      0.000      0.000
REMARK  7 active torsions:
REMARK  status: ('A' for Active; 'I' for Inactive)
REMARK    1  A    between atoms: C_6  and  C_7 
REMARK       I    between atoms: C_7  and  N_8 
REMARK    2  A    between atoms: N_8  and  C_9 
REMARK    3  A    between atoms: C_9  and  C_10 
REMARK       I    between atoms: C_10  and  N_11 
REMARK    4  A    between atoms: N_11  and  N_12 
REMARK       I    between atoms: N_12  and  C_13 
REMARK    5  A    between atoms: C_13  and  C_14 
REMARK    6  A    between atoms: C_14  and  N_15 
REMARK    7  A    between atoms: N_15  and  C_16 
ROOT
HETATM    1  C   UNL     1       7.557  28.191  57.484  1.00  0.00     0.253 C 
HETATM    2  N   UNL     1       7.536  29.500  57.914  1.00  0.00    -0.266 N 
HETATM    3  O   UNL     1       8.025  27.276  58.164  1.00  0.00    -0.270 OA
HETATM    4  H   UNL     1       7.164  30.270  57.360  1.00  0.00     0.190 HD
ENDROOT
BRANCH   2   5
HETATM    5  N   UNL     1       7.898  29.769  59.238  1.00  0.00    -0.266 N 
HETATM    6  C   UNL     1       8.296  31.058  59.547  1.00  0.00     0.258 C 
HETATM    7  O   UNL     1       8.555  31.902  58.685  1.00  0.00    -0.269 OA
HETATM    8  H   UNL     1       7.474  29.159  59.937  1.00  0.00     0.190 HD
BRANCH   6   9
HETATM    9  C   UNL     1       8.402  31.343  61.056  1.00  0.00     0.173 C 
HETATM   10  C   UNL     1       9.512  30.495  61.669  1.00  0.00     0.042 C 
BRANCH   9  11
HETATM   11  N   UNL     1       7.134  31.010  61.706  1.00  0.00    -0.356 N 
HETATM   12  H   UNL     1       6.472  30.524  61.101  1.00  0.00     0.162 HD
BRANCH  11  13
HETATM   13  C   UNL     1       6.644  31.812  62.673  1.00  0.00     0.168 A 
HETATM   14  S   UNL     1       4.996  32.299  62.632  1.00  0.00    -0.050 SA
HETATM   15  C   UNL     1       5.217  33.201  64.079  1.00  0.00     0.037 A 
HETATM   16  C   UNL     1       6.544  33.072  64.490  1.00  0.00     0.076 A 
HETATM   17  C   UNL     1       4.289  33.970  64.799  1.00  0.00     0.021 A 
HETATM   18  N   UNL     1       7.338  32.272  63.685  1.00  0.00    -0.223 NA
HETATM   19  C   UNL     1       6.961  33.745  65.656  1.00  0.00     0.033 A 
HETATM   20  C   UNL     1       6.047  34.519  66.378  1.00  0.00     0.002 A 
HETATM   21  C   UNL     1       4.727  34.625  65.954  1.00  0.00     0.002 A 
ENDBRANCH  11  13
ENDBRANCH   9  11
ENDBRANCH   6   9
ENDBRANCH   2   5
BRANCH   1  22
HETATM   22  C   UNL     1       7.030  27.979  56.070  1.00  0.00     0.227 C 
BRANCH  22  23
HETATM   23  N   UNL     1       7.455  26.681  55.585  1.00  0.00    -0.348 N 
HETATM   24  C   UNL     1       6.534  25.661  55.468  1.00  0.00     0.252 C 
HETATM   25  O   UNL     1       5.367  25.779  55.823  1.00  0.00    -0.268 OA
HETATM   26  H   UNL     1       8.278  26.659  54.996  1.00  0.00     0.163 HD
BRANCH  24  27
HETATM   27  C   UNL     1       7.016  24.404  54.833  1.00  0.00     0.032 A 
HETATM   28  C   UNL     1       7.210  23.277  55.641  1.00  0.00     0.024 A 
HETATM   29  C   UNL     1       7.665  22.065  55.095  1.00  0.00    -0.055 A 
HETATM   30  C   UNL     1       7.965  22.000  53.718  1.00  0.00    -0.056 A 
HETATM   31  C   UNL     1       7.862  20.882  56.002  1.00  0.00     0.049 C 
HETATM   32  C   UNL     1       8.463  20.732  53.081  1.00  0.00     0.049 C 
HETATM   33  C   UNL     1       7.770  23.136  52.917  1.00  0.00     0.008 A 
HETATM   34  C   UNL     1       7.303  24.332  53.467  1.00  0.00     0.017 A 
ENDBRANCH  24  27
ENDBRANCH  22  23
ENDBRANCH   1  22
TORSDOF 7
ENDMDL
MODEL 2
REMARK VINA RESULT:     -10.8      1.858      2.942
REMARK  7 active torsions:
REMARK  status: ('A' for Active; 'I' for Inactive)
REMARK    1  A    between atoms: C_6  and  C_7 
REMARK       I    between atoms: C_7  and  N_8 
REMARK    2  A    between atoms: N_8  and  C_9 
REMARK    3  A    between atoms: C_9  and  C_10 
REMARK       I    between atoms: C_10  and  N_11 
REMARK    4  A    between atoms: N_11  and  N_12 
REMARK       I    between atoms: N_12  and  C_13 
REMARK    5  A    between atoms: C_13  and  C_14 
REMARK    6  A    between atoms: C_14  and  N_15 
REMARK    7  A    between atoms: N_15  and  C_16 
ROOT
HETATM    1  C   UNL     1       6.420  28.399  54.655  1.00  0.00     0.253 C 
HETATM    2  N   UNL     1       7.703  28.758  55.008  1.00  0.00    -0.266 N 
HETATM    3  O   UNL     1       5.428  28.783  55.277  1.00  0.00    -0.270 OA
HETATM    4  H   UNL     1       8.534  28.440  54.511  1.00  0.00     0.190 HD
ENDROOT
BRANCH   2   5
HETATM    5  N   UNL     1       7.871  29.731  55.999  1.00  0.00    -0.266 N 
HETATM    6  C   UNL     1       8.385  29.326  57.217  1.00  0.00     0.258 C 
HETATM    7  O   UNL     1       8.490  28.139  57.537  1.00  0.00    -0.269 OA
HETATM    8  H   UNL     1       7.996  30.683  55.655  1.00  0.00     0.190 HD
BRANCH   6   9
HETATM    9  C   UNL     1       8.803  30.482  58.145  1.00  0.00     0.173 C 
HETATM   10  C   UNL     1      10.280  30.804  57.942  1.00  0.00     0.042 C 
BRANCH   9  11
HETATM   11  N   UNL     1       8.588  30.091  59.538  1.00  0.00    -0.356 N 
HETATM   12  H   UNL     1       8.330  29.112  59.660  1.00  0.00     0.162 HD
BRANCH  11  13
HETATM   13  C   UNL     1       8.111  30.991  60.422  1.00  0.00     0.168 A 
HETATM   14  S   UNL     1       6.939  32.146  59.925  1.00  0.00    -0.050 SA
HETATM   15  C   UNL     1       6.906  32.809  61.511  1.00  0.00     0.037 A 
HETATM   16  C   UNL     1       7.803  32.102  62.311  1.00  0.00     0.076 A 
HETATM   17  C   UNL     1       6.147  33.878  62.013  1.00  0.00     0.021 A 
HETATM   18  N   UNL     1       8.472  31.067  61.680  1.00  0.00    -0.223 NA
HETATM   19  C   UNL     1       7.956  32.484  63.659  1.00  0.00     0.033 A 
HETATM   20  C   UNL     1       7.210  33.552  64.169  1.00  0.00     0.002 A 
HETATM   21  C   UNL     1       6.314  34.236  63.354  1.00  0.00     0.002 A 
ENDBRANCH  11  13
ENDBRANCH   9  11
ENDBRANCH   6   9
ENDBRANCH   2   5
BRANCH   1  22
HETATM   22  C   UNL     1       6.332  27.427  53.484  1.00  0.00     0.227 C 
BRANCH  22  23
HETATM   23  N   UNL     1       6.511  26.072  53.968  1.00  0.00    -0.348 N 
HETATM   24  C   UNL     1       7.474  25.265  53.398  1.00  0.00     0.252 C 
HETATM   25  O   UNL     1       8.154  25.620  52.442  1.00  0.00    -0.268 OA
HETATM   26  H   UNL     1       6.224  25.883  54.920  1.00  0.00     0.163 HD
BRANCH  24  27
HETATM   27  C   UNL     1       7.691  23.940  54.040  1.00  0.00     0.032 A 
HETATM   28  C   UNL     1       7.911  22.827  53.219  1.00  0.00     0.024 A 
HETATM   29  C   UNL     1       8.119  21.552  53.772  1.00  0.00    -0.055 A 
HETATM   30  C   UNL     1       8.070  21.391  55.172  1.00  0.00    -0.056 A 
HETATM   31  C   UNL     1       8.348  20.384  52.851  1.00  0.00     0.049 C 
HETATM   32  C   UNL     1       8.277  20.049  55.818  1.00  0.00     0.049 C 
HETATM   33  C   UNL     1       7.847  22.514  55.986  1.00  0.00     0.008 A 
HETATM   34  C   UNL     1       7.655  23.779  55.427  1.00  0.00     0.017 A 
ENDBRANCH  24  27
ENDBRANCH  22  23
ENDBRANCH   1  22
TORSDOF 7
ENDMDL
MODEL 3
REMARK VINA RESULT:     -10.6      2.775     11.143
REMARK  7 active torsions:
REMARK  status: ('A' for Active; 'I' for Inactive)
REMARK    1  A    between atoms: C_6  and  C_7 
REMARK       I    between atoms: C_7  and  N_8 
REMARK    2  A    between atoms: N_8  and  C_9 
REMARK    3  A    between atoms: C_9  and  C_10 
REMARK       I    between atoms: C_10  and  N_11 
REMARK    4  A    between atoms: N_11  and  N_12 
REMARK       I    between atoms: N_12  and  C_13 
REMARK    5  A    between atoms: C_13  and  C_14 
REMARK    6  A    between atoms: C_14  and  N_15 
REMARK    7  A    between atoms: N_15  and  C_16 
ROOT
HETATM    1  C   UNL     1       8.828  28.835  56.590  1.00  0.00     0.253 C 
HETATM    2  N   UNL     1       8.191  29.279  55.451  1.00  0.00    -0.266 N 
HETATM    3  O   UNL     1       8.614  27.724  57.079  1.00  0.00    -0.270 OA
HETATM    4  H   UNL     1       8.348  30.199  55.039  1.00  0.00     0.190 HD
ENDROOT
BRANCH   2   5
HETATM    5  N   UNL     1       7.410  28.370  54.730  1.00  0.00    -0.266 N 
HETATM    6  C   UNL     1       6.035  28.499  54.810  1.00  0.00     0.258 C 
HETATM    7  O   UNL     1       5.479  29.219  55.644  1.00  0.00    -0.269 OA
HETATM    8  H   UNL     1       7.862  27.963  53.911  1.00  0.00     0.190 HD
BRANCH   6   9
HETATM    9  C   UNL     1       5.259  27.657  53.781  1.00  0.00     0.173 C 
HETATM   10  C   UNL     1       4.028  28.423  53.305  1.00  0.00     0.042 C 
BRANCH   9  11
HETATM   11  N   UNL     1       4.828  26.404  54.401  1.00  0.00    -0.356 N 
HETATM   12  H   UNL     1       4.162  26.524  55.163  1.00  0.00     0.162 HD
BRANCH  11  13
HETATM   13  C   UNL     1       5.676  25.356  54.455  1.00  0.00     0.168 A 
HETATM   14  S   UNL     1       6.297  24.830  55.969  1.00  0.00    -0.050 SA
HETATM   15  C   UNL     1       7.189  23.588  55.182  1.00  0.00     0.037 A 
HETATM   16  C   UNL     1       6.954  23.668  53.809  1.00  0.00     0.076 A 
HETATM   17  C   UNL     1       8.037  22.615  55.734  1.00  0.00     0.021 A 
HETATM   18  N   UNL     1       6.085  24.671  53.414  1.00  0.00    -0.223 NA
HETATM   19  C   UNL     1       7.599  22.750  52.956  1.00  0.00     0.033 A 
HETATM   20  C   UNL     1       8.452  21.780  53.494  1.00  0.00     0.002 A 
HETATM   21  C   UNL     1       8.663  21.714  54.867  1.00  0.00     0.002 A 
ENDBRANCH  11  13
ENDBRANCH   9  11
ENDBRANCH   6   9
ENDBRANCH   2   5
BRANCH   1  22
HETATM   22  C   UNL     1       9.754  29.857  57.239  1.00  0.00     0.227 C 
BRANCH  22  23
HETATM   23  N   UNL     1       9.218  30.242  58.530  1.00  0.00    -0.348 N 
HETATM   24  C   UNL     1       9.495  31.494  59.038  1.00  0.00     0.252 C 
HETATM   25  O   UNL     1      10.239  32.288  58.473  1.00  0.00    -0.268 OA
HETATM   26  H   UNL     1       8.375  29.772  58.835  1.00  0.00     0.163 HD
BRANCH  24  27
HETATM   27  C   UNL     1       8.797  31.866  60.299  1.00  0.00     0.032 A 
HETATM   28  C   UNL     1       7.516  32.424  60.215  1.00  0.00     0.024 A 
HETATM   29  C   UNL     1       6.812  32.795  61.374  1.00  0.00    -0.055 A 
HETATM   30  C   UNL     1       7.426  32.636  62.633  1.00  0.00    -0.056 A 
HETATM   31  C   UNL     1       5.439  33.393  61.236  1.00  0.00     0.049 C 
HETATM   32  C   UNL     1       6.725  33.025  63.906  1.00  0.00     0.049 C 
HETATM   33  C   UNL     1       8.714  32.079  62.706  1.00  0.00     0.008 A 
HETATM   34  C   UNL     1       9.398  31.700  61.549  1.00  0.00     0.017 A 
ENDBRANCH  24  27
ENDBRANCH  22  23
ENDBRANCH   1  22
TORSDOF 7
ENDMDL
MODEL 4
REMARK VINA RESULT:     -10.6      2.960     11.645
REMARK  7 active torsions:
REMARK  status: ('A' for Active; 'I' for Inactive)
REMARK    1  A    between atoms: C_6  and  C_7 
REMARK       I    between atoms: C_7  and  N_8 
REMARK    2  A    between atoms: N_8  and  C_9 
REMARK    3  A    between atoms: C_9  and  C_10 
REMARK       I    between atoms: C_10  and  N_11 
REMARK    4  A    between atoms: N_11  and  N_12 
REMARK       I    between atoms: N_12  and  C_13 
REMARK    5  A    between atoms: C_13  and  C_14 
REMARK    6  A    between atoms: C_14  and  N_15 
REMARK    7  A    between atoms: N_15  and  C_16 
ROOT
HETATM    1  C   UNL     1       8.173  28.876  57.286  1.00  0.00     0.253 C 
HETATM    2  N   UNL     1       7.506  29.334  56.170  1.00  0.00    -0.266 N 
HETATM    3  O   UNL     1       7.913  27.795  57.818  1.00  0.00    -0.270 OA
HETATM    4  H   UNL     1       7.701  30.230  55.725  1.00  0.00     0.190 HD
ENDROOT
BRANCH   2   5
HETATM    5  N   UNL     1       6.629  28.462  55.517  1.00  0.00    -0.266 N 
HETATM    6  C   UNL     1       7.071  27.856  54.354  1.00  0.00     0.258 C 
HETATM    7  O   UNL     1       8.093  28.213  53.762  1.00  0.00    -0.269 OA
HETATM    8  H   UNL     1       5.928  28.024  56.115  1.00  0.00     0.190 HD
BRANCH   6   9
HETATM    9  C   UNL     1       6.173  26.709  53.856  1.00  0.00     0.173 C 
HETATM   10  C   UNL     1       4.779  27.241  53.538  1.00  0.00     0.042 C 
BRANCH   9  11
HETATM   11  N   UNL     1       6.066  25.687  54.898  1.00  0.00    -0.356 N 
HETATM   12  H   UNL     1       6.035  26.061  55.846  1.00  0.00     0.162 HD
BRANCH  11  13
HETATM   13  C   UNL     1       6.625  24.474  54.709  1.00  0.00     0.168 A 
HETATM   14  S   UNL     1       6.969  23.926  53.116  1.00  0.00    -0.050 SA
HETATM   15  C   UNL     1       7.597  22.455  53.749  1.00  0.00     0.037 A 
HETATM   16  C   UNL     1       7.492  22.484  55.140  1.00  0.00     0.076 A 
HETATM   17  C   UNL     1       8.139  21.353  53.068  1.00  0.00     0.021 A 
HETATM   18  N   UNL     1       6.947  23.642  55.669  1.00  0.00    -0.223 NA
HETATM   19  C   UNL     1       7.935  21.368  55.876  1.00  0.00     0.033 A 
HETATM   20  C   UNL     1       8.472  20.261  55.209  1.00  0.00     0.002 A 
HETATM   21  C   UNL     1       8.574  20.259  53.822  1.00  0.00     0.002 A 
ENDBRANCH  11  13
ENDBRANCH   9  11
ENDBRANCH   6   9
ENDBRANCH   2   5
BRANCH   1  22
HETATM   22  C   UNL     1       9.198  29.850  57.856  1.00  0.00     0.227 C 
BRANCH  22  23
HETATM   23  N   UNL     1       8.753  30.313  59.156  1.00  0.00    -0.348 N 
HETATM   24  C   UNL     1       9.019  31.609  59.546  1.00  0.00     0.252 C 
HETATM   25  O   UNL     1       9.682  32.383  58.865  1.00  0.00    -0.268 OA
HETATM   26  H   UNL     1       7.958  29.839  59.564  1.00  0.00     0.163 HD
BRANCH  24  27
HETATM   27  C   UNL     1       8.411  32.052  60.831  1.00  0.00     0.032 A 
HETATM   28  C   UNL     1       7.304  32.908  60.787  1.00  0.00     0.024 A 
HETATM   29  C   UNL     1       6.691  33.358  61.969  1.00  0.00    -0.055 A 
HETATM   30  C   UNL     1       7.227  32.968  63.214  1.00  0.00    -0.056 A 
HETATM   31  C   UNL     1       5.506  34.280  61.874  1.00  0.00     0.049 C 
HETATM   32  C   UNL     1       6.619  33.427  64.511  1.00  0.00     0.049 C 
HETATM   33  C   UNL     1       8.339  32.111  63.247  1.00  0.00     0.008 A 
HETATM   34  C   UNL     1       8.931  31.658  62.066  1.00  0.00     0.017 A 
ENDBRANCH  24  27
ENDBRANCH  22  23
ENDBRANCH   1  22
TORSDOF 7
ENDMDL
MODEL 5
REMARK VINA RESULT:     -10.4      2.837      4.664
REMARK  7 active torsions:
REMARK  status: ('A' for Active; 'I' for Inactive)
REMARK    1  A    between atoms: C_6  and  C_7 
REMARK       I    between atoms: C_7  and  N_8 
REMARK    2  A    between atoms: N_8  and  C_9 
REMARK    3  A    between atoms: C_9  and  C_10 
REMARK       I    between atoms: C_10  and  N_11 
REMARK    4  A    between atoms: N_11  and  N_12 
REMARK       I    between atoms: N_12  and  C_13 
REMARK    5  A    between atoms: C_13  and  C_14 
REMARK    6  A    between atoms: C_14  and  N_15 
REMARK    7  A    between atoms: N_15  and  C_16 
ROOT
HETATM    1  C   UNL     1       4.348  27.434  53.268  1.00  0.00     0.253 C 
HETATM    2  N   UNL     1       4.614  27.078  54.573  1.00  0.00    -0.266 N 
HETATM    3  O   UNL     1       3.642  28.401  52.974  1.00  0.00    -0.270 OA
HETATM    4  H   UNL     1       5.186  26.275  54.833  1.00  0.00     0.190 HD
ENDROOT
BRANCH   2   5
HETATM    5  N   UNL     1       4.214  27.948  55.592  1.00  0.00    -0.266 N 
HETATM    6  C   UNL     1       5.195  28.689  56.226  1.00  0.00     0.258 C 
HETATM    7  O   UNL     1       6.399  28.459  56.090  1.00  0.00    -0.269 OA
HETATM    8  H   UNL     1       3.251  28.279  55.528  1.00  0.00     0.190 HD
BRANCH   6   9
HETATM    9  C   UNL     1       4.655  29.816  57.126  1.00  0.00     0.173 C 
HETATM   10  C   UNL     1       3.329  30.331  56.575  1.00  0.00     0.042 C 
BRANCH   9  11
HETATM   11  N   UNL     1       5.617  30.918  57.157  1.00  0.00    -0.356 N 
HETATM   12  H   UNL     1       6.064  31.106  56.260  1.00  0.00     0.162 HD
BRANCH  11  13
HETATM   13  C   UNL     1       6.318  31.166  58.282  1.00  0.00     0.168 A 
HETATM   14  S   UNL     1       5.771  32.360  59.390  1.00  0.00    -0.050 SA
HETATM   15  C   UNL     1       7.116  32.040  60.413  1.00  0.00     0.037 A 
HETATM   16  C   UNL     1       7.897  31.043  59.829  1.00  0.00     0.076 A 
HETATM   17  C   UNL     1       7.460  32.629  61.641  1.00  0.00     0.021 A 
HETATM   18  N   UNL     1       7.425  30.551  58.624  1.00  0.00    -0.223 NA
HETATM   19  C   UNL     1       9.070  30.627  60.489  1.00  0.00     0.033 A 
HETATM   20  C   UNL     1       9.427  31.210  61.709  1.00  0.00     0.002 A 
HETATM   21  C   UNL     1       8.627  32.196  62.277  1.00  0.00     0.002 A 
ENDBRANCH  11  13
ENDBRANCH   9  11
ENDBRANCH   6   9
ENDBRANCH   2   5
BRANCH   1  22
HETATM   22  C   UNL     1       4.929  26.490  52.222  1.00  0.00     0.227 C 
BRANCH  22  23
HETATM   23  N   UNL     1       5.396  25.280  52.869  1.00  0.00    -0.348 N 
HETATM   24  C   UNL     1       6.729  24.934  52.789  1.00  0.00     0.252 C 
HETATM   25  O   UNL     1       7.540  25.574  52.130  1.00  0.00    -0.268 OA
HETATM   26  H   UNL     1       4.856  24.943  53.657  1.00  0.00     0.163 HD
BRANCH  24  27
HETATM   27  C   UNL     1       7.157  23.758  53.594  1.00  0.00     0.032 A 
HETATM   28  C   UNL     1       7.623  22.621  52.923  1.00  0.00     0.024 A 
HETATM   29  C   UNL     1       8.038  21.481  53.633  1.00  0.00    -0.055 A 
HETATM   30  C   UNL     1       7.948  21.476  55.040  1.00  0.00    -0.056 A 
HETATM   31  C   UNL     1       8.529  20.282  52.869  1.00  0.00     0.049 C 
HETATM   32  C   UNL     1       8.369  20.282  55.852  1.00  0.00     0.049 C 
HETATM   33  C   UNL     1       7.476  22.620  55.704  1.00  0.00     0.008 A 
HETATM   34  C   UNL     1       7.079  23.753  54.989  1.00  0.00     0.017 A 
ENDBRANCH  24  27
ENDBRANCH  22  23
ENDBRANCH   1  22
TORSDOF 7
ENDMDL
MODEL 6
REMARK VINA RESULT:      -9.9      2.471     11.992
REMARK  7 active torsions:
REMARK  status: ('A' for Active; 'I' for Inactive)
REMARK    1  A    between atoms: C_6  and  C_7 
REMARK       I    between atoms: C_7  and  N_8 
REMARK    2  A    between atoms: N_8  and  C_9 
REMARK    3  A    between atoms: C_9  and  C_10 
REMARK       I    between atoms: C_10  and  N_11 
REMARK    4  A    between atoms: N_11  and  N_12 
REMARK       I    between atoms: N_12  and  C_13 
REMARK    5  A    between atoms: C_13  and  C_14 
REMARK    6  A    between atoms: C_14  and  N_15 
REMARK    7  A    between atoms: N_15  and  C_16 
ROOT
HETATM    1  C   UNL     1       8.703  30.945  59.201  1.00  0.00     0.253 C 
HETATM    2  N   UNL     1       8.034  29.756  59.403  1.00  0.00    -0.266 N 
HETATM    3  O   UNL     1       8.770  31.489  58.098  1.00  0.00    -0.270 OA
HETATM    4  H   UNL     1       7.978  29.287  60.306  1.00  0.00     0.190 HD
ENDROOT
BRANCH   2   5
HETATM    5  N   UNL     1       7.258  29.246  58.357  1.00  0.00    -0.266 N 
HETATM    6  C   UNL     1       7.842  28.313  57.520  1.00  0.00     0.258 C 
HETATM    7  O   UNL     1       9.055  28.083  57.517  1.00  0.00    -0.269 OA
HETATM    8  H   UNL     1       6.250  29.267  58.514  1.00  0.00     0.190 HD
BRANCH   6   9
HETATM    9  C   UNL     1       6.853  27.596  56.582  1.00  0.00     0.173 C 
HETATM   10  C   UNL     1       5.499  28.296  56.621  1.00  0.00     0.042 C 
BRANCH   9  11
HETATM   11  N   UNL     1       6.685  26.210  57.020  1.00  0.00    -0.356 N 
HETATM   12  H   UNL     1       6.840  26.066  58.017  1.00  0.00     0.162 HD
BRANCH  11  13
HETATM   13  C   UNL     1       6.982  25.199  56.177  1.00  0.00     0.168 A 
HETATM   14  S   UNL     1       7.060  25.486  54.484  1.00  0.00    -0.050 SA
HETATM   15  C   UNL     1       7.454  23.834  54.213  1.00  0.00     0.037 A 
HETATM   16  C   UNL     1       7.492  23.175  55.442  1.00  0.00     0.076 A 
HETATM   17  C   UNL     1       7.709  23.167  53.004  1.00  0.00     0.021 A 
HETATM   18  N   UNL     1       7.231  23.966  56.547  1.00  0.00    -0.223 NA
HETATM   19  C   UNL     1       7.782  21.796  55.462  1.00  0.00     0.033 A 
HETATM   20  C   UNL     1       8.031  21.119  54.263  1.00  0.00     0.002 A 
HETATM   21  C   UNL     1       7.998  21.800  53.051  1.00  0.00     0.002 A 
ENDBRANCH  11  13
ENDBRANCH   9  11
ENDBRANCH   6   9
ENDBRANCH   2   5
BRANCH   1  22
HETATM   22  C   UNL     1       9.420  31.486  60.432  1.00  0.00     0.227 C 
BRANCH  22  23
HETATM   23  N   UNL     1       8.536  32.384  61.150  1.00  0.00    -0.348 N 
HETATM   24  C   UNL     1       8.064  32.027  62.395  1.00  0.00     0.252 C 
HETATM   25  O   UNL     1       8.304  30.939  62.907  1.00  0.00    -0.268 OA
HETATM   26  H   UNL     1       8.597  33.368  60.920  1.00  0.00     0.163 HD
BRANCH  24  27
HETATM   27  C   UNL     1       7.278  33.058  63.126  1.00  0.00     0.032 A 
HETATM   28  C   UNL     1       7.368  33.103  64.523  1.00  0.00     0.024 A 
HETATM   29  C   UNL     1       6.646  34.055  65.263  1.00  0.00    -0.055 A 
HETATM   30  C   UNL     1       5.791  34.950  64.587  1.00  0.00    -0.056 A 
HETATM   31  C   UNL     1       6.772  34.064  66.762  1.00  0.00     0.049 C 
HETATM   32  C   UNL     1       4.988  35.982  65.329  1.00  0.00     0.049 C 
HETATM   33  C   UNL     1       5.705  34.894  63.186  1.00  0.00     0.008 A 
HETATM   34  C   UNL     1       6.438  33.954  62.459  1.00  0.00     0.017 A 
ENDBRANCH  24  27
ENDBRANCH  22  23
ENDBRANCH   1  22
TORSDOF 7
ENDMDL
MODEL 7
REMARK VINA RESULT:      -9.9      1.633      2.025
REMARK  7 active torsions:
REMARK  status: ('A' for Active; 'I' for Inactive)
REMARK    1  A    between atoms: C_6  and  C_7 
REMARK       I    between atoms: C_7  and  N_8 
REMARK    2  A    between atoms: N_8  and  C_9 
REMARK    3  A    between atoms: C_9  and  C_10 
REMARK       I    between atoms: C_10  and  N_11 
REMARK    4  A    between atoms: N_11  and  N_12 
REMARK       I    between atoms: N_12  and  C_13 
REMARK    5  A    between atoms: C_13  and  C_14 
REMARK    6  A    between atoms: C_14  and  N_15 
REMARK    7  A    between atoms: N_15  and  C_16 
ROOT
HETATM    1  C   UNL     1       7.959  28.591  57.632  1.00  0.00     0.253 C 
HETATM    2  N   UNL     1       8.425  29.803  58.094  1.00  0.00    -0.266 N 
HETATM    3  O   UNL     1       7.731  27.639  58.379  1.00  0.00    -0.270 OA
HETATM    4  H   UNL     1       8.629  30.598  57.489  1.00  0.00     0.190 HD
ENDROOT
BRANCH   2   5
HETATM    5  N   UNL     1       8.471  30.012  59.477  1.00  0.00    -0.266 N 
HETATM    6  C   UNL     1       8.536  31.318  59.927  1.00  0.00     0.258 C 
HETATM    7  O   UNL     1       8.775  32.271  59.182  1.00  0.00    -0.269 OA
HETATM    8  H   UNL     1       8.056  29.271  60.042  1.00  0.00     0.190 HD
BRANCH   6   9
HETATM    9  C   UNL     1       8.299  31.478  61.440  1.00  0.00     0.173 C 
HETATM   10  C   UNL     1       9.093  30.425  62.206  1.00  0.00     0.042 C 
BRANCH   9  11
HETATM   11  N   UNL     1       6.876  31.306  61.731  1.00  0.00    -0.356 N 
HETATM   12  H   UNL     1       6.447  30.513  61.256  1.00  0.00     0.162 HD
BRANCH  11  13
HETATM   13  C   UNL     1       6.108  32.385  61.990  1.00  0.00     0.168 A 
HETATM   14  S   UNL     1       5.402  32.584  63.544  1.00  0.00    -0.050 SA
HETATM   15  C   UNL     1       4.677  34.058  63.036  1.00  0.00     0.037 A 
HETATM   16  C   UNL     1       5.022  34.292  61.705  1.00  0.00     0.076 A 
HETATM   17  C   UNL     1       3.860  34.943  63.758  1.00  0.00     0.021 A 
HETATM   18  N   UNL     1       5.843  33.337  61.129  1.00  0.00    -0.223 NA
HETATM   19  C   UNL     1       4.523  35.446  61.068  1.00  0.00     0.033 A 
HETATM   20  C   UNL     1       3.703  36.332  61.775  1.00  0.00     0.002 A 
HETATM   21  C   UNL     1       3.380  36.082  63.105  1.00  0.00     0.002 A 
ENDBRANCH  11  13
ENDBRANCH   9  11
ENDBRANCH   6   9
ENDBRANCH   2   5
BRANCH   1  22
HETATM   22  C   UNL     1       7.826  28.500  56.116  1.00  0.00     0.227 C 
BRANCH  22  23
HETATM   23  N   UNL     1       7.874  27.109  55.710  1.00  0.00    -0.348 N 
HETATM   24  C   UNL     1       7.273  26.720  54.531  1.00  0.00     0.252 C 
HETATM   25  O   UNL     1       6.631  27.494  53.829  1.00  0.00    -0.268 OA
HETATM   26  H   UNL     1       8.640  26.553  56.068  1.00  0.00     0.163 HD
BRANCH  24  27
HETATM   27  C   UNL     1       7.484  25.307  54.114  1.00  0.00     0.032 A 
HETATM   28  C   UNL     1       7.543  24.319  55.105  1.00  0.00     0.024 A 
HETATM   29  C   UNL     1       7.742  22.969  54.768  1.00  0.00    -0.055 A 
HETATM   30  C   UNL     1       7.921  22.616  53.414  1.00  0.00    -0.056 A 
HETATM   31  C   UNL     1       7.802  21.943  55.865  1.00  0.00     0.049 C 
HETATM   32  C   UNL     1       8.147  21.190  52.996  1.00  0.00     0.049 C 
HETATM   33  C   UNL     1       7.863  23.616  52.429  1.00  0.00     0.008 A 
HETATM   34  C   UNL     1       7.650  24.952  52.773  1.00  0.00     0.017 A 
ENDBRANCH  24  27
ENDBRANCH  22  23
ENDBRANCH   1  22
TORSDOF 7
ENDMDL
MODEL 8
REMARK VINA RESULT:      -9.9      3.361     11.373
REMARK  7 active torsions:
REMARK  status: ('A' for Active; 'I' for Inactive)
REMARK    1  A    between atoms: C_6  and  C_7 
REMARK       I    between atoms: C_7  and  N_8 
REMARK    2  A    between atoms: N_8  and  C_9 
REMARK    3  A    between atoms: C_9  and  C_10 
REMARK       I    between atoms: C_10  and  N_11 
REMARK    4  A    between atoms: N_11  and  N_12 
REMARK       I    between atoms: N_12  and  C_13 
REMARK    5  A    between atoms: C_13  and  C_14 
REMARK    6  A    between atoms: C_14  and  N_15 
REMARK    7  A    between atoms: N_15  and  C_16 
ROOT
HETATM    1  C   UNL     1       3.834  30.512  56.530  1.00  0.00     0.253 C 
HETATM    2  N   UNL     1       3.930  29.361  57.284  1.00  0.00    -0.266 N 
HETATM    3  O   UNL     1       4.102  30.542  55.328  1.00  0.00    -0.270 OA
HETATM    4  H   UNL     1       3.723  29.320  58.281  1.00  0.00     0.190 HD
ENDROOT
BRANCH   2   5
HETATM    5  N   UNL     1       4.170  28.153  56.621  1.00  0.00    -0.266 N 
HETATM    6  C   UNL     1       5.402  27.552  56.805  1.00  0.00     0.258 C 
HETATM    7  O   UNL     1       6.355  28.130  57.334  1.00  0.00    -0.269 OA
HETATM    8  H   UNL     1       3.337  27.607  56.397  1.00  0.00     0.190 HD
BRANCH   6   9
HETATM    9  C   UNL     1       5.487  26.106  56.282  1.00  0.00     0.173 C 
HETATM   10  C   UNL     1       4.815  25.156  57.268  1.00  0.00     0.042 C 
BRANCH   9  11
HETATM   11  N   UNL     1       6.891  25.723  56.134  1.00  0.00    -0.356 N 
HETATM   12  H   UNL     1       7.527  26.511  56.014  1.00  0.00     0.162 HD
BRANCH  11  13
HETATM   13  C   UNL     1       7.209  24.553  55.543  1.00  0.00     0.168 A 
HETATM   14  S   UNL     1       7.231  24.433  53.829  1.00  0.00    -0.050 SA
HETATM   15  C   UNL     1       7.687  22.779  53.941  1.00  0.00     0.037 A 
HETATM   16  C   UNL     1       7.784  22.431  55.289  1.00  0.00     0.076 A 
HETATM   17  C   UNL     1       7.939  21.853  52.916  1.00  0.00     0.021 A 
HETATM   18  N   UNL     1       7.518  23.452  56.185  1.00  0.00    -0.223 NA
HETATM   19  C   UNL     1       8.133  21.107  55.623  1.00  0.00     0.033 A 
HETATM   20  C   UNL     1       8.379  20.174  54.610  1.00  0.00     0.002 A 
HETATM   21  C   UNL     1       8.286  20.547  53.274  1.00  0.00     0.002 A 
ENDBRANCH  11  13
ENDBRANCH   9  11
ENDBRANCH   6   9
ENDBRANCH   2   5
BRANCH   1  22
HETATM   22  C   UNL     1       3.449  31.757  57.321  1.00  0.00     0.227 C 
BRANCH  22  23
HETATM   23  N   UNL     1       4.200  31.794  58.560  1.00  0.00    -0.348 N 
HETATM   24  C   UNL     1       5.361  32.535  58.633  1.00  0.00     0.252 C 
HETATM   25  O   UNL     1       5.834  33.121  57.665  1.00  0.00    -0.268 OA
HETATM   26  H   UNL     1       3.686  31.616  59.414  1.00  0.00     0.163 HD
BRANCH  24  27
HETATM   27  C   UNL     1       5.999  32.636  59.974  1.00  0.00     0.032 A 
HETATM   28  C   UNL     1       7.325  32.210  60.118  1.00  0.00     0.024 A 
HETATM   29  C   UNL     1       7.976  32.281  61.361  1.00  0.00    -0.055 A 
HETATM   30  C   UNL     1       7.267  32.755  62.484  1.00  0.00    -0.056 A 
HETATM   31  C   UNL     1       9.400  31.809  61.470  1.00  0.00     0.049 C 
HETATM   32  C   UNL     1       7.909  32.845  63.841  1.00  0.00     0.049 C 
HETATM   33  C   UNL     1       5.936  33.178  62.329  1.00  0.00     0.008 A 
HETATM   34  C   UNL     1       5.303  33.116  61.086  1.00  0.00     0.017 A 
ENDBRANCH  24  27
ENDBRANCH  22  23
ENDBRANCH   1  22
TORSDOF 7
ENDMDL
MODEL 9
REMARK VINA RESULT:      -9.8      3.025     11.806
REMARK  7 active torsions:
REMARK  status: ('A' for Active; 'I' for Inactive)
REMARK    1  A    between atoms: C_6  and  C_7 
REMARK       I    between atoms: C_7  and  N_8 
REMARK    2  A    between atoms: N_8  and  C_9 
REMARK    3  A    between atoms: C_9  and  C_10 
REMARK       I    between atoms: C_10  and  N_11 
REMARK    4  A    between atoms: N_11  and  N_12 
REMARK       I    between atoms: N_12  and  C_13 
REMARK    5  A    between atoms: C_13  and  C_14 
REMARK    6  A    between atoms: C_14  and  N_15 
REMARK    7  A    between atoms: N_15  and  C_16 
ROOT
HETATM    1  C   UNL     1       5.025  30.702  57.525  1.00  0.00     0.253 C 
HETATM    2  N   UNL     1       5.984  29.804  57.107  1.00  0.00    -0.266 N 
HETATM    3  O   UNL     1       3.840  30.393  57.661  1.00  0.00    -0.270 OA
HETATM    4  H   UNL     1       6.966  30.045  56.979  1.00  0.00     0.190 HD
ENDROOT
BRANCH   2   5
HETATM    5  N   UNL     1       5.629  28.454  57.005  1.00  0.00    -0.266 N 
HETATM    6  C   UNL     1       6.053  27.761  55.886  1.00  0.00     0.258 C 
HETATM    7  O   UNL     1       6.527  28.320  54.893  1.00  0.00    -0.269 OA
HETATM    8  H   UNL     1       5.456  27.983  57.893  1.00  0.00     0.190 HD
BRANCH   6   9
HETATM    9  C   UNL     1       5.872  26.235  55.979  1.00  0.00     0.173 C 
HETATM   10  C   UNL     1       4.938  25.892  57.136  1.00  0.00     0.042 C 
BRANCH   9  11
HETATM   11  N   UNL     1       7.171  25.603  56.213  1.00  0.00    -0.356 N 
HETATM   12  H   UNL     1       7.933  26.264  56.366  1.00  0.00     0.162 HD
BRANCH  11  13
HETATM   13  C   UNL     1       7.458  24.422  55.629  1.00  0.00     0.168 A 
HETATM   14  S   UNL     1       7.401  24.274  53.918  1.00  0.00    -0.050 SA
HETATM   15  C   UNL     1       7.857  22.620  54.037  1.00  0.00     0.037 A 
HETATM   16  C   UNL     1       8.015  22.294  55.383  1.00  0.00     0.076 A 
HETATM   17  C   UNL     1       8.059  21.677  53.016  1.00  0.00     0.021 A 
HETATM   18  N   UNL     1       7.793  23.331  56.274  1.00  0.00    -0.223 NA
HETATM   19  C   UNL     1       8.375  20.975  55.724  1.00  0.00     0.033 A 
HETATM   20  C   UNL     1       8.572  20.025  54.717  1.00  0.00     0.002 A 
HETATM   21  C   UNL     1       8.419  20.376  53.379  1.00  0.00     0.002 A 
ENDBRANCH  11  13
ENDBRANCH   9  11
ENDBRANCH   6   9
ENDBRANCH   2   5
BRANCH   1  22
HETATM   22  C   UNL     1       5.534  32.125  57.726  1.00  0.00     0.227 C 
BRANCH  22  23
HETATM   23  N   UNL     1       5.683  32.389  59.144  1.00  0.00    -0.348 N 
HETATM   24  C   UNL     1       6.873  32.090  59.773  1.00  0.00     0.252 C 
HETATM   25  O   UNL     1       7.806  31.541  59.197  1.00  0.00    -0.268 OA
HETATM   26  H   UNL     1       5.095  33.111  59.540  1.00  0.00     0.163 HD
BRANCH  24  27
HETATM   27  C   UNL     1       6.998  32.517  61.193  1.00  0.00     0.032 A 
HETATM   28  C   UNL     1       6.159  33.537  61.661  1.00  0.00     0.024 A 
HETATM   29  C   UNL     1       6.235  33.981  62.992  1.00  0.00    -0.055 A 
HETATM   30  C   UNL     1       7.197  33.413  63.854  1.00  0.00    -0.056 A 
HETATM   31  C   UNL     1       5.317  35.081  63.450  1.00  0.00     0.049 C 
HETATM   32  C   UNL     1       7.329  33.856  65.285  1.00  0.00     0.049 C 
HETATM   33  C   UNL     1       8.035  32.393  63.374  1.00  0.00     0.008 A 
HETATM   34  C   UNL     1       7.941  31.949  62.053  1.00  0.00     0.017 A 
ENDBRANCH  24  27
ENDBRANCH  22  23
ENDBRANCH   1  22
TORSDOF 7
ENDMDL
MODEL 10
REMARK VINA RESULT:      -9.4      2.988     11.973
REMARK  7 active torsions:
REMARK  status: ('A' for Active; 'I' for Inactive)
REMARK    1  A    between atoms: C_6  and  C_7 
REMARK       I    between atoms: C_7  and  N_8 
REMARK    2  A    between atoms: N_8  and  C_9 
REMARK    3  A    between atoms: C_9  and  C_10 
REMARK       I    between atoms: C_10  and  N_11 
REMARK    4  A    between atoms: N_11  and  N_12 
REMARK       I    between atoms: N_12  and  C_13 
REMARK    5  A    between atoms: C_13  and  C_14 
REMARK    6  A    between atoms: C_14  and  N_15 
REMARK    7  A    between atoms: N_15  and  C_16 
ROOT
HETATM    1  C   UNL     1       5.059  30.402  57.780  1.00  0.00     0.253 C 
HETATM    2  N   UNL     1       4.759  29.056  57.782  1.00  0.00    -0.266 N 
HETATM    3  O   UNL     1       6.141  30.840  57.386  1.00  0.00    -0.270 OA
HETATM    4  H   UNL     1       3.874  28.676  58.116  1.00  0.00     0.190 HD
ENDROOT
BRANCH   2   5
HETATM    5  N   UNL     1       5.645  28.178  57.150  1.00  0.00    -0.266 N 
HETATM    6  C   UNL     1       5.386  27.840  55.834  1.00  0.00     0.258 C 
HETATM    7  O   UNL     1       4.315  28.095  55.278  1.00  0.00    -0.269 OA
HETATM    8  H   UNL     1       6.593  28.172  57.527  1.00  0.00     0.190 HD
BRANCH   6   9
HETATM    9  C   UNL     1       6.542  27.109  55.128  1.00  0.00     0.173 C 
HETATM   10  C   UNL     1       7.288  28.075  54.213  1.00  0.00     0.042 C 
BRANCH   9  11
HETATM   11  N   UNL     1       6.006  26.010  54.324  1.00  0.00    -0.356 N 
HETATM   12  H   UNL     1       5.007  26.083  54.134  1.00  0.00     0.162 HD
BRANCH  11  13
HETATM   13  C   UNL     1       6.547  24.779  54.424  1.00  0.00     0.168 A 
HETATM   14  S   UNL     1       6.906  24.120  55.970  1.00  0.00    -0.050 SA
HETATM   15  C   UNL     1       7.497  22.684  55.232  1.00  0.00     0.037 A 
HETATM   16  C   UNL     1       7.384  22.813  53.847  1.00  0.00     0.076 A 
HETATM   17  C   UNL     1       8.025  21.528  55.829  1.00  0.00     0.021 A 
HETATM   18  N   UNL     1       6.834  24.004  53.406  1.00  0.00    -0.223 NA
HETATM   19  C   UNL     1       7.825  21.753  53.030  1.00  0.00     0.033 A 
HETATM   20  C   UNL     1       8.359  20.599  53.613  1.00  0.00     0.002 A 
HETATM   21  C   UNL     1       8.453  20.490  54.997  1.00  0.00     0.002 A 
ENDBRANCH  11  13
ENDBRANCH   9  11
ENDBRANCH   6   9
ENDBRANCH   2   5
BRANCH   1  22
HETATM   22  C   UNL     1       3.979  31.294  58.381  1.00  0.00     0.227 C 
BRANCH  22  23
HETATM   23  N   UNL     1       4.318  31.605  59.755  1.00  0.00    -0.348 N 
HETATM   24  C   UNL     1       4.831  32.846  60.069  1.00  0.00     0.252 C 
HETATM   25  O   UNL     1       5.081  33.692  59.218  1.00  0.00    -0.268 OA
HETATM   26  H   UNL     1       3.831  31.087  60.477  1.00  0.00     0.163 HD
BRANCH  24  27
HETATM   27  C   UNL     1       5.023  33.138  61.515  1.00  0.00     0.032 A 
HETATM   28  C   UNL     1       6.289  32.935  62.077  1.00  0.00     0.024 A 
HETATM   29  C   UNL     1       6.526  33.193  63.438  1.00  0.00    -0.055 A 
HETATM   30  C   UNL     1       5.459  33.626  64.253  1.00  0.00    -0.056 A 
HETATM   31  C   UNL     1       7.902  32.957  63.999  1.00  0.00     0.049 C 
HETATM   32  C   UNL     1       5.652  33.908  65.717  1.00  0.00     0.049 C 
HETATM   33  C   UNL     1       4.192  33.824  63.680  1.00  0.00     0.008 A 
HETATM   34  C   UNL     1       3.971  33.579  62.323  1.00  0.00     0.017 A 
ENDBRANCH  24  27
ENDBRANCH  22  23
ENDBRANCH   1  22
TORSDOF 7
ENDMDL
