MODEL 1
REMARK VINA RESULT:      -9.2      0.000      0.000
REMARK  6 active torsions:
REMARK  status: ('A' for Active; 'I' for Inactive)
REMARK    1  A    between atoms: O_2  and  C_3 
REMARK    2  A    between atoms: C_4  and  C_5 
REMARK    3  A    between atoms: C_5  and  N_6 
REMARK    4  A    between atoms: N_6  and  C_7 
REMARK    5  A    between atoms: C_9  and  N_10 
REMARK    6  A    between atoms: N_10  and  C_11 
ROOT
HETATM    1  C   UNL     1       6.670  26.132  53.197  1.00  0.00     0.135 A 
HETATM    2  N   UNL     1       7.151  26.891  54.197  1.00  0.00    -0.052 NA
HETATM    3  C   UNL     1       6.998  28.224  54.119  1.00  0.00     0.702 A 
HETATM    4  N   UNL     1       6.405  28.806  53.078  1.00  0.00    -0.189 N 
HETATM    5  H   UNL     1       6.300  29.809  53.102  1.00  0.00     0.184 HD
HETATM    6  C   UNL     1       5.908  28.093  52.060  1.00  0.00     0.062 A 
HETATM    7  C   UNL     1       6.008  26.691  52.086  1.00  0.00     0.032 A 
HETATM    8  C   UNL     1       5.272  28.755  50.996  1.00  0.00     0.031 A 
HETATM    9  C   UNL     1       4.711  28.026  49.950  1.00  0.00     0.002 A 
HETATM   10  C   UNL     1       4.768  26.637  49.969  1.00  0.00     0.001 A 
HETATM   11  C   UNL     1       5.397  25.975  51.026  1.00  0.00     0.017 A 
ENDROOT
BRANCH   1  12
HETATM   12  N   UNL     1       6.802  24.771  53.420  1.00  0.00    -0.272 NA
HETATM   13  H   UNL     1       6.691  24.622  54.423  1.00  0.00     0.129 HD
BRANCH  12  14
HETATM   14  C   UNL     1       8.029  24.099  52.972  1.00  0.00     0.135 C 
BRANCH  14  15
HETATM   15  C   UNL     1       8.206  22.748  53.642  1.00  0.00    -0.012 A 
HETATM   16  C   UNL     1       8.537  22.694  55.013  1.00  0.00     0.075 A 
HETATM   17  C   UNL     1       8.709  21.455  55.640  1.00  0.00     0.037 A 
HETATM   18  C   UNL     1       8.542  20.268  54.924  1.00  0.00     0.003 A 
HETATM   19  C   UNL     1       8.200  20.309  53.577  1.00  0.00     0.001 A 
HETATM   20  C   UNL     1       8.030  21.539  52.943  1.00  0.00     0.011 A 
BRANCH  16  21
HETATM   21  O   UNL     1       8.678  23.908  55.639  1.00  0.00    -0.355 OA
HETATM   22  C   UNL     1       7.901  24.124  56.813  1.00  0.00     0.210 C 
ENDBRANCH  16  21
ENDBRANCH  14  15
ENDBRANCH  12  14
ENDBRANCH   1  12
BRANCH   3  23
HETATM   23  N   UNL     1       7.408  29.049  55.144  1.00  0.00    -0.220 N 
HETATM   24  H   UNL     1       7.198  30.036  55.129  1.00  0.00     0.178 HD
BRANCH  23  25
HETATM   25  C   UNL     1       8.588  28.688  55.923  1.00  0.00     0.099 C 
HETATM   26  C   UNL     1       9.811  29.468  55.438  1.00  0.00     0.026 C 
HETATM   27  C   UNL     1      10.679  29.569  56.679  1.00  0.00     0.002 C 
HETATM   28  C   UNL     1       9.676  29.867  57.781  1.00  0.00     0.002 C 
HETATM   29  C   UNL     1       8.411  29.103  57.392  1.00  0.00     0.026 C 
ENDBRANCH  23  25
ENDBRANCH   3  23
TORSDOF 6
ENDMDL
MODEL 2
REMARK VINA RESULT:      -8.8      2.308      5.147
REMARK  6 active torsions:
REMARK  status: ('A' for Active; 'I' for Inactive)
REMARK    1  A    between atoms: O_2  and  C_3 
REMARK    2  A    between atoms: C_4  and  C_5 
REMARK    3  A    between atoms: C_5  and  N_6 
REMARK    4  A    between atoms: N_6  and  C_7 
REMARK    5  A    between atoms: C_9  and  N_10 
REMARK    6  A    between atoms: N_10  and  C_11 
ROOT
HETATM    1  C   UNL     1       5.350  25.871  53.926  1.00  0.00     0.135 A 
HETATM    2  N   UNL     1       4.944  26.131  52.671  1.00  0.00    -0.052 NA
HETATM    3  C   UNL     1       4.526  27.374  52.379  1.00  0.00     0.702 A 
HETATM    4  N   UNL     1       4.488  28.339  53.296  1.00  0.00    -0.189 N 
HETATM    5  H   UNL     1       4.190  29.256  52.997  1.00  0.00     0.184 HD
HETATM    6  C   UNL     1       4.883  28.130  54.557  1.00  0.00     0.062 A 
HETATM    7  C   UNL     1       5.359  26.861  54.930  1.00  0.00     0.032 A 
HETATM    8  C   UNL     1       4.844  29.189  55.480  1.00  0.00     0.031 A 
HETATM    9  C   UNL     1       5.294  29.001  56.785  1.00  0.00     0.002 A 
HETATM   10  C   UNL     1       5.799  27.763  57.169  1.00  0.00     0.001 A 
HETATM   11  C   UNL     1       5.843  26.709  56.254  1.00  0.00     0.017 A 
ENDROOT
BRANCH   1  12
HETATM   12  N   UNL     1       5.843  24.587  54.097  1.00  0.00    -0.272 NA
HETATM   13  H   UNL     1       5.808  24.386  55.096  1.00  0.00     0.129 HD
BRANCH  12  14
HETATM   14  C   UNL     1       7.188  24.276  53.595  1.00  0.00     0.135 C 
BRANCH  14  15
HETATM   15  C   UNL     1       7.598  22.853  53.932  1.00  0.00    -0.012 A 
HETATM   16  C   UNL     1       7.693  22.464  55.285  1.00  0.00     0.075 A 
HETATM   17  C   UNL     1       8.077  21.157  55.608  1.00  0.00     0.037 A 
HETATM   18  C   UNL     1       8.353  20.230  54.602  1.00  0.00     0.003 A 
HETATM   19  C   UNL     1       8.246  20.598  53.266  1.00  0.00     0.001 A 
HETATM   20  C   UNL     1       7.868  21.898  52.935  1.00  0.00     0.011 A 
BRANCH  16  21
HETATM   21  O   UNL     1       7.400  23.438  56.206  1.00  0.00    -0.355 OA
HETATM   22  C   UNL     1       8.456  23.848  57.071  1.00  0.00     0.210 C 
ENDBRANCH  16  21
ENDBRANCH  14  15
ENDBRANCH  12  14
ENDBRANCH   1  12
BRANCH   3  23
HETATM   23  N   UNL     1       4.163  27.719  51.095  1.00  0.00    -0.220 N 
HETATM   24  H   UNL     1       3.201  27.918  50.866  1.00  0.00     0.178 HD
BRANCH  23  25
HETATM   25  C   UNL     1       4.974  27.254  49.974  1.00  0.00     0.099 C 
HETATM   26  C   UNL     1       4.143  26.373  49.040  1.00  0.00     0.026 C 
HETATM   27  C   UNL     1       4.801  26.576  47.687  1.00  0.00     0.002 C 
HETATM   28  C   UNL     1       5.087  28.069  47.661  1.00  0.00     0.002 C 
HETATM   29  C   UNL     1       5.421  28.440  49.106  1.00  0.00     0.026 C 
ENDBRANCH  23  25
ENDBRANCH   3  23
TORSDOF 6
ENDMDL
MODEL 3
REMARK VINA RESULT:      -8.8      1.654      5.208
REMARK  6 active torsions:
REMARK  status: ('A' for Active; 'I' for Inactive)
REMARK    1  A    between atoms: O_2  and  C_3 
REMARK    2  A    between atoms: C_4  and  C_5 
REMARK    3  A    between atoms: C_5  and  N_6 
REMARK    4  A    between atoms: N_6  and  C_7 
REMARK    5  A    between atoms: C_9  and  N_10 
REMARK    6  A    between atoms: N_10  and  C_11 
ROOT
HETATM    1  C   UNL     1       6.155  25.719  55.880  1.00  0.00     0.135 A 
HETATM    2  N   UNL     1       5.376  25.613  54.789  1.00  0.00    -0.052 NA
HETATM    3  C   UNL     1       5.048  26.736  54.127  1.00  0.00     0.702 A 
HETATM    4  N   UNL     1       5.455  27.937  54.531  1.00  0.00    -0.189 N 
HETATM    5  H   UNL     1       5.193  28.733  53.968  1.00  0.00     0.184 HD
HETATM    6  C   UNL     1       6.232  28.093  55.609  1.00  0.00     0.062 A 
HETATM    7  C   UNL     1       6.639  26.961  56.337  1.00  0.00     0.032 A 
HETATM    8  C   UNL     1       6.652  29.382  55.980  1.00  0.00     0.031 A 
HETATM    9  C   UNL     1       7.497  29.558  57.074  1.00  0.00     0.002 A 
HETATM   10  C   UNL     1       7.939  28.450  57.789  1.00  0.00     0.001 A 
HETATM   11  C   UNL     1       7.527  27.167  57.422  1.00  0.00     0.017 A 
ENDROOT
BRANCH   1  12
HETATM   12  N   UNL     1       6.505  24.497  56.433  1.00  0.00    -0.272 NA
HETATM   13  H   UNL     1       6.321  24.560  57.434  1.00  0.00     0.129 HD
BRANCH  12  14
HETATM   14  C   UNL     1       7.872  23.997  56.230  1.00  0.00     0.135 C 
BRANCH  14  15
HETATM   15  C   UNL     1       7.911  22.861  55.224  1.00  0.00    -0.012 A 
HETATM   16  C   UNL     1       8.065  23.158  53.853  1.00  0.00     0.075 A 
HETATM   17  C   UNL     1       8.096  22.119  52.915  1.00  0.00     0.037 A 
HETATM   18  C   UNL     1       7.992  20.789  53.325  1.00  0.00     0.003 A 
HETATM   19  C   UNL     1       7.858  20.485  54.675  1.00  0.00     0.001 A 
HETATM   20  C   UNL     1       7.822  21.513  55.616  1.00  0.00     0.011 A 
BRANCH  16  21
HETATM   21  O   UNL     1       8.163  24.491  53.540  1.00  0.00    -0.355 OA
HETATM   22  C   UNL     1       8.008  24.846  52.169  1.00  0.00     0.210 C 
ENDBRANCH  16  21
ENDBRANCH  14  15
ENDBRANCH  12  14
ENDBRANCH   1  12
BRANCH   3  23
HETATM   23  N   UNL     1       4.311  26.686  52.964  1.00  0.00    -0.220 N 
HETATM   24  H   UNL     1       3.566  26.014  52.852  1.00  0.00     0.178 HD
BRANCH  23  25
HETATM   25  C   UNL     1       4.914  27.140  51.715  1.00  0.00     0.099 C 
HETATM   26  C   UNL     1       4.866  26.032  50.661  1.00  0.00     0.026 C 
HETATM   27  C   UNL     1       4.818  26.796  49.350  1.00  0.00     0.002 C 
HETATM   28  C   UNL     1       3.857  27.936  49.647  1.00  0.00     0.002 C 
HETATM   29  C   UNL     1       4.100  28.295  51.113  1.00  0.00     0.026 C 
ENDBRANCH  23  25
ENDBRANCH   3  23
TORSDOF 6
ENDMDL
MODEL 4
REMARK VINA RESULT:      -8.6      2.010      5.953
REMARK  6 active torsions:
REMARK  status: ('A' for Active; 'I' for Inactive)
REMARK    1  A    between atoms: O_2  and  C_3 
REMARK    2  A    between atoms: C_4  and  C_5 
REMARK    3  A    between atoms: C_5  and  N_6 
REMARK    4  A    between atoms: N_6  and  C_7 
REMARK    5  A    between atoms: C_9  and  N_10 
REMARK    6  A    between atoms: N_10  and  C_11 
ROOT
HETATM    1  C   UNL     1       6.997  24.156  53.691  1.00  0.00     0.135 A 
HETATM    2  N   UNL     1       6.934  25.073  54.672  1.00  0.00    -0.052 NA
HETATM    3  C   UNL     1       7.337  24.720  55.904  1.00  0.00     0.702 A 
HETATM    4  N   UNL     1       7.775  23.493  56.177  1.00  0.00    -0.189 N 
HETATM    5  H   UNL     1       8.089  23.308  57.119  1.00  0.00     0.184 HD
HETATM    6  C   UNL     1       7.858  22.546  55.235  1.00  0.00     0.062 A 
HETATM    7  C   UNL     1       7.479  22.852  53.915  1.00  0.00     0.032 A 
HETATM    8  C   UNL     1       8.349  21.274  55.571  1.00  0.00     0.031 A 
HETATM    9  C   UNL     1       8.482  20.291  54.593  1.00  0.00     0.002 A 
HETATM   10  C   UNL     1       8.145  20.579  53.275  1.00  0.00     0.001 A 
HETATM   11  C   UNL     1       7.660  21.843  52.935  1.00  0.00     0.017 A 
ENDROOT
BRANCH   1  12
HETATM   12  N   UNL     1       6.642  24.650  52.445  1.00  0.00    -0.272 NA
HETATM   13  H   UNL     1       7.267  25.431  52.246  1.00  0.00     0.129 HD
BRANCH  12  14
HETATM   14  C   UNL     1       5.255  25.084  52.228  1.00  0.00     0.135 C 
BRANCH  14  15
HETATM   15  C   UNL     1       5.173  26.228  51.233  1.00  0.00    -0.012 A 
HETATM   16  C   UNL     1       5.511  27.533  51.651  1.00  0.00     0.075 A 
HETATM   17  C   UNL     1       5.432  28.596  50.744  1.00  0.00     0.037 A 
HETATM   18  C   UNL     1       5.038  28.375  49.423  1.00  0.00     0.003 A 
HETATM   19  C   UNL     1       4.720  27.091  48.996  1.00  0.00     0.001 A 
HETATM   20  C   UNL     1       4.792  26.026  49.893  1.00  0.00     0.011 A 
BRANCH  16  21
HETATM   21  O   UNL     1       5.890  27.657  52.964  1.00  0.00    -0.355 OA
HETATM   22  C   UNL     1       5.290  28.710  53.713  1.00  0.00     0.210 C 
ENDBRANCH  16  21
ENDBRANCH  14  15
ENDBRANCH  12  14
ENDBRANCH   1  12
BRANCH   3  23
HETATM   23  N   UNL     1       7.362  25.634  56.934  1.00  0.00    -0.220 N 
HETATM   24  H   UNL     1       7.035  25.384  57.856  1.00  0.00     0.178 HD
BRANCH  23  25
HETATM   25  C   UNL     1       7.286  27.059  56.627  1.00  0.00     0.099 C 
HETATM   26  C   UNL     1       6.002  27.664  57.196  1.00  0.00     0.026 C 
HETATM   27  C   UNL     1       6.378  29.112  57.453  1.00  0.00     0.002 C 
HETATM   28  C   UNL     1       7.779  29.008  58.037  1.00  0.00     0.002 C 
HETATM   29  C   UNL     1       8.425  27.821  57.323  1.00  0.00     0.026 C 
ENDBRANCH  23  25
ENDBRANCH   3  23
TORSDOF 6
ENDMDL
MODEL 5
REMARK VINA RESULT:      -8.5      2.230      7.239
REMARK  6 active torsions:
REMARK  status: ('A' for Active; 'I' for Inactive)
REMARK    1  A    between atoms: O_2  and  C_3 
REMARK    2  A    between atoms: C_4  and  C_5 
REMARK    3  A    between atoms: C_5  and  N_6 
REMARK    4  A    between atoms: N_6  and  C_7 
REMARK    5  A    between atoms: C_9  and  N_10 
REMARK    6  A    between atoms: N_10  and  C_11 
ROOT
HETATM    1  C   UNL     1       6.995  27.571  53.892  1.00  0.00     0.135 A 
HETATM    2  N   UNL     1       6.826  26.289  53.526  1.00  0.00    -0.052 NA
HETATM    3  C   UNL     1       6.988  25.332  54.456  1.00  0.00     0.702 A 
HETATM    4  N   UNL     1       7.327  25.619  55.711  1.00  0.00    -0.189 N 
HETATM    5  H   UNL     1       7.404  24.852  56.362  1.00  0.00     0.184 HD
HETATM    6  C   UNL     1       7.505  26.880  56.124  1.00  0.00     0.062 A 
HETATM    7  C   UNL     1       7.325  27.936  55.212  1.00  0.00     0.032 A 
HETATM    8  C   UNL     1       7.840  27.130  57.465  1.00  0.00     0.031 A 
HETATM    9  C   UNL     1       7.985  28.438  57.921  1.00  0.00     0.002 A 
HETATM   10  C   UNL     1       7.780  29.501  57.047  1.00  0.00     0.001 A 
HETATM   11  C   UNL     1       7.444  29.257  55.713  1.00  0.00     0.017 A 
ENDROOT
BRANCH   1  12
HETATM   12  N   UNL     1       6.717  28.478  52.881  1.00  0.00    -0.272 NA
HETATM   13  H   UNL     1       7.036  29.392  53.206  1.00  0.00     0.129 HD
BRANCH  12  14
HETATM   14  C   UNL     1       5.333  28.600  52.404  1.00  0.00     0.135 C 
BRANCH  14  15
HETATM   15  C   UNL     1       5.205  28.197  50.945  1.00  0.00    -0.012 A 
HETATM   16  C   UNL     1       5.618  29.097  49.941  1.00  0.00     0.075 A 
HETATM   17  C   UNL     1       5.498  28.740  48.593  1.00  0.00     0.037 A 
HETATM   18  C   UNL     1       4.986  27.492  48.233  1.00  0.00     0.003 A 
HETATM   19  C   UNL     1       4.592  26.590  49.215  1.00  0.00     0.001 A 
HETATM   20  C   UNL     1       4.705  26.939  50.560  1.00  0.00     0.011 A 
BRANCH  16  21
HETATM   21  O   UNL     1       6.111  30.299  50.385  1.00  0.00    -0.355 OA
HETATM   22  C   UNL     1       5.868  31.440  49.567  1.00  0.00     0.210 C 
ENDBRANCH  16  21
ENDBRANCH  14  15
ENDBRANCH  12  14
ENDBRANCH   1  12
BRANCH   3  23
HETATM   23  N   UNL     1       6.761  24.006  54.159  1.00  0.00    -0.220 N 
HETATM   24  H   UNL     1       5.849  23.595  54.293  1.00  0.00     0.178 HD
BRANCH  23  25
HETATM   25  C   UNL     1       7.871  23.060  54.219  1.00  0.00     0.099 C 
HETATM   26  C   UNL     1       7.611  21.994  55.284  1.00  0.00     0.026 C 
HETATM   27  C   UNL     1       8.371  20.786  54.766  1.00  0.00     0.002 C 
HETATM   28  C   UNL     1       8.076  20.803  53.275  1.00  0.00     0.002 C 
HETATM   29  C   UNL     1       7.986  22.282  52.899  1.00  0.00     0.026 C 
ENDBRANCH  23  25
ENDBRANCH   3  23
TORSDOF 6
ENDMDL
MODEL 6
REMARK VINA RESULT:      -8.4      2.763      6.978
REMARK  6 active torsions:
REMARK  status: ('A' for Active; 'I' for Inactive)
REMARK    1  A    between atoms: O_2  and  C_3 
REMARK    2  A    between atoms: C_4  and  C_5 
REMARK    3  A    between atoms: C_5  and  N_6 
REMARK    4  A    between atoms: N_6  and  C_7 
REMARK    5  A    between atoms: C_9  and  N_10 
REMARK    6  A    between atoms: N_10  and  C_11 
ROOT
HETATM    1  C   UNL     1       5.401  26.400  53.219  1.00  0.00     0.135 A 
HETATM    2  N   UNL     1       6.281  25.384  53.232  1.00  0.00    -0.052 NA
HETATM    3  C   UNL     1       6.992  25.168  54.352  1.00  0.00     0.702 A 
HETATM    4  N   UNL     1       6.860  25.938  55.430  1.00  0.00    -0.189 N 
HETATM    5  H   UNL     1       7.406  25.698  56.245  1.00  0.00     0.184 HD
HETATM    6  C   UNL     1       5.997  26.960  55.467  1.00  0.00     0.062 A 
HETATM    7  C   UNL     1       5.199  27.229  54.341  1.00  0.00     0.032 A 
HETATM    8  C   UNL     1       5.881  27.728  56.637  1.00  0.00     0.031 A 
HETATM    9  C   UNL     1       4.956  28.767  56.707  1.00  0.00     0.002 A 
HETATM   10  C   UNL     1       4.132  29.032  55.618  1.00  0.00     0.001 A 
HETATM   11  C   UNL     1       4.242  28.269  54.454  1.00  0.00     0.017 A 
ENDROOT
BRANCH   1  12
HETATM   12  N   UNL     1       4.660  26.479  52.051  1.00  0.00    -0.272 NA
HETATM   13  H   UNL     1       3.775  26.002  52.228  1.00  0.00     0.129 HD
BRANCH  12  14
HETATM   14  C   UNL     1       5.243  25.953  50.809  1.00  0.00     0.135 C 
BRANCH  14  15
HETATM   15  C   UNL     1       4.571  26.538  49.580  1.00  0.00    -0.012 A 
HETATM   16  C   UNL     1       4.798  27.890  49.247  1.00  0.00     0.075 A 
HETATM   17  C   UNL     1       4.178  28.443  48.120  1.00  0.00     0.037 A 
HETATM   18  C   UNL     1       3.348  27.663  47.313  1.00  0.00     0.003 A 
HETATM   19  C   UNL     1       3.131  26.325  47.623  1.00  0.00     0.001 A 
HETATM   20  C   UNL     1       3.741  25.767  48.745  1.00  0.00     0.011 A 
BRANCH  16  21
HETATM   21  O   UNL     1       5.630  28.580  50.093  1.00  0.00    -0.355 OA
HETATM   22  C   UNL     1       5.142  29.812  50.617  1.00  0.00     0.210 C 
ENDBRANCH  16  21
ENDBRANCH  14  15
ENDBRANCH  12  14
ENDBRANCH   1  12
BRANCH   3  23
HETATM   23  N   UNL     1       7.858  24.101  54.450  1.00  0.00    -0.220 N 
HETATM   24  H   UNL     1       8.844  24.216  54.266  1.00  0.00     0.178 HD
BRANCH  23  25
HETATM   25  C   UNL     1       7.353  22.748  54.237  1.00  0.00     0.099 C 
HETATM   26  C   UNL     1       7.947  22.147  52.962  1.00  0.00     0.026 C 
HETATM   27  C   UNL     1       7.951  20.656  53.245  1.00  0.00     0.002 C 
HETATM   28  C   UNL     1       8.406  20.578  54.693  1.00  0.00     0.002 C 
HETATM   29  C   UNL     1       7.817  21.816  55.368  1.00  0.00     0.026 C 
ENDBRANCH  23  25
ENDBRANCH   3  23
TORSDOF 6
ENDMDL
MODEL 7
REMARK VINA RESULT:      -8.4      2.762      7.175
REMARK  6 active torsions:
REMARK  status: ('A' for Active; 'I' for Inactive)
REMARK    1  A    between atoms: O_2  and  C_3 
REMARK    2  A    between atoms: C_4  and  C_5 
REMARK    3  A    between atoms: C_5  and  N_6 
REMARK    4  A    between atoms: N_6  and  C_7 
REMARK    5  A    between atoms: C_9  and  N_10 
REMARK    6  A    between atoms: N_10  and  C_11 
ROOT
HETATM    1  C   UNL     1       5.461  26.061  53.674  1.00  0.00     0.135 A 
HETATM    2  N   UNL     1       6.314  25.022  53.638  1.00  0.00    -0.052 NA
HETATM    3  C   UNL     1       7.145  24.842  54.679  1.00  0.00     0.702 A 
HETATM    4  N   UNL     1       7.157  25.667  55.723  1.00  0.00    -0.189 N 
HETATM    5  H   UNL     1       7.788  25.453  56.481  1.00  0.00     0.184 HD
HETATM    6  C   UNL     1       6.326  26.714  55.806  1.00  0.00     0.062 A 
HETATM    7  C   UNL     1       5.409  26.950  54.766  1.00  0.00     0.032 A 
HETATM    8  C   UNL     1       6.364  27.541  56.940  1.00  0.00     0.031 A 
HETATM    9  C   UNL     1       5.477  28.608  57.062  1.00  0.00     0.002 A 
HETATM   10  C   UNL     1       4.539  28.843  56.062  1.00  0.00     0.001 A 
HETATM   11  C   UNL     1       4.496  28.021  54.934  1.00  0.00     0.017 A 
ENDROOT
BRANCH   1  12
HETATM   12  N   UNL     1       4.592  26.103  52.596  1.00  0.00    -0.272 NA
HETATM   13  H   UNL     1       3.818  25.474  52.813  1.00  0.00     0.129 HD
BRANCH  12  14
HETATM   14  C   UNL     1       5.109  25.776  51.260  1.00  0.00     0.135 C 
BRANCH  14  15
HETATM   15  C   UNL     1       5.001  26.957  50.311  1.00  0.00    -0.012 A 
HETATM   16  C   UNL     1       4.295  26.807  49.099  1.00  0.00     0.075 A 
HETATM   17  C   UNL     1       4.195  27.887  48.214  1.00  0.00     0.037 A 
HETATM   18  C   UNL     1       4.775  29.117  48.526  1.00  0.00     0.003 A 
HETATM   19  C   UNL     1       5.458  29.281  49.726  1.00  0.00     0.001 A 
HETATM   20  C   UNL     1       5.566  28.210  50.612  1.00  0.00     0.011 A 
BRANCH  16  21
HETATM   21  O   UNL     1       3.754  25.566  48.875  1.00  0.00    -0.355 OA
HETATM   22  C   UNL     1       3.100  25.362  47.626  1.00  0.00     0.210 C 
ENDBRANCH  16  21
ENDBRANCH  14  15
ENDBRANCH  12  14
ENDBRANCH   1  12
BRANCH   3  23
HETATM   23  N   UNL     1       7.993  23.757  54.732  1.00  0.00    -0.220 N 
HETATM   24  H   UNL     1       8.993  23.878  54.666  1.00  0.00     0.178 HD
BRANCH  23  25
HETATM   25  C   UNL     1       7.508  22.449  54.303  1.00  0.00     0.099 C 
HETATM   26  C   UNL     1       8.144  22.051  52.971  1.00  0.00     0.026 C 
HETATM   27  C   UNL     1       8.155  20.534  53.025  1.00  0.00     0.002 C 
HETATM   28  C   UNL     1       8.570  20.241  54.459  1.00  0.00     0.002 C 
HETATM   29  C   UNL     1       7.949  21.360  55.294  1.00  0.00     0.026 C 
ENDBRANCH  23  25
ENDBRANCH   3  23
TORSDOF 6
ENDMDL
MODEL 8
REMARK VINA RESULT:      -8.4      1.816      7.066
REMARK  6 active torsions:
REMARK  status: ('A' for Active; 'I' for Inactive)
REMARK    1  A    between atoms: O_2  and  C_3 
REMARK    2  A    between atoms: C_4  and  C_5 
REMARK    3  A    between atoms: C_5  and  N_6 
REMARK    4  A    between atoms: N_6  and  C_7 
REMARK    5  A    between atoms: C_9  and  N_10 
REMARK    6  A    between atoms: N_10  and  C_11 
ROOT
HETATM    1  C   UNL     1       6.816  26.301  54.375  1.00  0.00     0.135 A 
HETATM    2  N   UNL     1       5.967  26.760  53.440  1.00  0.00    -0.052 NA
HETATM    3  C   UNL     1       5.636  25.946  52.423  1.00  0.00     0.702 A 
HETATM    4  N   UNL     1       6.138  24.718  52.310  1.00  0.00    -0.189 N 
HETATM    5  H   UNL     1       5.823  24.154  51.536  1.00  0.00     0.184 HD
HETATM    6  C   UNL     1       6.986  24.217  53.217  1.00  0.00     0.062 A 
HETATM    7  C   UNL     1       7.356  25.001  54.324  1.00  0.00     0.032 A 
HETATM    8  C   UNL     1       7.469  22.906  53.063  1.00  0.00     0.031 A 
HETATM    9  C   UNL     1       8.317  22.353  54.020  1.00  0.00     0.002 A 
HETATM   10  C   UNL     1       8.671  23.097  55.140  1.00  0.00     0.001 A 
HETATM   11  C   UNL     1       8.191  24.399  55.299  1.00  0.00     0.017 A 
ENDROOT
BRANCH   1  12
HETATM   12  N   UNL     1       7.019  27.186  55.423  1.00  0.00    -0.272 NA
HETATM   13  H   UNL     1       6.187  27.145  56.012  1.00  0.00     0.129 HD
BRANCH  12  14
HETATM   14  C   UNL     1       7.313  28.592  55.112  1.00  0.00     0.135 C 
BRANCH  14  15
HETATM   15  C   UNL     1       8.344  29.174  56.062  1.00  0.00    -0.012 A 
HETATM   16  C   UNL     1       7.945  29.574  57.354  1.00  0.00     0.075 A 
HETATM   17  C   UNL     1       8.886  30.119  58.236  1.00  0.00     0.037 A 
HETATM   18  C   UNL     1      10.221  30.255  57.854  1.00  0.00     0.003 A 
HETATM   19  C   UNL     1      10.629  29.847  56.589  1.00  0.00     0.001 A 
HETATM   20  C   UNL     1       9.698  29.307  55.702  1.00  0.00     0.011 A 
BRANCH  16  21
HETATM   21  O   UNL     1       6.615  29.402  57.647  1.00  0.00    -0.355 OA
HETATM   22  C   UNL     1       5.824  30.579  57.780  1.00  0.00     0.210 C 
ENDBRANCH  16  21
ENDBRANCH  14  15
ENDBRANCH  12  14
ENDBRANCH   1  12
BRANCH   3  23
HETATM   23  N   UNL     1       4.718  26.334  51.471  1.00  0.00    -0.220 N 
HETATM   24  H   UNL     1       3.752  26.051  51.540  1.00  0.00     0.178 HD
BRANCH  23  25
HETATM   25  C   UNL     1       5.173  26.626  50.116  1.00  0.00     0.099 C 
HETATM   26  C   UNL     1       4.120  26.198  49.092  1.00  0.00     0.026 C 
HETATM   27  C   UNL     1       4.350  27.150  47.932  1.00  0.00     0.002 C 
HETATM   28  C   UNL     1       4.592  28.484  48.620  1.00  0.00     0.002 C 
HETATM   29  C   UNL     1       5.328  28.141  49.915  1.00  0.00     0.026 C 
ENDBRANCH  23  25
ENDBRANCH   3  23
TORSDOF 6
ENDMDL
MODEL 9
REMARK VINA RESULT:      -8.3      1.888      2.298
REMARK  6 active torsions:
REMARK  status: ('A' for Active; 'I' for Inactive)
REMARK    1  A    between atoms: O_2  and  C_3 
REMARK    2  A    between atoms: C_4  and  C_5 
REMARK    3  A    between atoms: C_5  and  N_6 
REMARK    4  A    between atoms: N_6  and  C_7 
REMARK    5  A    between atoms: C_9  and  N_10 
REMARK    6  A    between atoms: N_10  and  C_11 
ROOT
HETATM    1  C   UNL     1       6.195  26.285  53.345  1.00  0.00     0.135 A 
HETATM    2  N   UNL     1       6.429  27.146  54.351  1.00  0.00    -0.052 NA
HETATM    3  C   UNL     1       6.158  28.448  54.154  1.00  0.00     0.702 A 
HETATM    4  N   UNL     1       5.687  28.902  52.995  1.00  0.00    -0.189 N 
HETATM    5  H   UNL     1       5.480  29.888  52.930  1.00  0.00     0.184 HD
HETATM    6  C   UNL     1       5.436  28.085  51.966  1.00  0.00     0.062 A 
HETATM    7  C   UNL     1       5.669  26.705  52.107  1.00  0.00     0.032 A 
HETATM    8  C   UNL     1       4.918  28.613  50.772  1.00  0.00     0.031 A 
HETATM    9  C   UNL     1       4.610  27.771  49.706  1.00  0.00     0.002 A 
HETATM   10  C   UNL     1       4.801  26.399  49.833  1.00  0.00     0.001 A 
HETATM   11  C   UNL     1       5.313  25.869  51.019  1.00  0.00     0.017 A 
ENDROOT
BRANCH   1  12
HETATM   12  N   UNL     1       6.424  24.961  53.683  1.00  0.00    -0.272 NA
HETATM   13  H   UNL     1       6.205  24.865  54.675  1.00  0.00     0.129 HD
BRANCH  12  14
HETATM   14  C   UNL     1       7.754  24.389  53.432  1.00  0.00     0.135 C 
BRANCH  14  15
HETATM   15  C   UNL     1       7.843  22.947  53.898  1.00  0.00    -0.012 A 
HETATM   16  C   UNL     1       7.718  22.655  55.273  1.00  0.00     0.075 A 
HETATM   17  C   UNL     1       7.805  21.330  55.714  1.00  0.00     0.037 A 
HETATM   18  C   UNL     1       7.999  20.290  54.804  1.00  0.00     0.003 A 
HETATM   19  C   UNL     1       8.106  20.564  53.445  1.00  0.00     0.001 A 
HETATM   20  C   UNL     1       8.024  21.881  52.996  1.00  0.00     0.011 A 
BRANCH  16  21
HETATM   21  O   UNL     1       7.526  23.738  56.095  1.00  0.00    -0.355 OA
HETATM   22  C   UNL     1       8.522  23.983  57.084  1.00  0.00     0.210 C 
ENDBRANCH  16  21
ENDBRANCH  14  15
ENDBRANCH  12  14
ENDBRANCH   1  12
BRANCH   3  23
HETATM   23  N   UNL     1       6.312  29.367  55.169  1.00  0.00    -0.220 N 
HETATM   24  H   UNL     1       7.164  29.405  55.707  1.00  0.00     0.178 HD
BRANCH  23  25
HETATM   25  C   UNL     1       5.130  29.871  55.862  1.00  0.00     0.099 C 
HETATM   26  C   UNL     1       5.241  29.619  57.366  1.00  0.00     0.026 C 
HETATM   27  C   UNL     1       4.422  30.744  57.973  1.00  0.00     0.002 C 
HETATM   28  C   UNL     1       4.808  31.949  57.129  1.00  0.00     0.002 C 
HETATM   29  C   UNL     1       5.035  31.399  55.722  1.00  0.00     0.026 C 
ENDBRANCH  23  25
ENDBRANCH   3  23
TORSDOF 6
ENDMDL
MODEL 10
REMARK VINA RESULT:      -8.3      2.231      5.824
REMARK  6 active torsions:
REMARK  status: ('A' for Active; 'I' for Inactive)
REMARK    1  A    between atoms: O_2  and  C_3 
REMARK    2  A    between atoms: C_4  and  C_5 
REMARK    3  A    between atoms: C_5  and  N_6 
REMARK    4  A    between atoms: N_6  and  C_7 
REMARK    5  A    between atoms: C_9  and  N_10 
REMARK    6  A    between atoms: N_10  and  C_11 
ROOT
HETATM    1  C   UNL     1       6.188  26.378  54.305  1.00  0.00     0.135 A 
HETATM    2  N   UNL     1       6.371  27.145  55.394  1.00  0.00    -0.052 NA
HETATM    3  C   UNL     1       7.229  26.722  56.338  1.00  0.00     0.702 A 
HETATM    4  N   UNL     1       7.880  25.565  56.231  1.00  0.00    -0.189 N 
HETATM    5  H   UNL     1       8.530  25.326  56.965  1.00  0.00     0.184 HD
HETATM    6  C   UNL     1       7.733  24.768  55.166  1.00  0.00     0.062 A 
HETATM    7  C   UNL     1       6.872  25.159  54.125  1.00  0.00     0.032 A 
HETATM    8  C   UNL     1       8.461  23.569  55.092  1.00  0.00     0.031 A 
HETATM    9  C   UNL     1       8.352  22.749  53.971  1.00  0.00     0.002 A 
HETATM   10  C   UNL     1       7.533  23.130  52.914  1.00  0.00     0.001 A 
HETATM   11  C   UNL     1       6.810  24.323  52.982  1.00  0.00     0.017 A 
ENDROOT
BRANCH   1  12
HETATM   12  N   UNL     1       5.354  26.948  53.357  1.00  0.00    -0.272 NA
HETATM   13  H   UNL     1       4.965  26.184  52.805  1.00  0.00     0.129 HD
BRANCH  12  14
HETATM   14  C   UNL     1       5.909  27.959  52.446  1.00  0.00     0.135 C 
BRANCH  14  15
HETATM   15  C   UNL     1       5.448  27.740  51.016  1.00  0.00    -0.012 A 
HETATM   16  C   UNL     1       5.494  28.814  50.103  1.00  0.00     0.075 A 
HETATM   17  C   UNL     1       5.065  28.626  48.784  1.00  0.00     0.037 A 
HETATM   18  C   UNL     1       4.606  27.379  48.358  1.00  0.00     0.003 A 
HETATM   19  C   UNL     1       4.574  26.308  49.245  1.00  0.00     0.001 A 
HETATM   20  C   UNL     1       4.995  26.487  50.561  1.00  0.00     0.011 A 
BRANCH  16  21
HETATM   21  O   UNL     1       5.961  30.003  50.606  1.00  0.00    -0.355 OA
HETATM   22  C   UNL     1       6.012  31.109  49.710  1.00  0.00     0.210 C 
ENDBRANCH  16  21
ENDBRANCH  14  15
ENDBRANCH  12  14
ENDBRANCH   1  12
BRANCH   3  23
HETATM   23  N   UNL     1       7.510  27.496  57.442  1.00  0.00    -0.220 N 
HETATM   24  H   UNL     1       7.081  27.300  58.334  1.00  0.00     0.178 HD
BRANCH  23  25
HETATM   25  C   UNL     1       7.924  28.883  57.255  1.00  0.00     0.099 C 
HETATM   26  C   UNL     1       8.035  29.596  58.604  1.00  0.00     0.026 C 
HETATM   27  C   UNL     1       9.092  30.658  58.354  1.00  0.00     0.002 C 
HETATM   28  C   UNL     1      10.131  29.924  57.522  1.00  0.00     0.002 C 
HETATM   29  C   UNL     1       9.337  28.948  56.655  1.00  0.00     0.026 C 
ENDBRANCH  23  25
ENDBRANCH   3  23
TORSDOF 6
ENDMDL
