MODEL 1
REMARK VINA RESULT:      -9.5      0.000      0.000
REMARK  4 active torsions:
REMARK  status: ('A' for Active; 'I' for Inactive)
REMARK    1  A    between atoms: N_2  and  C_4 
REMARK    2  A    between atoms: N_2  and  C_16 
REMARK    3  A    between atoms: C_4  and  C_5 
REMARK    4  A    between atoms: C_16  and  C_17 
ROOT
HETATM    1  C   UNL     1       5.001  27.056  56.381  1.00  0.00     0.270 C 
HETATM    2  N   UNL     1       6.296  27.139  55.620  1.00  0.00    -0.064 N 
HETATM    3  H   UNL     1       7.013  26.724  56.238  1.00  0.00     0.280 HD
ENDROOT
BRANCH   2   4
HETATM    4  C   UNL     1       6.296  26.246  54.384  1.00  0.00     0.312 C 
BRANCH   4   5
HETATM    5  C   UNL     1       6.950  24.899  54.665  1.00  0.00     0.133 A 
HETATM    6  N   UNL     1       6.997  24.016  53.718  1.00  0.00    -0.233 NA
HETATM    7  C   UNL     1       7.602  22.776  54.018  1.00  0.00     0.074 A 
HETATM    8  C   UNL     1       8.137  22.484  55.278  1.00  0.00     0.061 A 
HETATM    9  C   UNL     1       7.674  21.798  53.024  1.00  0.00     0.032 A 
HETATM   10  C   UNL     1       8.050  23.530  56.309  1.00  0.00     0.259 A 
HETATM   11  C   UNL     1       8.732  21.250  55.556  1.00  0.00     0.019 A 
HETATM   12  O   UNL     1       8.486  23.389  57.443  1.00  0.00    -0.267 OA
HETATM   13  N   UNL     1       7.446  24.700  55.921  1.00  0.00    -0.309 N 
HETATM   14  H   UNL     1       7.392  25.391  56.659  1.00  0.00     0.170 HD
HETATM   15  C   UNL     1       8.795  20.285  54.554  1.00  0.00     0.001 A 
HETATM   16  C   UNL     1       8.268  20.559  53.290  1.00  0.00     0.002 A 
ENDBRANCH   4   5
ENDBRANCH   2   4
BRANCH   2  17
HETATM   17  C   UNL     1       6.715  28.544  55.280  1.00  0.00     0.273 C 
BRANCH  17  18
HETATM   18  C   UNL     1       7.527  29.237  56.339  1.00  0.00    -0.028 A 
HETATM   19  C   UNL     1       8.928  29.190  56.323  1.00  0.00     0.035 A 
HETATM   20  C   UNL     1       9.676  29.860  57.301  1.00  0.00     0.070 A 
HETATM   21 CL   UNL     1      11.397  29.770  57.209  1.00  0.00    -0.081 Cl
HETATM   22  C   UNL     1       9.034  30.589  58.308  1.00  0.00     0.123 A 
HETATM   23  C   UNL     1       7.638  30.609  58.344  1.00  0.00     0.104 A 
HETATM   24  O   UNL     1       9.800  31.256  59.231  1.00  0.00    -0.344 OA
HETATM   25  O   UNL     1       6.913  31.267  59.306  1.00  0.00    -0.346 OA
HETATM   26  C   UNL     1       6.890  29.953  57.364  1.00  0.00     0.048 A 
HETATM   27  C   UNL     1       7.730  31.668  60.415  1.00  0.00     0.202 C 
HETATM   28  C   UNL     1       9.045  32.251  59.931  1.00  0.00     0.202 C 
ENDBRANCH  17  18
ENDBRANCH   2  17
TORSDOF 4
ENDMDL
MODEL 2
REMARK VINA RESULT:      -9.4      1.961      2.381
REMARK  4 active torsions:
REMARK  status: ('A' for Active; 'I' for Inactive)
REMARK    1  A    between atoms: N_2  and  C_4 
REMARK    2  A    between atoms: N_2  and  C_16 
REMARK    3  A    between atoms: C_4  and  C_5 
REMARK    4  A    between atoms: C_16  and  C_17 
ROOT
HETATM    1  C   UNL     1       5.772  25.334  57.083  1.00  0.00     0.270 C 
HETATM    2  N   UNL     1       6.856  26.345  57.338  1.00  0.00    -0.064 N 
HETATM    3  H   UNL     1       6.756  26.621  58.330  1.00  0.00     0.280 HD
ENDROOT
BRANCH   2   4
HETATM    4  C   UNL     1       8.249  25.732  57.254  1.00  0.00     0.312 C 
BRANCH   4   5
HETATM    5  C   UNL     1       8.221  24.362  56.589  1.00  0.00     0.133 A 
HETATM    6  N   UNL     1       8.114  24.293  55.300  1.00  0.00    -0.233 NA
HETATM    7  C   UNL     1       8.082  23.006  54.720  1.00  0.00     0.074 A 
HETATM    8  C   UNL     1       8.159  21.835  55.482  1.00  0.00     0.061 A 
HETATM    9  C   UNL     1       7.969  22.889  53.333  1.00  0.00     0.032 A 
HETATM   10  C   UNL     1       8.278  21.983  56.941  1.00  0.00     0.259 A 
HETATM   11  C   UNL     1       8.125  20.569  54.890  1.00  0.00     0.019 A 
HETATM   12  O   UNL     1       8.355  21.031  57.705  1.00  0.00    -0.267 OA
HETATM   13  N   UNL     1       8.302  23.273  57.408  1.00  0.00    -0.309 N 
HETATM   14  H   UNL     1       8.371  23.335  58.417  1.00  0.00     0.170 HD
HETATM   15  C   UNL     1       8.011  20.470  53.505  1.00  0.00     0.001 A 
HETATM   16  C   UNL     1       7.934  21.628  52.728  1.00  0.00     0.002 A 
ENDBRANCH   4   5
ENDBRANCH   2   4
BRANCH   2  17
HETATM   17  C   UNL     1       6.750  27.582  56.487  1.00  0.00     0.273 C 
BRANCH  17  18
HETATM   18  C   UNL     1       6.907  28.879  57.231  1.00  0.00    -0.028 A 
HETATM   19  C   UNL     1       6.106  29.989  56.927  1.00  0.00     0.035 A 
HETATM   20  C   UNL     1       6.244  31.186  57.644  1.00  0.00     0.070 A 
HETATM   21 CL   UNL     1       5.213  32.504  57.225  1.00  0.00    -0.081 Cl
HETATM   22  C   UNL     1       7.184  31.291  58.675  1.00  0.00     0.123 A 
HETATM   23  C   UNL     1       8.006  30.197  58.955  1.00  0.00     0.104 A 
HETATM   24  O   UNL     1       7.271  32.468  59.372  1.00  0.00    -0.344 OA
HETATM   25  O   UNL     1       8.979  30.206  59.923  1.00  0.00    -0.346 OA
HETATM   26  C   UNL     1       7.862  28.999  58.251  1.00  0.00     0.048 A 
HETATM   27  C   UNL     1       9.254  31.532  60.396  1.00  0.00     0.202 C 
HETATM   28  C   UNL     1       7.964  32.303  60.614  1.00  0.00     0.202 C 
ENDBRANCH  17  18
ENDBRANCH   2  17
TORSDOF 4
ENDMDL
MODEL 3
REMARK VINA RESULT:      -9.3      3.769      5.572
REMARK  4 active torsions:
REMARK  status: ('A' for Active; 'I' for Inactive)
REMARK    1  A    between atoms: N_2  and  C_4 
REMARK    2  A    between atoms: N_2  and  C_16 
REMARK    3  A    between atoms: C_4  and  C_5 
REMARK    4  A    between atoms: C_16  and  C_17 
ROOT
HETATM    1  C   UNL     1       8.358  27.968  57.112  1.00  0.00     0.270 C 
HETATM    2  N   UNL     1       7.735  26.667  56.685  1.00  0.00    -0.064 N 
HETATM    3  H   UNL     1       8.108  26.472  55.740  1.00  0.00     0.280 HD
ENDROOT
BRANCH   2   4
HETATM    4  C   UNL     1       8.213  25.492  57.531  1.00  0.00     0.312 C 
BRANCH   4   5
HETATM    5  C   UNL     1       8.206  24.191  56.741  1.00  0.00     0.133 A 
HETATM    6  N   UNL     1       8.091  24.241  55.451  1.00  0.00    -0.233 NA
HETATM    7  C   UNL     1       8.080  23.013  54.753  1.00  0.00     0.074 A 
HETATM    8  C   UNL     1       8.186  21.777  55.402  1.00  0.00     0.061 A 
HETATM    9  C   UNL     1       7.959  23.025  53.362  1.00  0.00     0.032 A 
HETATM   10  C   UNL     1       8.313  21.791  56.867  1.00  0.00     0.259 A 
HETATM   11  C   UNL     1       8.172  20.572  54.693  1.00  0.00     0.019 A 
HETATM   12  O   UNL     1       8.416  20.774  57.538  1.00  0.00    -0.267 OA
HETATM   13  N   UNL     1       8.315  23.031  57.453  1.00  0.00    -0.309 N 
HETATM   14  H   UNL     1       8.391  23.001  58.463  1.00  0.00     0.170 HD
HETATM   15  C   UNL     1       8.050  20.601  53.306  1.00  0.00     0.001 A 
HETATM   16  C   UNL     1       7.944  21.825  52.642  1.00  0.00     0.002 A 
ENDBRANCH   4   5
ENDBRANCH   2   4
BRANCH   2  17
HETATM   17  C   UNL     1       6.232  26.708  56.604  1.00  0.00     0.273 C 
BRANCH  17  18
HETATM   18  C   UNL     1       5.679  27.059  55.251  1.00  0.00    -0.028 A 
HETATM   19  C   UNL     1       4.898  28.208  55.063  1.00  0.00     0.035 A 
HETATM   20  C   UNL     1       4.409  28.538  53.792  1.00  0.00     0.070 A 
HETATM   21 CL   UNL     1       3.468  29.976  53.634  1.00  0.00    -0.081 Cl
HETATM   22  C   UNL     1       4.694  27.726  52.689  1.00  0.00     0.123 A 
HETATM   23  C   UNL     1       5.444  26.563  52.881  1.00  0.00     0.104 A 
HETATM   24  O   UNL     1       4.222  28.097  51.456  1.00  0.00    -0.344 OA
HETATM   25  O   UNL     1       5.752  25.684  51.874  1.00  0.00    -0.346 OA
HETATM   26  C   UNL     1       5.943  26.238  54.144  1.00  0.00     0.048 A 
HETATM   27  C   UNL     1       4.980  25.930  50.690  1.00  0.00     0.202 C 
HETATM   28  C   UNL     1       4.905  27.418  50.396  1.00  0.00     0.202 C 
ENDBRANCH  17  18
ENDBRANCH   2  17
TORSDOF 4
ENDMDL
MODEL 4
REMARK VINA RESULT:      -9.3      2.949      9.160
REMARK  4 active torsions:
REMARK  status: ('A' for Active; 'I' for Inactive)
REMARK    1  A    between atoms: N_2  and  C_4 
REMARK    2  A    between atoms: N_2  and  C_16 
REMARK    3  A    between atoms: C_4  and  C_5 
REMARK    4  A    between atoms: C_16  and  C_17 
ROOT
HETATM    1  C   UNL     1       9.164  28.670  56.972  1.00  0.00     0.270 C 
HETATM    2  N   UNL     1       7.926  28.841  57.809  1.00  0.00    -0.064 N 
HETATM    3  H   UNL     1       8.198  28.574  58.771  1.00  0.00     0.280 HD
ENDROOT
BRANCH   2   4
HETATM    4  C   UNL     1       7.506  30.302  57.926  1.00  0.00     0.312 C 
BRANCH   4   5
HETATM    5  C   UNL     1       7.660  30.819  59.351  1.00  0.00     0.133 A 
HETATM    6  N   UNL     1       6.928  31.815  59.738  1.00  0.00    -0.233 NA
HETATM    7  C   UNL     1       7.105  32.272  61.063  1.00  0.00     0.074 A 
HETATM    8  C   UNL     1       8.026  31.693  61.943  1.00  0.00     0.061 A 
HETATM    9  C   UNL     1       6.334  33.344  61.519  1.00  0.00     0.032 A 
HETATM   10  C   UNL     1       8.825  30.566  61.440  1.00  0.00     0.259 A 
HETATM   11  C   UNL     1       8.186  32.160  63.251  1.00  0.00     0.019 A 
HETATM   12  O   UNL     1       9.657  29.980  62.119  1.00  0.00    -0.267 OA
HETATM   13  N   UNL     1       8.581  30.194  60.142  1.00  0.00    -0.309 N 
HETATM   14  H   UNL     1       9.159  29.425  59.826  1.00  0.00     0.170 HD
HETATM   15  C   UNL     1       7.410  33.230  63.690  1.00  0.00     0.001 A 
HETATM   16  C   UNL     1       6.485  33.820  62.826  1.00  0.00     0.002 A 
ENDBRANCH   4   5
ENDBRANCH   2   4
BRANCH   2  17
HETATM   17  C   UNL     1       6.774  27.973  57.380  1.00  0.00     0.273 C 
BRANCH  17  18
HETATM   18  C   UNL     1       7.160  26.750  56.596  1.00  0.00    -0.028 A 
HETATM   19  C   UNL     1       7.106  26.741  55.194  1.00  0.00     0.035 A 
HETATM   20  C   UNL     1       7.492  25.603  54.472  1.00  0.00     0.070 A 
HETATM   21 CL   UNL     1       7.413  25.672  52.750  1.00  0.00    -0.081 Cl
HETATM   22  C   UNL     1       7.939  24.459  55.140  1.00  0.00     0.123 A 
HETATM   23  C   UNL     1       7.962  24.454  56.537  1.00  0.00     0.104 A 
HETATM   24  O   UNL     1       8.336  23.375  54.399  1.00  0.00    -0.344 OA
HETATM   25  O   UNL     1       8.353  23.373  57.286  1.00  0.00    -0.346 OA
HETATM   26  C   UNL     1       7.590  25.591  57.258  1.00  0.00     0.048 A 
HETATM   27  C   UNL     1       8.444  22.177  56.499  1.00  0.00     0.202 C 
HETATM   28  C   UNL     1       9.121  22.459  55.170  1.00  0.00     0.202 C 
ENDBRANCH  17  18
ENDBRANCH   2  17
TORSDOF 4
ENDMDL
MODEL 5
REMARK VINA RESULT:      -9.2      2.238      3.142
REMARK  4 active torsions:
REMARK  status: ('A' for Active; 'I' for Inactive)
REMARK    1  A    between atoms: N_2  and  C_4 
REMARK    2  A    between atoms: N_2  and  C_16 
REMARK    3  A    between atoms: C_4  and  C_5 
REMARK    4  A    between atoms: C_16  and  C_17 
ROOT
HETATM    1  C   UNL     1       5.170  25.660  51.501  1.00  0.00     0.270 C 
HETATM    2  N   UNL     1       6.194  26.141  52.492  1.00  0.00    -0.064 N 
HETATM    3  H   UNL     1       5.858  25.828  53.418  1.00  0.00     0.280 HD
ENDROOT
BRANCH   2   4
HETATM    4  C   UNL     1       7.537  25.442  52.319  1.00  0.00     0.312 C 
BRANCH   4   5
HETATM    5  C   UNL     1       7.736  24.342  53.354  1.00  0.00     0.133 A 
HETATM    6  N   UNL     1       8.074  23.158  52.954  1.00  0.00    -0.233 NA
HETATM    7  C   UNL     1       8.240  22.163  53.942  1.00  0.00     0.074 A 
HETATM    8  C   UNL     1       8.053  22.416  55.305  1.00  0.00     0.061 A 
HETATM    9  C   UNL     1       8.605  20.873  53.551  1.00  0.00     0.032 A 
HETATM   10  C   UNL     1       7.670  23.783  55.693  1.00  0.00     0.259 A 
HETATM   11  C   UNL     1       8.222  21.418  56.269  1.00  0.00     0.019 A 
HETATM   12  O   UNL     1       7.483  24.121  56.853  1.00  0.00    -0.267 OA
HETATM   13  N   UNL     1       7.534  24.678  54.662  1.00  0.00    -0.309 N 
HETATM   14  H   UNL     1       7.256  25.604  54.965  1.00  0.00     0.170 HD
HETATM   15  C   UNL     1       8.586  20.136  55.862  1.00  0.00     0.001 A 
HETATM   16  C   UNL     1       8.778  19.864  54.506  1.00  0.00     0.002 A 
ENDBRANCH   4   5
ENDBRANCH   2   4
BRANCH   2  17
HETATM   17  C   UNL     1       6.356  27.637  52.524  1.00  0.00     0.273 C 
BRANCH  17  18
HETATM   18  C   UNL     1       6.472  28.233  53.900  1.00  0.00    -0.028 A 
HETATM   19  C   UNL     1       5.339  28.684  54.592  1.00  0.00     0.035 A 
HETATM   20  C   UNL     1       5.456  29.215  55.884  1.00  0.00     0.070 A 
HETATM   21 CL   UNL     1       4.016  29.735  56.680  1.00  0.00    -0.081 Cl
HETATM   22  C   UNL     1       6.707  29.300  56.504  1.00  0.00     0.123 A 
HETATM   23  C   UNL     1       7.841  28.883  55.803  1.00  0.00     0.104 A 
HETATM   24  O   UNL     1       6.779  29.798  57.780  1.00  0.00    -0.344 OA
HETATM   25  O   UNL     1       9.115  28.953  56.308  1.00  0.00    -0.346 OA
HETATM   26  C   UNL     1       7.726  28.342  54.520  1.00  0.00     0.048 A 
HETATM   27  C   UNL     1       9.181  29.766  57.488  1.00  0.00     0.202 C 
HETATM   28  C   UNL     1       8.018  29.463  58.415  1.00  0.00     0.202 C 
ENDBRANCH  17  18
ENDBRANCH   2  17
TORSDOF 4
ENDMDL
MODEL 6
REMARK VINA RESULT:      -9.1      5.484      8.637
REMARK  4 active torsions:
REMARK  status: ('A' for Active; 'I' for Inactive)
REMARK    1  A    between atoms: N_2  and  C_4 
REMARK    2  A    between atoms: N_2  and  C_16 
REMARK    3  A    between atoms: C_4  and  C_5 
REMARK    4  A    between atoms: C_16  and  C_17 
ROOT
HETATM    1  C   UNL     1       5.032  25.222  53.323  1.00  0.00     0.270 C 
HETATM    2  N   UNL     1       6.140  25.721  52.436  1.00  0.00    -0.064 N 
HETATM    3  H   UNL     1       6.059  25.184  51.555  1.00  0.00     0.280 HD
ENDROOT
BRANCH   2   4
HETATM    4  C   UNL     1       5.932  27.172  52.015  1.00  0.00     0.312 C 
BRANCH   4   5
HETATM    5  C   UNL     1       4.871  27.296  50.929  1.00  0.00     0.133 A 
HETATM    6  N   UNL     1       4.806  26.385  50.010  1.00  0.00    -0.233 NA
HETATM    7  C   UNL     1       3.817  26.538  49.014  1.00  0.00     0.074 A 
HETATM    8  C   UNL     1       2.929  27.620  48.995  1.00  0.00     0.061 A 
HETATM    9  C   UNL     1       3.713  25.577  48.006  1.00  0.00     0.032 A 
HETATM   10  C   UNL     1       3.056  28.619  50.067  1.00  0.00     0.259 A 
HETATM   11  C   UNL     1       1.956  27.754  48.000  1.00  0.00     0.019 A 
HETATM   12  O   UNL     1       2.335  29.602  50.154  1.00  0.00    -0.267 OA
HETATM   13  N   UNL     1       4.047  28.382  50.987  1.00  0.00    -0.309 N 
HETATM   14  H   UNL     1       4.114  29.097  51.702  1.00  0.00     0.170 HD
HETATM   15  C   UNL     1       1.866  26.787  47.002  1.00  0.00     0.001 A 
HETATM   16  C   UNL     1       2.743  25.700  47.006  1.00  0.00     0.002 A 
ENDBRANCH   4   5
ENDBRANCH   2   4
BRANCH   2  17
HETATM   17  C   UNL     1       7.518  25.507  53.001  1.00  0.00     0.273 C 
BRANCH  17  18
HETATM   18  C   UNL     1       7.757  24.144  53.590  1.00  0.00    -0.028 A 
HETATM   19  C   UNL     1       7.799  23.002  52.778  1.00  0.00     0.035 A 
HETATM   20  C   UNL     1       8.047  21.740  53.335  1.00  0.00     0.070 A 
HETATM   21 CL   UNL     1       8.100  20.382  52.272  1.00  0.00    -0.081 Cl
HETATM   22  C   UNL     1       8.259  21.601  54.710  1.00  0.00     0.123 A 
HETATM   23  C   UNL     1       8.183  22.734  55.525  1.00  0.00     0.104 A 
HETATM   24  O   UNL     1       8.527  20.354  55.215  1.00  0.00    -0.344 OA
HETATM   25  O   UNL     1       8.344  22.701  56.887  1.00  0.00    -0.346 OA
HETATM   26  C   UNL     1       7.949  23.994  54.971  1.00  0.00     0.048 A 
HETATM   27  C   UNL     1       8.297  21.363  57.403  1.00  0.00     0.202 C 
HETATM   28  C   UNL     1       9.101  20.420  56.525  1.00  0.00     0.202 C 
ENDBRANCH  17  18
ENDBRANCH   2  17
TORSDOF 4
ENDMDL
MODEL 7
REMARK VINA RESULT:      -9.1      2.179      3.052
REMARK  4 active torsions:
REMARK  status: ('A' for Active; 'I' for Inactive)
REMARK    1  A    between atoms: N_2  and  C_4 
REMARK    2  A    between atoms: N_2  and  C_16 
REMARK    3  A    between atoms: C_4  and  C_5 
REMARK    4  A    between atoms: C_16  and  C_17 
ROOT
HETATM    1  C   UNL     1       5.394  26.265  53.446  1.00  0.00     0.270 C 
HETATM    2  N   UNL     1       6.844  26.469  53.794  1.00  0.00    -0.064 N 
HETATM    3  H   UNL     1       6.952  26.123  54.762  1.00  0.00     0.280 HD
ENDROOT
BRANCH   2   4
HETATM    4  C   UNL     1       7.766  25.579  52.967  1.00  0.00     0.312 C 
BRANCH   4   5
HETATM    5  C   UNL     1       7.899  24.189  53.576  1.00  0.00     0.133 A 
HETATM    6  N   UNL     1       8.040  24.077  54.859  1.00  0.00    -0.233 NA
HETATM    7  C   UNL     1       8.170  22.773  55.385  1.00  0.00     0.074 A 
HETATM    8  C   UNL     1       8.151  21.630  54.579  1.00  0.00     0.061 A 
HETATM    9  C   UNL     1       8.323  22.611  56.764  1.00  0.00     0.032 A 
HETATM   10  C   UNL     1       7.987  21.827  53.130  1.00  0.00     0.259 A 
HETATM   11  C   UNL     1       8.280  20.347  55.119  1.00  0.00     0.019 A 
HETATM   12  O   UNL     1       7.952  20.903  52.330  1.00  0.00    -0.267 OA
HETATM   13  N   UNL     1       7.868  23.129  52.716  1.00  0.00    -0.309 N 
HETATM   14  H   UNL     1       7.771  23.227  51.712  1.00  0.00     0.170 HD
HETATM   15  C   UNL     1       8.434  20.202  56.496  1.00  0.00     0.001 A 
HETATM   16  C   UNL     1       8.454  21.332  57.317  1.00  0.00     0.002 A 
ENDBRANCH   4   5
ENDBRANCH   2   4
BRANCH   2  17
HETATM   17  C   UNL     1       7.286  27.907  53.748  1.00  0.00     0.273 C 
BRANCH  17  18
HETATM   18  C   UNL     1       7.290  28.611  55.077  1.00  0.00    -0.028 A 
HETATM   19  C   UNL     1       6.091  28.992  55.698  1.00  0.00     0.035 A 
HETATM   20  C   UNL     1       6.106  29.626  56.948  1.00  0.00     0.070 A 
HETATM   21 CL   UNL     1       4.592  30.052  57.658  1.00  0.00    -0.081 Cl
HETATM   22  C   UNL     1       7.317  29.886  57.597  1.00  0.00     0.123 A 
HETATM   23  C   UNL     1       8.513  29.537  56.965  1.00  0.00     0.104 A 
HETATM   24  O   UNL     1       7.290  30.481  58.833  1.00  0.00    -0.344 OA
HETATM   25  O   UNL     1       9.753  29.776  57.500  1.00  0.00    -0.346 OA
HETATM   26  C   UNL     1       8.501  28.894  55.724  1.00  0.00     0.048 A 
HETATM   27  C   UNL     1       9.693  30.676  58.616  1.00  0.00     0.202 C 
HETATM   28  C   UNL     1       8.532  30.324  59.529  1.00  0.00     0.202 C 
ENDBRANCH  17  18
ENDBRANCH   2  17
TORSDOF 4
ENDMDL
MODEL 8
REMARK VINA RESULT:      -9.0      2.549      8.939
REMARK  4 active torsions:
REMARK  status: ('A' for Active; 'I' for Inactive)
REMARK    1  A    between atoms: N_2  and  C_4 
REMARK    2  A    between atoms: N_2  and  C_16 
REMARK    3  A    between atoms: C_4  and  C_5 
REMARK    4  A    between atoms: C_16  and  C_17 
ROOT
HETATM    1  C   UNL     1       5.920  28.000  57.296  1.00  0.00     0.270 C 
HETATM    2  N   UNL     1       7.245  27.616  56.697  1.00  0.00    -0.064 N 
HETATM    3  H   UNL     1       7.052  27.390  55.707  1.00  0.00     0.280 HD
ENDROOT
BRANCH   2   4
HETATM    4  C   UNL     1       8.213  28.793  56.636  1.00  0.00     0.312 C 
BRANCH   4   5
HETATM    5  C   UNL     1       7.977  29.774  57.778  1.00  0.00     0.133 A 
HETATM    6  N   UNL     1       8.640  29.623  58.880  1.00  0.00    -0.233 NA
HETATM    7  C   UNL     1       8.389  30.546  59.919  1.00  0.00     0.074 A 
HETATM    8  C   UNL     1       7.466  31.590  59.792  1.00  0.00     0.061 A 
HETATM    9  C   UNL     1       9.084  30.417  61.124  1.00  0.00     0.032 A 
HETATM   10  C   UNL     1       6.747  31.706  58.514  1.00  0.00     0.259 A 
HETATM   11  C   UNL     1       7.231  32.494  60.832  1.00  0.00     0.019 A 
HETATM   12  O   UNL     1       5.922  32.579  58.288  1.00  0.00    -0.267 OA
HETATM   13  N   UNL     1       7.061  30.763  57.567  1.00  0.00    -0.309 N 
HETATM   14  H   UNL     1       6.536  30.866  56.706  1.00  0.00     0.170 HD
HETATM   15  C   UNL     1       7.932  32.352  62.027  1.00  0.00     0.001 A 
HETATM   16  C   UNL     1       8.857  31.316  62.172  1.00  0.00     0.002 A 
ENDBRANCH   4   5
ENDBRANCH   2   4
BRANCH   2  17
HETATM   17  C   UNL     1       7.883  26.417  57.345  1.00  0.00     0.273 C 
BRANCH  17  18
HETATM   18  C   UNL     1       7.903  25.175  56.497  1.00  0.00    -0.028 A 
HETATM   19  C   UNL     1       7.693  25.240  55.112  1.00  0.00     0.035 A 
HETATM   20  C   UNL     1       7.738  24.079  54.328  1.00  0.00     0.070 A 
HETATM   21 CL   UNL     1       7.486  24.238  52.629  1.00  0.00    -0.081 Cl
HETATM   22  C   UNL     1       7.997  22.836  54.916  1.00  0.00     0.123 A 
HETATM   23  C   UNL     1       8.173  22.765  56.301  1.00  0.00     0.104 A 
HETATM   24  O   UNL     1       8.062  21.726  54.113  1.00  0.00    -0.344 OA
HETATM   25  O   UNL     1       8.399  21.594  56.978  1.00  0.00    -0.346 OA
HETATM   26  C   UNL     1       8.140  23.922  57.083  1.00  0.00     0.048 A 
HETATM   27  C   UNL     1       8.139  20.442  56.163  1.00  0.00     0.202 C 
HETATM   28  C   UNL     1       8.710  20.630  54.769  1.00  0.00     0.202 C 
ENDBRANCH  17  18
ENDBRANCH   2  17
TORSDOF 4
ENDMDL
MODEL 9
REMARK VINA RESULT:      -8.8      1.598      2.155
REMARK  4 active torsions:
REMARK  status: ('A' for Active; 'I' for Inactive)
REMARK    1  A    between atoms: N_2  and  C_4 
REMARK    2  A    between atoms: N_2  and  C_16 
REMARK    3  A    between atoms: C_4  and  C_5 
REMARK    4  A    between atoms: C_16  and  C_17 
ROOT
HETATM    1  C   UNL     1       5.304  28.887  55.153  1.00  0.00     0.270 C 
HETATM    2  N   UNL     1       5.737  27.895  56.198  1.00  0.00    -0.064 N 
HETATM    3  H   UNL     1       5.429  28.288  57.104  1.00  0.00     0.280 HD
ENDROOT
BRANCH   2   4
HETATM    4  C   UNL     1       4.986  26.573  56.085  1.00  0.00     0.312 C 
BRANCH   4   5
HETATM    5  C   UNL     1       5.748  25.565  55.234  1.00  0.00     0.133 A 
HETATM    6  N   UNL     1       6.321  24.560  55.815  1.00  0.00    -0.233 NA
HETATM    7  C   UNL     1       7.026  23.652  54.995  1.00  0.00     0.074 A 
HETATM    8  C   UNL     1       7.120  23.807  53.608  1.00  0.00     0.061 A 
HETATM    9  C   UNL     1       7.657  22.555  55.584  1.00  0.00     0.032 A 
HETATM   10  C   UNL     1       6.447  24.970  53.010  1.00  0.00     0.259 A 
HETATM   11  C   UNL     1       7.823  22.898  52.812  1.00  0.00     0.019 A 
HETATM   12  O   UNL     1       6.458  25.206  51.810  1.00  0.00    -0.267 OA
HETATM   13  N   UNL     1       5.788  25.793  53.888  1.00  0.00    -0.309 N 
HETATM   14  H   UNL     1       5.348  26.590  53.443  1.00  0.00     0.170 HD
HETATM   15  C   UNL     1       8.447  21.808  53.415  1.00  0.00     0.001 A 
HETATM   16  C   UNL     1       8.364  21.637  54.799  1.00  0.00     0.002 A 
ENDBRANCH   4   5
ENDBRANCH   2   4
BRANCH   2  17
HETATM   17  C   UNL     1       7.225  27.677  56.253  1.00  0.00     0.273 C 
BRANCH  17  18
HETATM   18  C   UNL     1       7.980  28.669  57.094  1.00  0.00    -0.028 A 
HETATM   19  C   UNL     1       9.353  28.882  56.904  1.00  0.00     0.035 A 
HETATM   20  C   UNL     1      10.043  29.827  57.677  1.00  0.00     0.070 A 
HETATM   21 CL   UNL     1      11.727  30.045  57.376  1.00  0.00    -0.081 Cl
HETATM   22  C   UNL     1       9.369  30.575  58.648  1.00  0.00     0.123 A 
HETATM   23  C   UNL     1       8.009  30.340  58.862  1.00  0.00     0.104 A 
HETATM   24  O   UNL     1      10.071  31.511  59.365  1.00  0.00    -0.344 OA
HETATM   25  O   UNL     1       7.265  30.995  59.810  1.00  0.00    -0.346 OA
HETATM   26  C   UNL     1       7.317  29.407  58.085  1.00  0.00     0.048 A 
HETATM   27  C   UNL     1       8.089  31.713  60.739  1.00  0.00     0.202 C 
HETATM   28  C   UNL     1       9.203  32.447  60.014  1.00  0.00     0.202 C 
ENDBRANCH  17  18
ENDBRANCH   2  17
TORSDOF 4
ENDMDL
MODEL 10
REMARK VINA RESULT:      -8.8      3.872      5.841
REMARK  4 active torsions:
REMARK  status: ('A' for Active; 'I' for Inactive)
REMARK    1  A    between atoms: N_2  and  C_4 
REMARK    2  A    between atoms: N_2  and  C_16 
REMARK    3  A    between atoms: C_4  and  C_5 
REMARK    4  A    between atoms: C_16  and  C_17 
ROOT
HETATM    1  C   UNL     1       7.358  28.267  57.064  1.00  0.00     0.270 C 
HETATM    2  N   UNL     1       6.844  27.071  56.309  1.00  0.00    -0.064 N 
HETATM    3  H   UNL     1       7.349  27.069  55.407  1.00  0.00     0.280 HD
ENDROOT
BRANCH   2   4
HETATM    4  C   UNL     1       7.245  25.757  56.971  1.00  0.00     0.312 C 
BRANCH   4   5
HETATM    5  C   UNL     1       7.512  24.668  55.940  1.00  0.00     0.133 A 
HETATM    6  N   UNL     1       7.543  23.432  56.327  1.00  0.00    -0.233 NA
HETATM    7  C   UNL     1       7.803  22.451  55.346  1.00  0.00     0.074 A 
HETATM    8  C   UNL     1       8.023  22.771  54.001  1.00  0.00     0.061 A 
HETATM    9  C   UNL     1       7.844  21.107  55.723  1.00  0.00     0.032 A 
HETATM   10  C   UNL     1       7.974  24.193  53.627  1.00  0.00     0.259 A 
HETATM   11  C   UNL     1       8.279  21.786  53.043  1.00  0.00     0.019 A 
HETATM   12  O   UNL     1       8.147  24.590  52.484  1.00  0.00    -0.267 OA
HETATM   13  N   UNL     1       7.714  25.069  54.651  1.00  0.00    -0.309 N 
HETATM   14  H   UNL     1       7.702  26.039  54.359  1.00  0.00     0.170 HD
HETATM   15  C   UNL     1       8.317  20.450  53.436  1.00  0.00     0.001 A 
HETATM   16  C   UNL     1       8.099  20.111  54.774  1.00  0.00     0.002 A 
ENDBRANCH   4   5
ENDBRANCH   2   4
BRANCH   2  17
HETATM   17  C   UNL     1       5.366  27.115  56.029  1.00  0.00     0.273 C 
BRANCH  17  18
HETATM   18  C   UNL     1       4.996  27.589  54.651  1.00  0.00    -0.028 A 
HETATM   19  C   UNL     1       4.351  28.819  54.458  1.00  0.00     0.035 A 
HETATM   20  C   UNL     1       4.033  29.263  53.167  1.00  0.00     0.070 A 
HETATM   21 CL   UNL     1       3.254  30.794  53.006  1.00  0.00    -0.081 Cl
HETATM   22  C   UNL     1       4.356  28.485  52.050  1.00  0.00     0.123 A 
HETATM   23  C   UNL     1       4.968  27.244  52.243  1.00  0.00     0.104 A 
HETATM   24  O   UNL     1       4.055  28.966  50.801  1.00  0.00    -0.344 OA
HETATM   25  O   UNL     1       5.297  26.393  51.219  1.00  0.00    -0.346 OA
HETATM   26  C   UNL     1       5.298  26.805  53.528  1.00  0.00     0.048 A 
HETATM   27  C   UNL     1       4.683  26.776  49.981  1.00  0.00     0.202 C 
HETATM   28  C   UNL     1       4.780  28.278  49.776  1.00  0.00     0.202 C 
ENDBRANCH  17  18
ENDBRANCH   2  17
TORSDOF 4
ENDMDL
