MODEL 1
REMARK VINA RESULT:      -9.9      0.000      0.000
REMARK  7 active torsions:
REMARK  status: ('A' for Active; 'I' for Inactive)
REMARK    1  A    between atoms: S_2  and  C_3 
REMARK    2  A    between atoms: C_3  and  C_4 
REMARK    3  A    between atoms: C_4  and  C_5 
REMARK    4  A    between atoms: C_5  and  N_6 
REMARK    5  A    between atoms: C_5  and  C_26 
REMARK       I    between atoms: N_6  and  C_7 
REMARK    6  A    between atoms: C_7  and  C_8 
REMARK    7  A    between atoms: C_8  and  N_9 
ROOT
HETATM    1  N   UNL     1       7.582  29.207  58.767  1.00  0.00    -0.348 N 
HETATM    2  C   UNL     1       7.043  28.394  57.798  1.00  0.00     0.236 C 
HETATM    3  O   UNL     1       6.531  28.852  56.775  1.00  0.00    -0.272 OA
HETATM    4  H   UNL     1       7.719  28.831  59.694  1.00  0.00     0.163 HD
ENDROOT
BRANCH   2   5
HETATM    5  C   UNL     1       7.192  26.885  58.001  1.00  0.00     0.239 C 
BRANCH   5   6
HETATM    6  N   UNL     1       6.714  26.063  56.909  1.00  0.00    -0.259 N 
HETATM    7  C   UNL     1       5.502  25.453  56.875  1.00  0.00     0.326 A 
HETATM    8  O   UNL     1       4.671  25.411  57.765  1.00  0.00    -0.247 OA
HETATM    9  N   UNL     1       5.341  24.863  55.647  1.00  0.00    -0.320 N 
HETATM   10  C   UNL     1       6.480  25.055  54.771  1.00  0.00     0.144 A 
HETATM   11  H   UNL     1       4.522  24.313  55.425  1.00  0.00     0.165 HD
HETATM   12  C   UNL     1       7.125  23.732  54.389  1.00  0.00    -0.014 A 
HETATM   13  C   UNL     1       6.069  25.914  53.566  1.00  0.00     0.047 C 
HETATM   14  C   UNL     1       7.372  25.895  55.720  1.00  0.00     0.261 A 
HETATM   15  C   UNL     1       7.626  23.526  53.086  1.00  0.00    -0.049 A 
HETATM   16  C   UNL     1       7.251  22.690  55.330  1.00  0.00     0.011 A 
HETATM   17  C   UNL     1       8.213  22.294  52.753  1.00  0.00     0.007 A 
HETATM   18  C   UNL     1       7.486  24.562  51.996  1.00  0.00     0.039 C 
HETATM   19  C   UNL     1       8.321  21.275  53.697  1.00  0.00     0.001 A 
HETATM   20  C   UNL     1       7.841  21.473  54.986  1.00  0.00     0.001 A 
HETATM   21  C   UNL     1       7.172  25.961  52.514  1.00  0.00     0.008 C 
HETATM   22  O   UNL     1       8.483  26.338  55.465  1.00  0.00    -0.270 OA
ENDBRANCH   5   6
ENDBRANCH   2   5
BRANCH   1  23
HETATM   23  C   UNL     1       7.622  30.654  58.620  1.00  0.00     0.155 C 
BRANCH  23  24
HETATM   24  C   UNL     1       8.927  31.114  57.952  1.00  0.00     0.043 C 
BRANCH  24  25
HETATM   25  C   UNL     1      10.170  30.325  58.371  1.00  0.00     0.076 C 
BRANCH  25  26
HETATM   26  S   UNL     1      11.148  29.639  56.991  1.00  0.00    -0.173 SA
HETATM   27  C   UNL     1       9.877  29.591  55.705  1.00  0.00     0.089 C 
ENDBRANCH  25  26
ENDBRANCH  24  25
ENDBRANCH  23  24
BRANCH  23  28
HETATM   28  C   UNL     1       7.459  31.260  59.984  1.00  0.00     0.128 A 
HETATM   29  N   UNL     1       8.348  31.340  60.956  1.00  0.00    -0.231 NA
HETATM   30  C   UNL     1       7.708  31.993  61.984  1.00  0.00     0.085 A 
HETATM   31  C   UNL     1       6.397  32.302  61.641  1.00  0.00     0.062 A 
HETATM   32  C   UNL     1       8.186  32.357  63.252  1.00  0.00     0.034 A 
HETATM   33  N   UNL     1       6.259  31.816  60.368  1.00  0.00    -0.341 N 
HETATM   34  C   UNL     1       5.512  32.960  62.497  1.00  0.00     0.032 A 
HETATM   35  H   UNL     1       5.418  31.815  59.804  1.00  0.00     0.167 HD
HETATM   36  C   UNL     1       6.007  33.316  63.756  1.00  0.00     0.002 A 
HETATM   37  C   UNL     1       7.320  33.023  64.131  1.00  0.00     0.002 A 
ENDBRANCH  23  28
ENDBRANCH   1  23
TORSDOF 7
ENDMDL
MODEL 2
REMARK VINA RESULT:      -9.5      2.544      9.271
REMARK  7 active torsions:
REMARK  status: ('A' for Active; 'I' for Inactive)
REMARK    1  A    between atoms: S_2  and  C_3 
REMARK    2  A    between atoms: C_3  and  C_4 
REMARK    3  A    between atoms: C_4  and  C_5 
REMARK    4  A    between atoms: C_5  and  N_6 
REMARK    5  A    between atoms: C_5  and  C_26 
REMARK       I    between atoms: N_6  and  C_7 
REMARK    6  A    between atoms: C_7  and  C_8 
REMARK    7  A    between atoms: C_8  and  N_9 
ROOT
HETATM    1  N   UNL     1       7.992  29.024  55.578  1.00  0.00    -0.348 N 
HETATM    2  C   UNL     1       9.314  29.372  55.424  1.00  0.00     0.236 C 
HETATM    3  O   UNL     1       9.874  29.329  54.328  1.00  0.00    -0.272 OA
HETATM    4  H   UNL     1       7.657  28.792  56.501  1.00  0.00     0.163 HD
ENDROOT
BRANCH   2   5
HETATM    5  C   UNL     1      10.035  29.909  56.661  1.00  0.00     0.239 C 
BRANCH   5   6
HETATM    6  N   UNL     1       9.223  30.013  57.856  1.00  0.00    -0.259 N 
HETATM    7  C   UNL     1       8.421  29.026  58.332  1.00  0.00     0.326 A 
HETATM    8  O   UNL     1       8.177  27.955  57.806  1.00  0.00    -0.247 OA
HETATM    9  N   UNL     1       7.899  29.427  59.536  1.00  0.00    -0.320 N 
HETATM   10  C   UNL     1       8.342  30.748  59.935  1.00  0.00     0.144 A 
HETATM   11  H   UNL     1       7.236  28.857  60.044  1.00  0.00     0.165 HD
HETATM   12  C   UNL     1       7.177  31.718  60.061  1.00  0.00    -0.014 A 
HETATM   13  C   UNL     1       9.202  30.646  61.204  1.00  0.00     0.047 C 
HETATM   14  C   UNL     1       9.252  31.072  58.723  1.00  0.00     0.261 A 
HETATM   15  C   UNL     1       7.150  32.681  61.092  1.00  0.00    -0.049 A 
HETATM   16  C   UNL     1       6.108  31.686  59.142  1.00  0.00     0.011 A 
HETATM   17  C   UNL     1       6.061  33.562  61.192  1.00  0.00     0.007 A 
HETATM   18  C   UNL     1       8.222  32.753  62.154  1.00  0.00     0.039 C 
HETATM   19  C   UNL     1       5.012  33.509  60.278  1.00  0.00     0.001 A 
HETATM   20  C   UNL     1       5.035  32.572  59.252  1.00  0.00     0.001 A 
HETATM   21  C   UNL     1       9.508  32.024  61.781  1.00  0.00     0.008 C 
HETATM   22  O   UNL     1       9.893  32.100  58.554  1.00  0.00    -0.270 OA
ENDBRANCH   5   6
ENDBRANCH   2   5
BRANCH   1  23
HETATM   23  C   UNL     1       7.166  28.630  54.447  1.00  0.00     0.155 C 
BRANCH  23  24
HETATM   24  C   UNL     1       5.693  29.008  54.669  1.00  0.00     0.043 C 
BRANCH  24  25
HETATM   25  C   UNL     1       5.438  29.878  55.902  1.00  0.00     0.076 C 
BRANCH  25  26
HETATM   26  S   UNL     1       4.694  31.508  55.555  1.00  0.00    -0.173 SA
HETATM   27  C   UNL     1       2.954  31.128  55.873  1.00  0.00     0.089 C 
ENDBRANCH  25  26
ENDBRANCH  24  25
ENDBRANCH  23  24
BRANCH  23  28
HETATM   28  C   UNL     1       7.330  27.150  54.252  1.00  0.00     0.128 A 
HETATM   29  N   UNL     1       7.562  26.493  53.131  1.00  0.00    -0.231 NA
HETATM   30  C   UNL     1       7.641  25.168  53.493  1.00  0.00     0.085 A 
HETATM   31  C   UNL     1       7.437  25.011  54.859  1.00  0.00     0.062 A 
HETATM   32  C   UNL     1       7.885  24.035  52.704  1.00  0.00     0.034 A 
HETATM   33  N   UNL     1       7.231  26.284  55.317  1.00  0.00    -0.341 N 
HETATM   34  C   UNL     1       7.455  23.772  55.502  1.00  0.00     0.032 A 
HETATM   35  H   UNL     1       7.000  26.561  56.264  1.00  0.00     0.167 HD
HETATM   36  C   UNL     1       7.700  22.652  54.699  1.00  0.00     0.002 A 
HETATM   37  C   UNL     1       7.913  22.777  53.324  1.00  0.00     0.002 A 
ENDBRANCH  23  28
ENDBRANCH   1  23
TORSDOF 7
ENDMDL
MODEL 3
REMARK VINA RESULT:      -9.4      2.249      2.750
REMARK  7 active torsions:
REMARK  status: ('A' for Active; 'I' for Inactive)
REMARK    1  A    between atoms: S_2  and  C_3 
REMARK    2  A    between atoms: C_3  and  C_4 
REMARK    3  A    between atoms: C_4  and  C_5 
REMARK    4  A    between atoms: C_5  and  N_6 
REMARK    5  A    between atoms: C_5  and  C_26 
REMARK       I    between atoms: N_6  and  C_7 
REMARK    6  A    between atoms: C_7  and  C_8 
REMARK    7  A    between atoms: C_8  and  N_9 
ROOT
HETATM    1  N   UNL     1       6.149  30.258  58.527  1.00  0.00    -0.348 N 
HETATM    2  C   UNL     1       5.799  29.321  57.585  1.00  0.00     0.236 C 
HETATM    3  O   UNL     1       4.806  29.458  56.868  1.00  0.00    -0.272 OA
HETATM    4  H   UNL     1       6.772  29.986  59.274  1.00  0.00     0.163 HD
ENDROOT
BRANCH   2   5
HETATM    5  C   UNL     1       6.754  28.141  57.396  1.00  0.00     0.239 C 
BRANCH   5   6
HETATM    6  N   UNL     1       6.300  27.117  56.479  1.00  0.00    -0.259 N 
HETATM    7  C   UNL     1       5.262  26.275  56.715  1.00  0.00     0.326 A 
HETATM    8  O   UNL     1       4.614  26.170  57.742  1.00  0.00    -0.247 OA
HETATM    9  N   UNL     1       5.041  25.523  55.588  1.00  0.00    -0.320 N 
HETATM   10  C   UNL     1       5.954  25.838  54.508  1.00  0.00     0.144 A 
HETATM   11  H   UNL     1       4.338  24.797  55.564  1.00  0.00     0.165 HD
HETATM   12  C   UNL     1       6.805  24.637  54.123  1.00  0.00    -0.014 A 
HETATM   13  C   UNL     1       5.177  26.448  53.332  1.00  0.00     0.047 C 
HETATM   14  C   UNL     1       6.780  26.947  55.208  1.00  0.00     0.261 A 
HETATM   15  C   UNL     1       7.124  24.384  52.772  1.00  0.00    -0.049 A 
HETATM   16  C   UNL     1       7.305  23.760  55.107  1.00  0.00     0.011 A 
HETATM   17  C   UNL     1       7.906  23.266  52.439  1.00  0.00     0.007 A 
HETATM   18  C   UNL     1       6.587  25.236  51.645  1.00  0.00     0.039 C 
HETATM   19  C   UNL     1       8.384  22.409  53.427  1.00  0.00     0.001 A 
HETATM   20  C   UNL     1       8.085  22.656  54.761  1.00  0.00     0.001 A 
HETATM   21  C   UNL     1       6.060  26.592  52.097  1.00  0.00     0.008 C 
HETATM   22  O   UNL     1       7.712  27.572  54.720  1.00  0.00    -0.270 OA
ENDBRANCH   5   6
ENDBRANCH   2   5
BRANCH   1  23
HETATM   23  C   UNL     1       5.393  31.490  58.702  1.00  0.00     0.155 C 
BRANCH  23  24
HETATM   24  C   UNL     1       5.631  32.465  57.539  1.00  0.00     0.043 C 
BRANCH  24  25
HETATM   25  C   UNL     1       4.355  33.032  56.911  1.00  0.00     0.076 C 
BRANCH  25  26
HETATM   26  S   UNL     1       4.089  32.578  55.164  1.00  0.00    -0.173 SA
HETATM   27  C   UNL     1       2.437  31.850  55.281  1.00  0.00     0.089 C 
ENDBRANCH  25  26
ENDBRANCH  24  25
ENDBRANCH  23  24
BRANCH  23  28
HETATM   28  C   UNL     1       5.797  32.094  60.017  1.00  0.00     0.128 A 
HETATM   29  N   UNL     1       5.299  33.159  60.616  1.00  0.00    -0.231 NA
HETATM   30  C   UNL     1       6.002  33.278  61.793  1.00  0.00     0.085 A 
HETATM   31  C   UNL     1       6.960  32.278  61.907  1.00  0.00     0.062 A 
HETATM   32  C   UNL     1       5.879  34.226  62.820  1.00  0.00     0.034 A 
HETATM   33  N   UNL     1       6.817  31.544  60.761  1.00  0.00    -0.341 N 
HETATM   34  C   UNL     1       7.824  32.159  62.997  1.00  0.00     0.032 A 
HETATM   35  H   UNL     1       7.381  30.755  60.467  1.00  0.00     0.167 HD
HETATM   36  C   UNL     1       7.685  33.113  64.012  1.00  0.00     0.002 A 
HETATM   37  C   UNL     1       6.730  34.129  63.930  1.00  0.00     0.002 A 
ENDBRANCH  23  28
ENDBRANCH   1  23
TORSDOF 7
ENDMDL
MODEL 4
REMARK VINA RESULT:      -9.3      3.176      4.234
REMARK  7 active torsions:
REMARK  status: ('A' for Active; 'I' for Inactive)
REMARK    1  A    between atoms: S_2  and  C_3 
REMARK    2  A    between atoms: C_3  and  C_4 
REMARK    3  A    between atoms: C_4  and  C_5 
REMARK    4  A    between atoms: C_5  and  N_6 
REMARK    5  A    between atoms: C_5  and  C_26 
REMARK       I    between atoms: N_6  and  C_7 
REMARK    6  A    between atoms: C_7  and  C_8 
REMARK    7  A    between atoms: C_8  and  N_9 
ROOT
HETATM    1  N   UNL     1       5.015  30.341  55.659  1.00  0.00    -0.348 N 
HETATM    2  C   UNL     1       4.133  29.287  55.640  1.00  0.00     0.236 C 
HETATM    3  O   UNL     1       3.173  29.229  56.411  1.00  0.00    -0.272 OA
HETATM    4  H   UNL     1       5.924  30.220  55.237  1.00  0.00     0.163 HD
ENDROOT
BRANCH   2   5
HETATM    5  C   UNL     1       4.339  28.233  54.551  1.00  0.00     0.239 C 
BRANCH   5   6
HETATM    6  N   UNL     1       5.616  27.550  54.585  1.00  0.00    -0.259 N 
HETATM    7  C   UNL     1       6.690  27.884  53.826  1.00  0.00     0.326 A 
HETATM    8  O   UNL     1       6.740  28.726  52.947  1.00  0.00    -0.247 OA
HETATM    9  N   UNL     1       7.755  27.105  54.205  1.00  0.00    -0.320 N 
HETATM   10  C   UNL     1       7.429  26.178  55.270  1.00  0.00     0.144 A 
HETATM   11  H   UNL     1       8.647  27.160  53.733  1.00  0.00     0.165 HD
HETATM   12  C   UNL     1       7.604  24.732  54.830  1.00  0.00    -0.014 A 
HETATM   13  C   UNL     1       8.222  26.541  56.534  1.00  0.00     0.047 C 
HETATM   14  C   UNL     1       5.940  26.558  55.471  1.00  0.00     0.261 A 
HETATM   15  C   UNL     1       8.125  23.768  55.719  1.00  0.00    -0.049 A 
HETATM   16  C   UNL     1       7.237  24.321  53.533  1.00  0.00     0.011 A 
HETATM   17  C   UNL     1       8.284  22.440  55.290  1.00  0.00     0.007 A 
HETATM   18  C   UNL     1       8.598  24.126  57.109  1.00  0.00     0.039 C 
HETATM   19  C   UNL     1       7.920  22.057  54.002  1.00  0.00     0.001 A 
HETATM   20  C   UNL     1       7.396  22.997  53.123  1.00  0.00     0.001 A 
HETATM   21  C   UNL     1       8.077  25.469  57.608  1.00  0.00     0.008 C 
HETATM   22  O   UNL     1       5.170  26.060  56.280  1.00  0.00    -0.270 OA
ENDBRANCH   5   6
ENDBRANCH   2   5
BRANCH   1  23
HETATM   23  C   UNL     1       4.841  31.472  56.559  1.00  0.00     0.155 C 
BRANCH  23  24
HETATM   24  C   UNL     1       4.926  32.808  55.804  1.00  0.00     0.043 C 
BRANCH  24  25
HETATM   25  C   UNL     1       3.601  33.568  55.704  1.00  0.00     0.076 C 
BRANCH  25  26
HETATM   26  S   UNL     1       2.188  32.579  55.107  1.00  0.00    -0.173 SA
HETATM   27  C   UNL     1       2.755  32.210  53.430  1.00  0.00     0.089 C 
ENDBRANCH  25  26
ENDBRANCH  24  25
ENDBRANCH  23  24
BRANCH  23  28
HETATM   28  C   UNL     1       5.893  31.376  57.626  1.00  0.00     0.128 A 
HETATM   29  N   UNL     1       6.866  30.492  57.740  1.00  0.00    -0.231 NA
HETATM   30  C   UNL     1       7.556  30.850  58.875  1.00  0.00     0.085 A 
HETATM   31  C   UNL     1       6.982  31.964  59.477  1.00  0.00     0.062 A 
HETATM   32  C   UNL     1       8.688  30.265  59.460  1.00  0.00     0.034 A 
HETATM   33  N   UNL     1       5.921  32.274  58.670  1.00  0.00    -0.341 N 
HETATM   34  C   UNL     1       7.471  32.543  60.650  1.00  0.00     0.032 A 
HETATM   35  H   UNL     1       5.235  33.004  58.819  1.00  0.00     0.167 HD
HETATM   36  C   UNL     1       8.602  31.945  61.218  1.00  0.00     0.002 A 
HETATM   37  C   UNL     1       9.203  30.827  60.637  1.00  0.00     0.002 A 
ENDBRANCH  23  28
ENDBRANCH   1  23
TORSDOF 7
ENDMDL
MODEL 5
REMARK VINA RESULT:      -9.1      4.418      8.102
REMARK  7 active torsions:
REMARK  status: ('A' for Active; 'I' for Inactive)
REMARK    1  A    between atoms: S_2  and  C_3 
REMARK    2  A    between atoms: C_3  and  C_4 
REMARK    3  A    between atoms: C_4  and  C_5 
REMARK    4  A    between atoms: C_5  and  N_6 
REMARK    5  A    between atoms: C_5  and  C_26 
REMARK       I    between atoms: N_6  and  C_7 
REMARK    6  A    between atoms: C_7  and  C_8 
REMARK    7  A    between atoms: C_8  and  N_9 
ROOT
HETATM    1  N   UNL     1       5.811  29.264  54.731  1.00  0.00    -0.348 N 
HETATM    2  C   UNL     1       4.454  29.409  54.902  1.00  0.00     0.236 C 
HETATM    3  O   UNL     1       3.863  28.917  55.865  1.00  0.00    -0.272 OA
HETATM    4  H   UNL     1       6.203  29.418  53.814  1.00  0.00     0.163 HD
ENDROOT
BRANCH   2   5
HETATM    5  C   UNL     1       3.721  30.292  53.891  1.00  0.00     0.239 C 
BRANCH   5   6
HETATM    6  N   UNL     1       3.953  29.965  52.499  1.00  0.00    -0.259 N 
HETATM    7  C   UNL     1       4.510  30.806  51.591  1.00  0.00     0.326 A 
HETATM    8  O   UNL     1       4.813  31.975  51.756  1.00  0.00    -0.247 OA
HETATM    9  N   UNL     1       4.686  30.126  50.412  1.00  0.00    -0.320 N 
HETATM   10  C   UNL     1       4.236  28.750  50.479  1.00  0.00     0.144 A 
HETATM   11  H   UNL     1       5.047  30.582  49.585  1.00  0.00     0.165 HD
HETATM   12  C   UNL     1       3.109  28.479  49.494  1.00  0.00    -0.014 A 
HETATM   13  C   UNL     1       5.436  27.804  50.321  1.00  0.00     0.047 C 
HETATM   14  C   UNL     1       3.753  28.727  51.951  1.00  0.00     0.261 A 
HETATM   15  C   UNL     1       3.041  27.253  48.798  1.00  0.00    -0.049 A 
HETATM   16  C   UNL     1       2.101  29.438  49.267  1.00  0.00     0.011 A 
HETATM   17  C   UNL     1       1.995  27.026  47.889  1.00  0.00     0.007 A 
HETATM   18  C   UNL     1       4.105  26.190  48.934  1.00  0.00     0.039 C 
HETATM   19  C   UNL     1       1.012  27.990  47.675  1.00  0.00     0.001 A 
HETATM   20  C   UNL     1       1.064  29.196  48.364  1.00  0.00     0.001 A 
HETATM   21  C   UNL     1       4.986  26.356  50.167  1.00  0.00     0.008 C 
HETATM   22  O   UNL     1       3.268  27.769  52.537  1.00  0.00    -0.270 OA
ENDBRANCH   5   6
ENDBRANCH   2   5
BRANCH   1  23
HETATM   23  C   UNL     1       6.636  28.562  55.703  1.00  0.00     0.155 C 
BRANCH  23  24
HETATM   24  C   UNL     1       7.930  29.333  56.002  1.00  0.00     0.043 C 
BRANCH  24  25
HETATM   25  C   UNL     1       8.626  28.931  57.305  1.00  0.00     0.076 C 
BRANCH  25  26
HETATM   26  S   UNL     1       8.674  30.230  58.585  1.00  0.00    -0.173 SA
HETATM   27  C   UNL     1      10.191  31.088  58.099  1.00  0.00     0.089 C 
ENDBRANCH  25  26
ENDBRANCH  24  25
ENDBRANCH  23  24
BRANCH  23  28
HETATM   28  C   UNL     1       6.925  27.193  55.156  1.00  0.00     0.128 A 
HETATM   29  N   UNL     1       6.929  26.040  55.796  1.00  0.00    -0.231 NA
HETATM   30  C   UNL     1       7.238  25.094  54.845  1.00  0.00     0.085 A 
HETATM   31  C   UNL     1       7.445  25.684  53.603  1.00  0.00     0.062 A 
HETATM   32  C   UNL     1       7.364  23.703  54.970  1.00  0.00     0.034 A 
HETATM   33  N   UNL     1       7.251  27.020  53.829  1.00  0.00    -0.341 N 
HETATM   34  C   UNL     1       7.780  24.963  52.455  1.00  0.00     0.032 A 
HETATM   35  H   UNL     1       7.364  27.774  53.161  1.00  0.00     0.167 HD
HETATM   36  C   UNL     1       7.900  23.577  52.599  1.00  0.00     0.002 A 
HETATM   37  C   UNL     1       7.696  22.953  53.833  1.00  0.00     0.002 A 
ENDBRANCH  23  28
ENDBRANCH   1  23
TORSDOF 7
ENDMDL
MODEL 6
REMARK VINA RESULT:      -9.0      5.004      9.389
REMARK  7 active torsions:
REMARK  status: ('A' for Active; 'I' for Inactive)
REMARK    1  A    between atoms: S_2  and  C_3 
REMARK    2  A    between atoms: C_3  and  C_4 
REMARK    3  A    between atoms: C_4  and  C_5 
REMARK    4  A    between atoms: C_5  and  N_6 
REMARK    5  A    between atoms: C_5  and  C_26 
REMARK       I    between atoms: N_6  and  C_7 
REMARK    6  A    between atoms: C_7  and  C_8 
REMARK    7  A    between atoms: C_8  and  N_9 
ROOT
HETATM    1  N   UNL     1       6.493  26.751  54.004  1.00  0.00    -0.348 N 
HETATM    2  C   UNL     1       5.500  27.509  53.430  1.00  0.00     0.236 C 
HETATM    3  O   UNL     1       4.375  27.589  53.924  1.00  0.00    -0.272 OA
HETATM    4  H   UNL     1       7.282  26.476  53.438  1.00  0.00     0.163 HD
ENDROOT
BRANCH   2   5
HETATM    5  C   UNL     1       5.883  28.329  52.197  1.00  0.00     0.239 C 
BRANCH   5   6
HETATM    6  N   UNL     1       4.915  28.318  51.120  1.00  0.00    -0.259 N 
HETATM    7  C   UNL     1       4.626  27.235  50.354  1.00  0.00     0.326 A 
HETATM    8  O   UNL     1       5.177  26.149  50.372  1.00  0.00    -0.247 OA
HETATM    9  N   UNL     1       3.584  27.553  49.519  1.00  0.00    -0.320 N 
HETATM   10  C   UNL     1       3.113  28.913  49.692  1.00  0.00     0.144 A 
HETATM   11  H   UNL     1       3.238  26.900  48.829  1.00  0.00     0.165 HD
HETATM   12  C   UNL     1       3.281  29.732  48.422  1.00  0.00    -0.014 A 
HETATM   13  C   UNL     1       1.676  28.900  50.235  1.00  0.00     0.047 C 
HETATM   14  C   UNL     1       4.083  29.361  50.816  1.00  0.00     0.261 A 
HETATM   15  C   UNL     1       2.300  30.671  48.036  1.00  0.00    -0.049 A 
HETATM   16  C   UNL     1       4.424  29.583  47.610  1.00  0.00     0.011 A 
HETATM   17  C   UNL     1       2.473  31.412  46.856  1.00  0.00     0.007 A 
HETATM   18  C   UNL     1       1.017  30.859  48.812  1.00  0.00     0.039 C 
HETATM   19  C   UNL     1       3.607  31.245  46.066  1.00  0.00     0.001 A 
HETATM   20  C   UNL     1       4.583  30.331  46.443  1.00  0.00     0.001 A 
HETATM   21  C   UNL     1       1.066  30.297  50.227  1.00  0.00     0.008 C 
HETATM   22  O   UNL     1       4.113  30.461  51.349  1.00  0.00    -0.270 OA
ENDBRANCH   5   6
ENDBRANCH   2   5
BRANCH   1  23
HETATM   23  C   UNL     1       6.287  26.037  55.255  1.00  0.00     0.155 C 
BRANCH  23  24
HETATM   24  C   UNL     1       7.001  26.733  56.424  1.00  0.00     0.043 C 
BRANCH  24  25
HETATM   25  C   UNL     1       6.209  27.875  57.065  1.00  0.00     0.076 C 
BRANCH  25  26
HETATM   26  S   UNL     1       6.689  29.548  56.518  1.00  0.00    -0.173 SA
HETATM   27  C   UNL     1       8.349  29.203  55.888  1.00  0.00     0.089 C 
ENDBRANCH  25  26
ENDBRANCH  24  25
ENDBRANCH  23  24
BRANCH  23  28
HETATM   28  C   UNL     1       6.781  24.631  55.068  1.00  0.00     0.128 A 
HETATM   29  N   UNL     1       7.036  23.723  55.991  1.00  0.00    -0.231 NA
HETATM   30  C   UNL     1       7.445  22.605  55.301  1.00  0.00     0.085 A 
HETATM   31  C   UNL     1       7.458  22.840  53.931  1.00  0.00     0.062 A 
HETATM   32  C   UNL     1       7.829  21.344  55.782  1.00  0.00     0.034 A 
HETATM   33  N   UNL     1       7.042  24.138  53.809  1.00  0.00    -0.341 N 
HETATM   34  C   UNL     1       7.840  21.882  52.990  1.00  0.00     0.032 A 
HETATM   35  H   UNL     1       6.972  24.678  52.954  1.00  0.00     0.167 HD
HETATM   36  C   UNL     1       8.218  20.630  53.488  1.00  0.00     0.002 A 
HETATM   37  C   UNL     1       8.213  20.361  54.858  1.00  0.00     0.002 A 
ENDBRANCH  23  28
ENDBRANCH   1  23
TORSDOF 7
ENDMDL
MODEL 7
REMARK VINA RESULT:      -8.8      5.683     10.129
REMARK  7 active torsions:
REMARK  status: ('A' for Active; 'I' for Inactive)
REMARK    1  A    between atoms: S_2  and  C_3 
REMARK    2  A    between atoms: C_3  and  C_4 
REMARK    3  A    between atoms: C_4  and  C_5 
REMARK    4  A    between atoms: C_5  and  N_6 
REMARK    5  A    between atoms: C_5  and  C_26 
REMARK       I    between atoms: N_6  and  C_7 
REMARK    6  A    between atoms: C_7  and  C_8 
REMARK    7  A    between atoms: C_8  and  N_9 
ROOT
HETATM    1  N   UNL     1       6.128  26.126  51.923  1.00  0.00    -0.348 N 
HETATM    2  C   UNL     1       5.041  26.867  51.522  1.00  0.00     0.236 C 
HETATM    3  O   UNL     1       4.291  27.413  52.333  1.00  0.00    -0.272 OA
HETATM    4  H   UNL     1       6.534  25.469  51.273  1.00  0.00     0.163 HD
ENDROOT
BRANCH   2   5
HETATM    5  C   UNL     1       4.858  27.065  50.017  1.00  0.00     0.239 C 
BRANCH   5   6
HETATM    6  N   UNL     1       4.386  28.374  49.617  1.00  0.00    -0.259 N 
HETATM    7  C   UNL     1       3.105  28.661  49.273  1.00  0.00     0.326 A 
HETATM    8  O   UNL     1       2.180  27.878  49.151  1.00  0.00    -0.247 OA
HETATM    9  N   UNL     1       2.997  30.014  49.070  1.00  0.00    -0.320 N 
HETATM   10  C   UNL     1       4.247  30.720  49.273  1.00  0.00     0.144 A 
HETATM   11  H   UNL     1       2.133  30.437  48.760  1.00  0.00     0.165 HD
HETATM   12  C   UNL     1       4.713  31.414  48.003  1.00  0.00    -0.014 A 
HETATM   13  C   UNL     1       4.121  31.660  50.481  1.00  0.00     0.047 C 
HETATM   14  C   UNL     1       5.144  29.514  49.651  1.00  0.00     0.261 A 
HETATM   15  C   UNL     1       5.324  32.685  48.060  1.00  0.00    -0.049 A 
HETATM   16  C   UNL     1       4.561  30.798  46.744  1.00  0.00     0.011 A 
HETATM   17  C   UNL     1       5.742  33.310  46.874  1.00  0.00     0.007 A 
HETATM   18  C   UNL     1       5.479  33.446  49.356  1.00  0.00     0.039 C 
HETATM   19  C   UNL     1       5.576  32.686  45.640  1.00  0.00     0.001 A 
HETATM   20  C   UNL     1       4.986  31.430  45.574  1.00  0.00     0.001 A 
HETATM   21  C   UNL     1       5.333  32.577  50.600  1.00  0.00     0.008 C 
HETATM   22  O   UNL     1       6.334  29.558  49.932  1.00  0.00    -0.270 OA
ENDBRANCH   5   6
ENDBRANCH   2   5
BRANCH   1  23
HETATM   23  C   UNL     1       6.483  25.982  53.328  1.00  0.00     0.155 C 
BRANCH  23  24
HETATM   24  C   UNL     1       7.559  26.998  53.741  1.00  0.00     0.043 C 
BRANCH  24  25
HETATM   25  C   UNL     1       7.360  27.606  55.132  1.00  0.00     0.076 C 
BRANCH  25  26
HETATM   26  S   UNL     1       5.624  27.937  55.587  1.00  0.00    -0.173 SA
HETATM   27  C   UNL     1       5.368  26.624  56.805  1.00  0.00     0.089 C 
ENDBRANCH  25  26
ENDBRANCH  24  25
ENDBRANCH  23  24
BRANCH  23  28
HETATM   28  C   UNL     1       6.948  24.570  53.542  1.00  0.00     0.128 A 
HETATM   29  N   UNL     1       7.371  23.703  52.642  1.00  0.00    -0.231 NA
HETATM   30  C   UNL     1       7.689  22.567  53.351  1.00  0.00     0.085 A 
HETATM   31  C   UNL     1       7.438  22.737  54.707  1.00  0.00     0.062 A 
HETATM   32  C   UNL     1       8.198  21.340  52.900  1.00  0.00     0.034 A 
HETATM   33  N   UNL     1       6.957  24.015  54.802  1.00  0.00    -0.341 N 
HETATM   34  C   UNL     1       7.662  21.744  55.662  1.00  0.00     0.032 A 
HETATM   35  H   UNL     1       6.619  24.480  55.637  1.00  0.00     0.167 HD
HETATM   36  C   UNL     1       8.171  20.528  55.194  1.00  0.00     0.002 A 
HETATM   37  C   UNL     1       8.437  20.325  53.837  1.00  0.00     0.002 A 
ENDBRANCH  23  28
ENDBRANCH   1  23
TORSDOF 7
ENDMDL
MODEL 8
REMARK VINA RESULT:      -8.8      4.859      9.206
REMARK  7 active torsions:
REMARK  status: ('A' for Active; 'I' for Inactive)
REMARK    1  A    between atoms: S_2  and  C_3 
REMARK    2  A    between atoms: C_3  and  C_4 
REMARK    3  A    between atoms: C_4  and  C_5 
REMARK    4  A    between atoms: C_5  and  N_6 
REMARK    5  A    between atoms: C_5  and  C_26 
REMARK       I    between atoms: N_6  and  C_7 
REMARK    6  A    between atoms: C_7  and  C_8 
REMARK    7  A    between atoms: C_8  and  N_9 
ROOT
HETATM    1  N   UNL     1       6.211  26.720  54.386  1.00  0.00    -0.348 N 
HETATM    2  C   UNL     1       5.477  27.137  53.301  1.00  0.00     0.236 C 
HETATM    3  O   UNL     1       4.412  26.600  52.991  1.00  0.00    -0.272 OA
HETATM    4  H   UNL     1       7.187  26.972  54.437  1.00  0.00     0.163 HD
ENDROOT
BRANCH   2   5
HETATM    5  C   UNL     1       5.994  28.364  52.548  1.00  0.00     0.239 C 
BRANCH   5   6
HETATM    6  N   UNL     1       5.007  29.061  51.749  1.00  0.00    -0.259 N 
HETATM    7  C   UNL     1       3.950  29.747  52.254  1.00  0.00     0.326 A 
HETATM    8  O   UNL     1       3.602  29.814  53.420  1.00  0.00    -0.247 OA
HETATM    9  N   UNL     1       3.300  30.375  51.222  1.00  0.00    -0.320 N 
HETATM   10  C   UNL     1       3.913  30.128  49.932  1.00  0.00     0.144 A 
HETATM   11  H   UNL     1       2.453  30.907  51.372  1.00  0.00     0.165 HD
HETATM   12  C   UNL     1       2.961  29.414  48.985  1.00  0.00    -0.014 A 
HETATM   13  C   UNL     1       4.479  31.439  49.367  1.00  0.00     0.047 C 
HETATM   14  C   UNL     1       5.081  29.220  50.392  1.00  0.00     0.261 A 
HETATM   15  C   UNL     1       2.931  29.741  47.612  1.00  0.00    -0.049 A 
HETATM   16  C   UNL     1       2.100  28.400  49.453  1.00  0.00     0.011 A 
HETATM   17  C   UNL     1       2.040  29.072  46.757  1.00  0.00     0.007 A 
HETATM   18  C   UNL     1       3.776  30.850  47.030  1.00  0.00     0.039 C 
HETATM   19  C   UNL     1       1.193  28.078  47.243  1.00  0.00     0.001 A 
HETATM   20  C   UNL     1       1.223  27.741  48.590  1.00  0.00     0.001 A 
HETATM   21  C   UNL     1       4.938  31.271  47.923  1.00  0.00     0.008 C 
HETATM   22  O   UNL     1       5.933  28.718  49.672  1.00  0.00    -0.270 OA
ENDBRANCH   5   6
ENDBRANCH   2   5
BRANCH   1  23
HETATM   23  C   UNL     1       5.750  25.652  55.260  1.00  0.00     0.155 C 
BRANCH  23  24
HETATM   24  C   UNL     1       5.978  25.998  56.739  1.00  0.00     0.043 C 
BRANCH  24  25
HETATM   25  C   UNL     1       7.088  27.022  56.990  1.00  0.00     0.076 C 
BRANCH  25  26
HETATM   26  S   UNL     1       6.508  28.693  57.441  1.00  0.00    -0.173 SA
HETATM   27  C   UNL     1       8.009  29.344  58.213  1.00  0.00     0.089 C 
ENDBRANCH  25  26
ENDBRANCH  24  25
ENDBRANCH  23  24
BRANCH  23  28
HETATM   28  C   UNL     1       6.475  24.395  54.871  1.00  0.00     0.128 A 
HETATM   29  N   UNL     1       6.716  23.931  53.660  1.00  0.00    -0.231 NA
HETATM   30  C   UNL     1       7.420  22.764  53.849  1.00  0.00     0.085 A 
HETATM   31  C   UNL     1       7.596  22.500  55.202  1.00  0.00     0.062 A 
HETATM   32  C   UNL     1       7.943  21.868  52.905  1.00  0.00     0.034 A 
HETATM   33  N   UNL     1       6.977  23.546  55.832  1.00  0.00    -0.341 N 
HETATM   34  C   UNL     1       8.269  21.377  55.686  1.00  0.00     0.032 A 
HETATM   35  H   UNL     1       6.858  23.672  56.830  1.00  0.00     0.167 HD
HETATM   36  C   UNL     1       8.784  20.495  54.729  1.00  0.00     0.002 A 
HETATM   37  C   UNL     1       8.627  20.733  53.362  1.00  0.00     0.002 A 
ENDBRANCH  23  28
ENDBRANCH   1  23
TORSDOF 7
ENDMDL
MODEL 9
REMARK VINA RESULT:      -8.7      4.686      9.499
REMARK  7 active torsions:
REMARK  status: ('A' for Active; 'I' for Inactive)
REMARK    1  A    between atoms: S_2  and  C_3 
REMARK    2  A    between atoms: C_3  and  C_4 
REMARK    3  A    between atoms: C_4  and  C_5 
REMARK    4  A    between atoms: C_5  and  N_6 
REMARK    5  A    between atoms: C_5  and  C_26 
REMARK       I    between atoms: N_6  and  C_7 
REMARK    6  A    between atoms: C_7  and  C_8 
REMARK    7  A    between atoms: C_8  and  N_9 
ROOT
HETATM    1  N   UNL     1       6.370  25.857  53.067  1.00  0.00    -0.348 N 
HETATM    2  C   UNL     1       5.408  25.641  52.108  1.00  0.00     0.236 C 
HETATM    3  O   UNL     1       4.396  24.978  52.340  1.00  0.00    -0.272 OA
HETATM    4  H   UNL     1       7.293  26.141  52.772  1.00  0.00     0.163 HD
ENDROOT
BRANCH   2   5
HETATM    5  C   UNL     1       5.603  26.344  50.764  1.00  0.00     0.239 C 
BRANCH   5   6
HETATM    6  N   UNL     1       4.912  27.609  50.620  1.00  0.00    -0.259 N 
HETATM    7  C   UNL     1       3.887  27.835  49.760  1.00  0.00     0.326 A 
HETATM    8  O   UNL     1       3.447  27.071  48.918  1.00  0.00    -0.247 OA
HETATM    9  N   UNL     1       3.401  29.100  49.978  1.00  0.00    -0.320 N 
HETATM   10  C   UNL     1       4.105  29.804  51.030  1.00  0.00     0.144 A 
HETATM   11  H   UNL     1       2.661  29.489  49.410  1.00  0.00     0.165 HD
HETATM   12  C   UNL     1       4.784  31.062  50.509  1.00  0.00    -0.014 A 
HETATM   13  C   UNL     1       3.155  30.058  52.211  1.00  0.00     0.047 C 
HETATM   14  C   UNL     1       5.123  28.701  51.418  1.00  0.00     0.261 A 
HETATM   15  C   UNL     1       4.815  32.238  51.288  1.00  0.00    -0.049 A 
HETATM   16  C   UNL     1       5.408  31.076  49.245  1.00  0.00     0.011 A 
HETATM   17  C   UNL     1       5.442  33.390  50.785  1.00  0.00     0.007 A 
HETATM   18  C   UNL     1       4.126  32.334  52.629  1.00  0.00     0.039 C 
HETATM   19  C   UNL     1       6.047  33.383  49.530  1.00  0.00     0.001 A 
HETATM   20  C   UNL     1       6.031  32.227  48.760  1.00  0.00     0.001 A 
HETATM   21  C   UNL     1       3.788  30.982  53.245  1.00  0.00     0.008 C 
HETATM   22  O   UNL     1       5.980  28.781  52.286  1.00  0.00    -0.270 OA
ENDBRANCH   5   6
ENDBRANCH   2   5
BRANCH   1  23
HETATM   23  C   UNL     1       6.226  25.354  54.425  1.00  0.00     0.155 C 
BRANCH  23  24
HETATM   24  C   UNL     1       6.855  26.312  55.448  1.00  0.00     0.043 C 
BRANCH  24  25
HETATM   25  C   UNL     1       6.126  27.650  55.600  1.00  0.00     0.076 C 
BRANCH  25  26
HETATM   26  S   UNL     1       7.196  29.067  56.023  1.00  0.00    -0.173 SA
HETATM   27  C   UNL     1       5.935  30.330  56.317  1.00  0.00     0.089 C 
ENDBRANCH  25  26
ENDBRANCH  24  25
ENDBRANCH  23  24
BRANCH  23  28
HETATM   28  C   UNL     1       6.863  23.995  54.481  1.00  0.00     0.128 A 
HETATM   29  N   UNL     1       7.249  23.230  53.478  1.00  0.00    -0.231 NA
HETATM   30  C   UNL     1       7.780  22.102  54.061  1.00  0.00     0.085 A 
HETATM   31  C   UNL     1       7.700  22.171  55.446  1.00  0.00     0.062 A 
HETATM   32  C   UNL     1       8.350  20.967  53.465  1.00  0.00     0.034 A 
HETATM   33  N   UNL     1       7.104  23.379  55.689  1.00  0.00    -0.341 N 
HETATM   34  C   UNL     1       8.157  21.161  56.295  1.00  0.00     0.032 A 
HETATM   35  H   UNL     1       6.837  23.758  56.590  1.00  0.00     0.167 HD
HETATM   36  C   UNL     1       8.723  20.037  55.683  1.00  0.00     0.002 A 
HETATM   37  C   UNL     1       8.821  19.938  54.293  1.00  0.00     0.002 A 
ENDBRANCH  23  28
ENDBRANCH   1  23
TORSDOF 7
ENDMDL
MODEL 10
REMARK VINA RESULT:      -8.5      3.680      6.200
REMARK  7 active torsions:
REMARK  status: ('A' for Active; 'I' for Inactive)
REMARK    1  A    between atoms: S_2  and  C_3 
REMARK    2  A    between atoms: C_3  and  C_4 
REMARK    3  A    between atoms: C_4  and  C_5 
REMARK    4  A    between atoms: C_5  and  N_6 
REMARK    5  A    between atoms: C_5  and  C_26 
REMARK       I    between atoms: N_6  and  C_7 
REMARK    6  A    between atoms: C_7  and  C_8 
REMARK    7  A    between atoms: C_8  and  N_9 
ROOT
HETATM    1  N   UNL     1       5.017  29.481  56.533  1.00  0.00    -0.348 N 
HETATM    2  C   UNL     1       6.333  29.111  56.684  1.00  0.00     0.236 C 
HETATM    3  O   UNL     1       7.260  29.865  56.381  1.00  0.00    -0.272 OA
HETATM    4  H   UNL     1       4.311  28.761  56.510  1.00  0.00     0.163 HD
ENDROOT
BRANCH   2   5
HETATM    5  C   UNL     1       6.598  27.753  57.336  1.00  0.00     0.239 C 
BRANCH   5   6
HETATM    6  N   UNL     1       6.342  26.602  56.496  1.00  0.00    -0.259 N 
HETATM    7  C   UNL     1       5.283  25.764  56.638  1.00  0.00     0.326 A 
HETATM    8  O   UNL     1       4.445  25.775  57.523  1.00  0.00    -0.247 OA
HETATM    9  N   UNL     1       5.294  24.863  55.603  1.00  0.00    -0.320 N 
HETATM   10  C   UNL     1       6.402  25.062  54.690  1.00  0.00     0.144 A 
HETATM   11  H   UNL     1       4.615  24.117  55.541  1.00  0.00     0.165 HD
HETATM   12  C   UNL     1       7.320  23.850  54.646  1.00  0.00    -0.014 A 
HETATM   13  C   UNL     1       5.870  25.485  53.312  1.00  0.00     0.047 C 
HETATM   14  C   UNL     1       7.065  26.281  55.380  1.00  0.00     0.261 A 
HETATM   15  C   UNL     1       7.902  23.431  53.431  1.00  0.00    -0.049 A 
HETATM   16  C   UNL     1       7.621  23.128  55.819  1.00  0.00     0.011 A 
HETATM   17  C   UNL     1       8.742  22.306  53.413  1.00  0.00     0.007 A 
HETATM   18  C   UNL     1       7.594  24.107  52.116  1.00  0.00     0.039 C 
HETATM   19  C   UNL     1       9.021  21.604  54.583  1.00  0.00     0.001 A 
HETATM   20  C   UNL     1       8.462  22.015  55.787  1.00  0.00     0.001 A 
HETATM   21  C   UNL     1       6.979  25.494  52.266  1.00  0.00     0.008 C 
HETATM   22  O   UNL     1       8.071  26.867  55.003  1.00  0.00    -0.270 OA
ENDBRANCH   5   6
ENDBRANCH   2   5
BRANCH   1  23
HETATM   23  C   UNL     1       4.642  30.803  56.052  1.00  0.00     0.155 C 
BRANCH  23  24
HETATM   24  C   UNL     1       3.512  31.408  56.899  1.00  0.00     0.043 C 
BRANCH  24  25
HETATM   25  C   UNL     1       3.562  31.041  58.384  1.00  0.00     0.076 C 
BRANCH  25  26
HETATM   26  S   UNL     1       4.325  32.299  59.464  1.00  0.00    -0.173 SA
HETATM   27  C   UNL     1       4.021  33.782  58.474  1.00  0.00     0.089 C 
ENDBRANCH  25  26
ENDBRANCH  24  25
ENDBRANCH  23  24
BRANCH  23  28
HETATM   28  C   UNL     1       4.239  30.669  54.611  1.00  0.00     0.128 A 
HETATM   29  N   UNL     1       3.688  29.633  54.008  1.00  0.00    -0.231 NA
HETATM   30  C   UNL     1       3.506  30.024  52.702  1.00  0.00     0.085 A 
HETATM   31  C   UNL     1       3.971  31.318  52.498  1.00  0.00     0.062 A 
HETATM   32  C   UNL     1       2.948  29.321  51.623  1.00  0.00     0.034 A 
HETATM   33  N   UNL     1       4.441  31.703  53.725  1.00  0.00    -0.341 N 
HETATM   34  C   UNL     1       3.919  31.969  51.265  1.00  0.00     0.032 A 
HETATM   35  H   UNL     1       4.903  32.575  53.955  1.00  0.00     0.167 HD
HETATM   36  C   UNL     1       3.359  31.253  50.201  1.00  0.00     0.002 A 
HETATM   37  C   UNL     1       2.880  29.952  50.373  1.00  0.00     0.002 A 
ENDBRANCH  23  28
ENDBRANCH   1  23
TORSDOF 7
ENDMDL
