MODEL 1
REMARK VINA RESULT:     -10.3      0.000      0.000
REMARK  8 active torsions:
REMARK  status: ('A' for Active; 'I' for Inactive)
REMARK    1  A    between atoms: N_2  and  C_3 
REMARK    2  A    between atoms: C_4  and  C_5 
REMARK       I    between atoms: C_5  and  N_6 
REMARK    3  A    between atoms: N_6  and  C_7 
REMARK    4  A    between atoms: C_7  and  C_8 
REMARK    5  A    between atoms: N_13  and  C_15 
REMARK    6  A    between atoms: C_15  and  C_16 
REMARK    7  A    between atoms: C_16  and  C_17 
REMARK    8  A    between atoms: C_17  and  C_18 
ROOT
HETATM    1  C   UNL     1       8.449  30.872  58.515  1.00  0.00     0.140 C 
HETATM    2  O   UNL     1       7.616  30.004  57.723  1.00  0.00    -0.373 OA
HETATM    3  C   UNL     1       8.433  29.016  57.065  1.00  0.00     0.064 C 
HETATM    4  C   UNL     1       8.123  29.131  55.568  1.00  0.00     0.066 C 
HETATM    5  C   UNL     1       6.669  28.768  55.273  1.00  0.00     0.237 C 
HETATM    6  N   UNL     1       6.328  27.388  55.801  1.00  0.00    -0.071 N 
HETATM    7  H   UNL     1       5.306  27.318  55.718  1.00  0.00     0.279 HD
HETATM    8  C   UNL     1       6.593  27.321  57.297  1.00  0.00     0.237 C 
HETATM    9  C   UNL     1       8.053  27.624  57.578  1.00  0.00     0.066 C 
HETATM   10  C   UNL     1       9.888  29.358  57.394  1.00  0.00     0.041 C 
HETATM   11  C   UNL     1       9.816  30.795  57.859  1.00  0.00     0.036 C 
ENDROOT
BRANCH   1  12
HETATM   12  C   UNL     1       8.459  30.418  59.988  1.00  0.00     0.155 C 
BRANCH  12  13
HETATM   13  N   UNL     1       7.888  31.420  60.872  1.00  0.00    -0.354 N 
HETATM   14  C   UNL     1       7.842  31.268  62.247  1.00  0.00     0.253 C 
HETATM   15  O   UNL     1       8.305  30.303  62.842  1.00  0.00    -0.268 OA
HETATM   16  H   UNL     1       7.396  32.201  60.455  1.00  0.00     0.162 HD
BRANCH  14  17
HETATM   17  C   UNL     1       7.205  32.411  62.963  1.00  0.00     0.053 A 
HETATM   18  C   UNL     1       5.941  32.925  62.588  1.00  0.00     0.025 A 
HETATM   19  C   UNL     1       5.444  34.015  63.331  1.00  0.00     0.025 A 
HETATM   20  C   UNL     1       6.155  34.561  64.406  1.00  0.00     0.002 A 
HETATM   21  C   UNL     1       7.384  34.029  64.771  1.00  0.00     0.001 A 
HETATM   22  C   UNL     1       7.907  32.955  64.057  1.00  0.00     0.019 A 
BRANCH  18  23
HETATM   23  N   UNL     1       5.231  32.416  61.470  1.00  0.00    -0.291 NA
HETATM   24  C   UNL     1       5.152  33.419  60.407  1.00  0.00     0.116 C 
HETATM   25  C   UNL     1       3.955  31.776  61.802  1.00  0.00     0.116 C 
ENDBRANCH  18  23
ENDBRANCH  14  17
ENDBRANCH  12  13
ENDBRANCH   1  12
BRANCH   6  26
HETATM   26  C   UNL     1       6.910  26.279  54.953  1.00  0.00     0.235 C 
BRANCH  26  27
HETATM   27  C   UNL     1       6.352  24.896  55.271  1.00  0.00     0.032 C 
BRANCH  27  28
HETATM   28  C   UNL     1       7.349  23.962  55.958  1.00  0.00     0.040 C 
BRANCH  28  29
HETATM   29  C   UNL     1       7.637  22.764  55.091  1.00  0.00    -0.058 A 
HETATM   30  C   UNL     1       7.717  22.904  53.697  1.00  0.00     0.007 A 
HETATM   31  C   UNL     1       7.940  21.789  52.889  1.00  0.00     0.001 A 
HETATM   32  C   UNL     1       8.081  20.527  53.463  1.00  0.00     0.000 A 
HETATM   33  C   UNL     1       8.001  20.379  54.846  1.00  0.00     0.001 A 
HETATM   34  C   UNL     1       7.778  21.491  55.658  1.00  0.00     0.007 A 
ENDBRANCH  28  29
ENDBRANCH  27  28
ENDBRANCH  26  27
ENDBRANCH   6  26
TORSDOF 8
ENDMDL
MODEL 2
REMARK VINA RESULT:     -10.2      1.737      2.928
REMARK  8 active torsions:
REMARK  status: ('A' for Active; 'I' for Inactive)
REMARK    1  A    between atoms: N_2  and  C_3 
REMARK    2  A    between atoms: C_4  and  C_5 
REMARK       I    between atoms: C_5  and  N_6 
REMARK    3  A    between atoms: N_6  and  C_7 
REMARK    4  A    between atoms: C_7  and  C_8 
REMARK    5  A    between atoms: N_13  and  C_15 
REMARK    6  A    between atoms: C_15  and  C_16 
REMARK    7  A    between atoms: C_16  and  C_17 
REMARK    8  A    between atoms: C_17  and  C_18 
ROOT
HETATM    1  C   UNL     1       7.224  30.086  57.164  1.00  0.00     0.140 C 
HETATM    2  O   UNL     1       6.825  29.333  56.002  1.00  0.00    -0.373 OA
HETATM    3  C   UNL     1       6.825  27.927  56.313  1.00  0.00     0.064 C 
HETATM    4  C   UNL     1       7.735  27.258  55.276  1.00  0.00     0.066 C 
HETATM    5  C   UNL     1       7.166  27.399  53.866  1.00  0.00     0.237 C 
HETATM    6  N   UNL     1       5.751  26.857  53.786  1.00  0.00    -0.071 N 
HETATM    7  H   UNL     1       5.403  27.160  52.868  1.00  0.00     0.279 HD
HETATM    8  C   UNL     1       4.860  27.576  54.787  1.00  0.00     0.237 C 
HETATM    9  C   UNL     1       5.399  27.383  56.193  1.00  0.00     0.066 C 
HETATM   10  C   UNL     1       7.360  27.791  57.741  1.00  0.00     0.041 C 
HETATM   11  C   UNL     1       8.050  29.113  57.986  1.00  0.00     0.036 C 
ENDROOT
BRANCH   1  12
HETATM   12  C   UNL     1       5.989  30.616  57.918  1.00  0.00     0.155 C 
BRANCH  12  13
HETATM   13  N   UNL     1       6.320  31.071  59.257  1.00  0.00    -0.354 N 
HETATM   14  C   UNL     1       6.269  32.403  59.631  1.00  0.00     0.253 C 
HETATM   15  O   UNL     1       5.911  33.307  58.885  1.00  0.00    -0.268 OA
HETATM   16  H   UNL     1       6.720  30.403  59.905  1.00  0.00     0.162 HD
BRANCH  14  17
HETATM   17  C   UNL     1       6.658  32.652  61.050  1.00  0.00     0.053 A 
HETATM   18  C   UNL     1       7.856  32.142  61.603  1.00  0.00     0.025 A 
HETATM   19  C   UNL     1       8.112  32.432  62.959  1.00  0.00     0.025 A 
HETATM   20  C   UNL     1       7.234  33.204  63.727  1.00  0.00     0.002 A 
HETATM   21  C   UNL     1       6.073  33.713  63.159  1.00  0.00     0.001 A 
HETATM   22  C   UNL     1       5.787  33.443  61.824  1.00  0.00     0.019 A 
BRANCH  18  23
HETATM   23  N   UNL     1       8.732  31.316  60.852  1.00  0.00    -0.291 NA
HETATM   24  C   UNL     1       9.360  30.311  61.712  1.00  0.00     0.116 C 
HETATM   25  C   UNL     1       9.662  32.046  59.986  1.00  0.00     0.116 C 
ENDBRANCH  18  23
ENDBRANCH  14  17
ENDBRANCH  12  13
ENDBRANCH   1  12
BRANCH   6  26
HETATM   26  C   UNL     1       5.704  25.345  53.793  1.00  0.00     0.235 C 
BRANCH  26  27
HETATM   27  C   UNL     1       6.389  24.697  52.595  1.00  0.00     0.032 C 
BRANCH  27  28
HETATM   28  C   UNL     1       7.820  24.231  52.868  1.00  0.00     0.040 C 
BRANCH  28  29
HETATM   29  C   UNL     1       7.817  22.904  53.581  1.00  0.00    -0.058 A 
HETATM   30  C   UNL     1       7.750  22.853  54.981  1.00  0.00     0.007 A 
HETATM   31  C   UNL     1       7.792  21.627  55.645  1.00  0.00     0.001 A 
HETATM   32  C   UNL     1       7.906  20.443  54.920  1.00  0.00     0.000 A 
HETATM   33  C   UNL     1       7.976  20.484  53.529  1.00  0.00     0.001 A 
HETATM   34  C   UNL     1       7.934  21.708  52.860  1.00  0.00     0.007 A 
ENDBRANCH  28  29
ENDBRANCH  27  28
ENDBRANCH  26  27
ENDBRANCH   6  26
TORSDOF 8
ENDMDL
MODEL 3
REMARK VINA RESULT:      -9.9      1.691      2.523
REMARK  8 active torsions:
REMARK  status: ('A' for Active; 'I' for Inactive)
REMARK    1  A    between atoms: N_2  and  C_3 
REMARK    2  A    between atoms: C_4  and  C_5 
REMARK       I    between atoms: C_5  and  N_6 
REMARK    3  A    between atoms: N_6  and  C_7 
REMARK    4  A    between atoms: C_7  and  C_8 
REMARK    5  A    between atoms: N_13  and  C_15 
REMARK    6  A    between atoms: C_15  and  C_16 
REMARK    7  A    between atoms: C_16  and  C_17 
REMARK    8  A    between atoms: C_17  and  C_18 
ROOT
HETATM    1  C   UNL     1       5.291  30.077  57.796  1.00  0.00     0.140 C 
HETATM    2  O   UNL     1       5.810  28.809  57.351  1.00  0.00    -0.373 OA
HETATM    3  C   UNL     1       5.821  28.770  55.911  1.00  0.00     0.064 C 
HETATM    4  C   UNL     1       5.024  27.524  55.509  1.00  0.00     0.066 C 
HETATM    5  C   UNL     1       5.709  26.247  55.990  1.00  0.00     0.237 C 
HETATM    6  N   UNL     1       7.139  26.168  55.492  1.00  0.00    -0.071 N 
HETATM    7  H   UNL     1       7.557  25.386  56.010  1.00  0.00     0.279 HD
HETATM    8  C   UNL     1       7.920  27.390  55.952  1.00  0.00     0.237 C 
HETATM    9  C   UNL     1       7.268  28.653  55.420  1.00  0.00     0.066 C 
HETATM   10  C   UNL     1       5.169  30.069  55.429  1.00  0.00     0.041 C 
HETATM   11  C   UNL     1       4.424  30.562  56.648  1.00  0.00     0.036 C 
ENDROOT
BRANCH   1  12
HETATM   12  C   UNL     1       6.441  31.045  58.135  1.00  0.00     0.155 C 
BRANCH  12  13
HETATM   13  N   UNL     1       6.384  31.499  59.514  1.00  0.00    -0.354 N 
HETATM   14  C   UNL     1       7.385  32.258  60.096  1.00  0.00     0.253 C 
HETATM   15  O   UNL     1       8.384  32.641  59.499  1.00  0.00    -0.268 OA
HETATM   16  H   UNL     1       5.641  31.145  60.104  1.00  0.00     0.162 HD
BRANCH  14  17
HETATM   17  C   UNL     1       7.130  32.609  61.524  1.00  0.00     0.053 A 
HETATM   18  C   UNL     1       5.892  33.134  61.961  1.00  0.00     0.025 A 
HETATM   19  C   UNL     1       5.771  33.439  63.332  1.00  0.00     0.025 A 
HETATM   20  C   UNL     1       6.819  33.220  64.231  1.00  0.00     0.002 A 
HETATM   21  C   UNL     1       8.021  32.685  63.786  1.00  0.00     0.001 A 
HETATM   22  C   UNL     1       8.176  32.375  62.438  1.00  0.00     0.019 A 
BRANCH  18  23
HETATM   23  N   UNL     1       4.836  33.409  61.053  1.00  0.00    -0.291 NA
HETATM   24  C   UNL     1       4.578  34.848  60.980  1.00  0.00     0.116 C 
HETATM   25  C   UNL     1       3.641  32.583  61.245  1.00  0.00     0.116 C 
ENDBRANCH  18  23
ENDBRANCH  14  17
ENDBRANCH  12  13
ENDBRANCH   1  12
BRANCH   6  26
HETATM   26  C   UNL     1       7.227  25.814  54.024  1.00  0.00     0.235 C 
BRANCH  26  27
HETATM   27  C   UNL     1       6.534  24.507  53.658  1.00  0.00     0.032 C 
BRANCH  27  28
HETATM   28  C   UNL     1       7.413  23.528  52.878  1.00  0.00     0.040 C 
BRANCH  28  29
HETATM   29  C   UNL     1       7.750  22.329  53.724  1.00  0.00    -0.058 A 
HETATM   30  C   UNL     1       7.556  22.366  55.113  1.00  0.00     0.007 A 
HETATM   31  C   UNL     1       7.910  21.272  55.903  1.00  0.00     0.001 A 
HETATM   32  C   UNL     1       8.462  20.135  55.317  1.00  0.00     0.000 A 
HETATM   33  C   UNL     1       8.661  20.091  53.939  1.00  0.00     0.001 A 
HETATM   34  C   UNL     1       8.309  21.182  53.144  1.00  0.00     0.007 A 
ENDBRANCH  28  29
ENDBRANCH  27  28
ENDBRANCH  26  27
ENDBRANCH   6  26
TORSDOF 8
ENDMDL
MODEL 4
REMARK VINA RESULT:      -9.8      1.755      2.583
REMARK  8 active torsions:
REMARK  status: ('A' for Active; 'I' for Inactive)
REMARK    1  A    between atoms: N_2  and  C_3 
REMARK    2  A    between atoms: C_4  and  C_5 
REMARK       I    between atoms: C_5  and  N_6 
REMARK    3  A    between atoms: N_6  and  C_7 
REMARK    4  A    between atoms: C_7  and  C_8 
REMARK    5  A    between atoms: N_13  and  C_15 
REMARK    6  A    between atoms: C_15  and  C_16 
REMARK    7  A    between atoms: C_16  and  C_17 
REMARK    8  A    between atoms: C_17  and  C_18 
ROOT
HETATM    1  C   UNL     1       7.087  29.976  56.895  1.00  0.00     0.140 C 
HETATM    2  O   UNL     1       6.658  29.218  55.747  1.00  0.00    -0.373 OA
HETATM    3  C   UNL     1       6.730  27.810  56.042  1.00  0.00     0.064 C 
HETATM    4  C   UNL     1       7.610  27.187  54.953  1.00  0.00     0.066 C 
HETATM    5  C   UNL     1       6.963  27.317  53.575  1.00  0.00     0.237 C 
HETATM    6  N   UNL     1       5.569  26.720  53.563  1.00  0.00    -0.071 N 
HETATM    7  H   UNL     1       5.163  27.017  52.667  1.00  0.00     0.279 HD
HETATM    8  C   UNL     1       4.703  27.396  54.616  1.00  0.00     0.237 C 
HETATM    9  C   UNL     1       5.321  27.211  55.990  1.00  0.00     0.066 C 
HETATM   10  C   UNL     1       7.342  27.682  57.440  1.00  0.00     0.041 C 
HETATM   11  C   UNL     1       7.993  29.029  57.663  1.00  0.00     0.036 C 
ENDROOT
BRANCH   1  12
HETATM   12  C   UNL     1       5.873  30.450  57.717  1.00  0.00     0.155 C 
BRANCH  12  13
HETATM   13  N   UNL     1       6.250  30.870  59.056  1.00  0.00    -0.354 N 
HETATM   14  C   UNL     1       6.420  32.198  59.405  1.00  0.00     0.253 C 
HETATM   15  O   UNL     1       6.236  33.134  58.636  1.00  0.00    -0.268 OA
HETATM   16  H   UNL     1       6.517  30.156  59.724  1.00  0.00     0.162 HD
BRANCH  14  17
HETATM   17  C   UNL     1       6.816  32.407  60.829  1.00  0.00     0.053 A 
HETATM   18  C   UNL     1       5.944  32.991  61.776  1.00  0.00     0.025 A 
HETATM   19  C   UNL     1       6.433  33.149  63.089  1.00  0.00     0.025 A 
HETATM   20  C   UNL     1       7.718  32.733  63.452  1.00  0.00     0.002 A 
HETATM   21  C   UNL     1       8.552  32.143  62.512  1.00  0.00     0.001 A 
HETATM   22  C   UNL     1       8.104  31.976  61.205  1.00  0.00     0.019 A 
BRANCH  18  23
HETATM   23  N   UNL     1       4.656  33.463  61.413  1.00  0.00    -0.291 NA
HETATM   24  C   UNL     1       4.667  34.917  61.241  1.00  0.00     0.116 C 
HETATM   25  C   UNL     1       3.565  32.955  62.249  1.00  0.00     0.116 C 
ENDBRANCH  18  23
ENDBRANCH  14  17
ENDBRANCH  12  13
ENDBRANCH   1  12
BRANCH   6  26
HETATM   26  C   UNL     1       5.581  25.208  53.555  1.00  0.00     0.235 C 
BRANCH  26  27
HETATM   27  C   UNL     1       6.399  24.599  52.422  1.00  0.00     0.032 C 
BRANCH  27  28
HETATM   28  C   UNL     1       7.823  24.207  52.817  1.00  0.00     0.040 C 
BRANCH  28  29
HETATM   29  C   UNL     1       7.822  22.910  53.583  1.00  0.00    -0.058 A 
HETATM   30  C   UNL     1       7.800  22.917  54.985  1.00  0.00     0.007 A 
HETATM   31  C   UNL     1       7.844  21.717  55.697  1.00  0.00     0.001 A 
HETATM   32  C   UNL     1       7.914  20.503  55.017  1.00  0.00     0.000 A 
HETATM   33  C   UNL     1       7.938  20.487  53.624  1.00  0.00     0.001 A 
HETATM   34  C   UNL     1       7.895  21.684  52.908  1.00  0.00     0.007 A 
ENDBRANCH  28  29
ENDBRANCH  27  28
ENDBRANCH  26  27
ENDBRANCH   6  26
TORSDOF 8
ENDMDL
MODEL 5
REMARK VINA RESULT:      -9.0      1.962      3.013
REMARK  8 active torsions:
REMARK  status: ('A' for Active; 'I' for Inactive)
REMARK    1  A    between atoms: N_2  and  C_3 
REMARK    2  A    between atoms: C_4  and  C_5 
REMARK       I    between atoms: C_5  and  N_6 
REMARK    3  A    between atoms: N_6  and  C_7 
REMARK    4  A    between atoms: C_7  and  C_8 
REMARK    5  A    between atoms: N_13  and  C_15 
REMARK    6  A    between atoms: C_15  and  C_16 
REMARK    7  A    between atoms: C_16  and  C_17 
REMARK    8  A    between atoms: C_17  and  C_18 
ROOT
HETATM    1  C   UNL     1       6.698  30.742  57.225  1.00  0.00     0.140 C 
HETATM    2  O   UNL     1       6.520  29.871  56.092  1.00  0.00    -0.373 OA
HETATM    3  C   UNL     1       6.823  28.515  56.471  1.00  0.00     0.064 C 
HETATM    4  C   UNL     1       7.896  28.025  55.493  1.00  0.00     0.066 C 
HETATM    5  C   UNL     1       7.362  27.974  54.063  1.00  0.00     0.237 C 
HETATM    6  N   UNL     1       6.108  27.125  53.973  1.00  0.00    -0.071 N 
HETATM    7  H   UNL     1       5.735  27.303  53.033  1.00  0.00     0.279 HD
HETATM    8  C   UNL     1       5.043  27.667  54.914  1.00  0.00     0.237 C 
HETATM    9  C   UNL     1       5.560  27.660  56.341  1.00  0.00     0.066 C 
HETATM   10  C   UNL     1       7.322  28.563  57.918  1.00  0.00     0.041 C 
HETATM   11  C   UNL     1       7.690  30.016  58.115  1.00  0.00     0.036 C 
ENDROOT
BRANCH   1  12
HETATM   12  C   UNL     1       5.349  31.013  57.919  1.00  0.00     0.155 C 
BRANCH  12  13
HETATM   13  N   UNL     1       5.433  32.109  58.868  1.00  0.00    -0.354 N 
HETATM   14  C   UNL     1       4.317  32.690  59.444  1.00  0.00     0.253 C 
HETATM   15  O   UNL     1       3.169  32.316  59.235  1.00  0.00    -0.268 OA
HETATM   16  H   UNL     1       6.336  32.542  59.020  1.00  0.00     0.162 HD
BRANCH  14  17
HETATM   17  C   UNL     1       4.629  33.807  60.384  1.00  0.00     0.053 A 
HETATM   18  C   UNL     1       5.501  33.643  61.485  1.00  0.00     0.025 A 
HETATM   19  C   UNL     1       5.711  34.766  62.312  1.00  0.00     0.025 A 
HETATM   20  C   UNL     1       5.100  35.997  62.052  1.00  0.00     0.002 A 
HETATM   21  C   UNL     1       4.263  36.143  60.953  1.00  0.00     0.001 A 
HETATM   22  C   UNL     1       4.030  35.054  60.118  1.00  0.00     0.019 A 
BRANCH  18  23
HETATM   23  N   UNL     1       6.088  32.388  61.792  1.00  0.00    -0.291 NA
HETATM   24  C   UNL     1       5.436  31.782  62.954  1.00  0.00     0.116 C 
HETATM   25  C   UNL     1       7.552  32.401  61.850  1.00  0.00     0.116 C 
ENDBRANCH  18  23
ENDBRANCH  14  17
ENDBRANCH  12  13
ENDBRANCH   1  12
BRANCH   6  26
HETATM   26  C   UNL     1       6.401  25.643  54.053  1.00  0.00     0.235 C 
BRANCH  26  27
HETATM   27  C   UNL     1       7.678  25.222  53.335  1.00  0.00     0.032 C 
BRANCH  27  28
HETATM   28  C   UNL     1       7.553  23.917  52.548  1.00  0.00     0.040 C 
BRANCH  28  29
HETATM   29  C   UNL     1       8.020  22.751  53.379  1.00  0.00    -0.058 A 
HETATM   30  C   UNL     1       7.848  21.438  52.915  1.00  0.00     0.007 A 
HETATM   31  C   UNL     1       8.240  20.355  53.702  1.00  0.00     0.001 A 
HETATM   32  C   UNL     1       8.802  20.572  54.959  1.00  0.00     0.000 A 
HETATM   33  C   UNL     1       8.974  21.872  55.429  1.00  0.00     0.001 A 
HETATM   34  C   UNL     1       8.583  22.958  54.645  1.00  0.00     0.007 A 
ENDBRANCH  28  29
ENDBRANCH  27  28
ENDBRANCH  26  27
ENDBRANCH   6  26
TORSDOF 8
ENDMDL
MODEL 6
REMARK VINA RESULT:      -9.0      1.991      3.126
REMARK  8 active torsions:
REMARK  status: ('A' for Active; 'I' for Inactive)
REMARK    1  A    between atoms: N_2  and  C_3 
REMARK    2  A    between atoms: C_4  and  C_5 
REMARK       I    between atoms: C_5  and  N_6 
REMARK    3  A    between atoms: N_6  and  C_7 
REMARK    4  A    between atoms: C_7  and  C_8 
REMARK    5  A    between atoms: N_13  and  C_15 
REMARK    6  A    between atoms: C_15  and  C_16 
REMARK    7  A    between atoms: C_16  and  C_17 
REMARK    8  A    between atoms: C_17  and  C_18 
ROOT
HETATM    1  C   UNL     1       4.088  30.962  56.744  1.00  0.00     0.140 C 
HETATM    2  O   UNL     1       4.121  29.603  56.264  1.00  0.00    -0.373 OA
HETATM    3  C   UNL     1       5.489  29.175  56.117  1.00  0.00     0.064 C 
HETATM    4  C   UNL     1       5.636  28.701  54.667  1.00  0.00     0.066 C 
HETATM    5  C   UNL     1       4.759  27.482  54.389  1.00  0.00     0.237 C 
HETATM    6  N   UNL     1       5.052  26.359  55.366  1.00  0.00    -0.071 N 
HETATM    7  H   UNL     1       4.301  25.675  55.215  1.00  0.00     0.279 HD
HETATM    8  C   UNL     1       4.844  26.843  56.793  1.00  0.00     0.237 C 
HETATM    9  C   UNL     1       5.762  28.017  57.081  1.00  0.00     0.066 C 
HETATM   10  C   UNL     1       6.367  30.388  56.433  1.00  0.00     0.041 C 
HETATM   11  C   UNL     1       5.415  31.555  56.306  1.00  0.00     0.036 C 
ENDROOT
BRANCH   1  12
HETATM   12  C   UNL     1       3.888  30.992  58.272  1.00  0.00     0.155 C 
BRANCH  12  13
HETATM   13  N   UNL     1       5.148  31.103  58.986  1.00  0.00    -0.354 N 
HETATM   14  C   UNL     1       5.616  32.300  59.499  1.00  0.00     0.253 C 
HETATM   15  O   UNL     1       5.002  33.358  59.429  1.00  0.00    -0.268 OA
HETATM   16  H   UNL     1       5.762  30.297  59.002  1.00  0.00     0.162 HD
BRANCH  14  17
HETATM   17  C   UNL     1       6.936  32.192  60.187  1.00  0.00     0.053 A 
HETATM   18  C   UNL     1       7.078  32.400  61.579  1.00  0.00     0.025 A 
HETATM   19  C   UNL     1       8.377  32.283  62.117  1.00  0.00     0.025 A 
HETATM   20  C   UNL     1       9.479  31.960  61.319  1.00  0.00     0.002 A 
HETATM   21  C   UNL     1       9.315  31.740  59.957  1.00  0.00     0.001 A 
HETATM   22  C   UNL     1       8.048  31.851  59.392  1.00  0.00     0.019 A 
BRANCH  18  23
HETATM   23  N   UNL     1       5.980  32.777  62.394  1.00  0.00    -0.291 NA
HETATM   24  C   UNL     1       6.327  33.928  63.229  1.00  0.00     0.116 C 
HETATM   25  C   UNL     1       5.348  31.668  63.114  1.00  0.00     0.116 C 
ENDBRANCH  18  23
ENDBRANCH  14  17
ENDBRANCH  12  13
ENDBRANCH   1  12
BRANCH   6  26
HETATM   26  C   UNL     1       6.355  25.650  55.068  1.00  0.00     0.235 C 
BRANCH  26  27
HETATM   27  C   UNL     1       6.659  24.489  56.007  1.00  0.00     0.032 C 
BRANCH  27  28
HETATM   28  C   UNL     1       8.091  23.963  55.908  1.00  0.00     0.040 C 
BRANCH  28  29
HETATM   29  C   UNL     1       8.142  22.719  55.059  1.00  0.00    -0.058 A 
HETATM   30  C   UNL     1       8.055  22.813  53.663  1.00  0.00     0.007 A 
HETATM   31  C   UNL     1       8.057  21.660  52.877  1.00  0.00     0.001 A 
HETATM   32  C   UNL     1       8.141  20.406  53.477  1.00  0.00     0.000 A 
HETATM   33  C   UNL     1       8.225  20.303  54.864  1.00  0.00     0.001 A 
HETATM   34  C   UNL     1       8.223  21.454  55.654  1.00  0.00     0.007 A 
ENDBRANCH  28  29
ENDBRANCH  27  28
ENDBRANCH  26  27
ENDBRANCH   6  26
TORSDOF 8
ENDMDL
MODEL 7
REMARK VINA RESULT:      -8.8      5.672     10.312
REMARK  8 active torsions:
REMARK  status: ('A' for Active; 'I' for Inactive)
REMARK    1  A    between atoms: N_2  and  C_3 
REMARK    2  A    between atoms: C_4  and  C_5 
REMARK       I    between atoms: C_5  and  N_6 
REMARK    3  A    between atoms: N_6  and  C_7 
REMARK    4  A    between atoms: C_7  and  C_8 
REMARK    5  A    between atoms: N_13  and  C_15 
REMARK    6  A    between atoms: C_15  and  C_16 
REMARK    7  A    between atoms: C_16  and  C_17 
REMARK    8  A    between atoms: C_17  and  C_18 
ROOT
HETATM    1  C   UNL     1       4.713  29.385  52.545  1.00  0.00     0.140 C 
HETATM    2  O   UNL     1       5.638  28.981  53.574  1.00  0.00    -0.373 OA
HETATM    3  C   UNL     1       5.218  27.722  54.134  1.00  0.00     0.064 C 
HETATM    4  C   UNL     1       5.091  27.946  55.645  1.00  0.00     0.066 C 
HETATM    5  C   UNL     1       6.442  28.280  56.273  1.00  0.00     0.237 C 
HETATM    6  N   UNL     1       7.473  27.212  55.961  1.00  0.00    -0.071 N 
HETATM    7  H   UNL     1       8.369  27.614  56.264  1.00  0.00     0.279 HD
HETATM    8  C   UNL     1       7.618  27.051  54.456  1.00  0.00     0.237 C 
HETATM    9  C   UNL     1       6.284  26.661  53.845  1.00  0.00     0.066 C 
HETATM   10  C   UNL     1       3.883  27.369  53.475  1.00  0.00     0.041 C 
HETATM   11  C   UNL     1       3.413  28.687  52.903  1.00  0.00     0.036 C 
ENDROOT
BRANCH   1  12
HETATM   12  C   UNL     1       5.246  28.995  51.153  1.00  0.00     0.155 C 
BRANCH  12  13
HETATM   13  N   UNL     1       4.197  28.995  50.148  1.00  0.00    -0.354 N 
HETATM   14  C   UNL     1       3.989  27.936  49.281  1.00  0.00     0.253 C 
HETATM   15  O   UNL     1       4.641  26.899  49.303  1.00  0.00    -0.268 OA
HETATM   16  H   UNL     1       3.678  29.852  49.997  1.00  0.00     0.162 HD
BRANCH  14  17
HETATM   17  C   UNL     1       2.865  28.147  48.322  1.00  0.00     0.053 A 
HETATM   18  C   UNL     1       2.746  29.325  47.549  1.00  0.00     0.025 A 
HETATM   19  C   UNL     1       1.635  29.418  46.685  1.00  0.00     0.025 A 
HETATM   20  C   UNL     1       0.696  28.387  46.579  1.00  0.00     0.002 A 
HETATM   21  C   UNL     1       0.842  27.229  47.331  1.00  0.00     0.001 A 
HETATM   22  C   UNL     1       1.925  27.106  48.197  1.00  0.00     0.019 A 
BRANCH  18  23
HETATM   23  N   UNL     1       3.662  30.401  47.682  1.00  0.00    -0.291 NA
HETATM   24  C   UNL     1       2.968  31.624  48.091  1.00  0.00     0.116 C 
HETATM   25  C   UNL     1       4.572  30.567  46.546  1.00  0.00     0.116 C 
ENDBRANCH  18  23
ENDBRANCH  14  17
ENDBRANCH  12  13
ENDBRANCH   1  12
BRANCH   6  26
HETATM   26  C   UNL     1       7.267  25.949  56.768  1.00  0.00     0.235 C 
BRANCH  26  27
HETATM   27  C   UNL     1       8.205  24.809  56.386  1.00  0.00     0.032 C 
BRANCH  27  28
HETATM   28  C   UNL     1       7.609  23.415  56.585  1.00  0.00     0.040 C 
BRANCH  28  29
HETATM   29  C   UNL     1       7.810  22.572  55.353  1.00  0.00    -0.058 A 
HETATM   30  C   UNL     1       7.774  23.161  54.081  1.00  0.00     0.007 A 
HETATM   31  C   UNL     1       7.915  22.376  52.936  1.00  0.00     0.001 A 
HETATM   32  C   UNL     1       8.088  20.998  53.051  1.00  0.00     0.000 A 
HETATM   33  C   UNL     1       8.123  20.404  54.311  1.00  0.00     0.001 A 
HETATM   34  C   UNL     1       7.982  21.186  55.458  1.00  0.00     0.007 A 
ENDBRANCH  28  29
ENDBRANCH  27  28
ENDBRANCH  26  27
ENDBRANCH   6  26
TORSDOF 8
ENDMDL
MODEL 8
REMARK VINA RESULT:      -8.7      2.070      3.258
REMARK  8 active torsions:
REMARK  status: ('A' for Active; 'I' for Inactive)
REMARK    1  A    between atoms: N_2  and  C_3 
REMARK    2  A    between atoms: C_4  and  C_5 
REMARK       I    between atoms: C_5  and  N_6 
REMARK    3  A    between atoms: N_6  and  C_7 
REMARK    4  A    between atoms: C_7  and  C_8 
REMARK    5  A    between atoms: N_13  and  C_15 
REMARK    6  A    between atoms: C_15  and  C_16 
REMARK    7  A    between atoms: C_16  and  C_17 
REMARK    8  A    between atoms: C_17  and  C_18 
ROOT
HETATM    1  C   UNL     1       3.658  32.155  58.997  1.00  0.00     0.140 C 
HETATM    2  O   UNL     1       3.777  31.210  57.916  1.00  0.00    -0.373 OA
HETATM    3  C   UNL     1       5.150  31.135  57.487  1.00  0.00     0.064 C 
HETATM    4  C   UNL     1       5.147  31.432  55.983  1.00  0.00     0.066 C 
HETATM    5  C   UNL     1       4.384  30.361  55.207  1.00  0.00     0.237 C 
HETATM    6  N   UNL     1       4.934  28.977  55.493  1.00  0.00    -0.071 N 
HETATM    7  H   UNL     1       4.252  28.330  55.079  1.00  0.00     0.279 HD
HETATM    8  C   UNL     1       4.873  28.689  56.986  1.00  0.00     0.237 C 
HETATM    9  C   UNL     1       5.684  29.723  57.746  1.00  0.00     0.066 C 
HETATM   10  C   UNL     1       5.922  32.183  58.293  1.00  0.00     0.041 C 
HETATM   11  C   UNL     1       4.836  33.096  58.815  1.00  0.00     0.036 C 
ENDROOT
BRANCH   1  12
HETATM   12  C   UNL     1       3.670  31.429  60.356  1.00  0.00     0.155 C 
BRANCH  12  13
HETATM   13  N   UNL     1       4.584  32.050  61.299  1.00  0.00    -0.354 N 
HETATM   14  C   UNL     1       4.771  31.576  62.585  1.00  0.00     0.253 C 
HETATM   15  O   UNL     1       4.214  30.580  63.032  1.00  0.00    -0.268 OA
HETATM   16  H   UNL     1       5.009  32.934  61.043  1.00  0.00     0.162 HD
BRANCH  14  17
HETATM   17  C   UNL     1       5.748  32.367  63.390  1.00  0.00     0.053 A 
HETATM   18  C   UNL     1       7.129  32.390  63.086  1.00  0.00     0.025 A 
HETATM   19  C   UNL     1       7.959  33.164  63.924  1.00  0.00     0.025 A 
HETATM   20  C   UNL     1       7.444  33.894  65.000  1.00  0.00     0.002 A 
HETATM   21  C   UNL     1       6.082  33.874  65.269  1.00  0.00     0.001 A 
HETATM   22  C   UNL     1       5.234  33.117  64.465  1.00  0.00     0.019 A 
BRANCH  18  23
HETATM   23  N   UNL     1       7.674  31.616  62.029  1.00  0.00    -0.291 NA
HETATM   24  C   UNL     1       8.551  30.568  62.554  1.00  0.00     0.116 C 
HETATM   25  C   UNL     1       8.250  32.403  60.935  1.00  0.00     0.116 C 
ENDBRANCH  18  23
ENDBRANCH  14  17
ENDBRANCH  12  13
ENDBRANCH   1  12
BRANCH   6  26
HETATM   26  C   UNL     1       6.254  28.719  54.800  1.00  0.00     0.235 C 
BRANCH  26  27
HETATM   27  C   UNL     1       6.408  27.300  54.267  1.00  0.00     0.032 C 
BRANCH  27  28
HETATM   28  C   UNL     1       7.228  26.377  55.170  1.00  0.00     0.040 C 
BRANCH  28  29
HETATM   29  C   UNL     1       7.467  25.051  54.496  1.00  0.00    -0.058 A 
HETATM   30  C   UNL     1       7.746  24.997  53.122  1.00  0.00     0.007 A 
HETATM   31  C   UNL     1       7.923  23.767  52.487  1.00  0.00     0.001 A 
HETATM   32  C   UNL     1       7.821  22.583  53.215  1.00  0.00     0.000 A 
HETATM   33  C   UNL     1       7.542  22.628  54.580  1.00  0.00     0.001 A 
HETATM   34  C   UNL     1       7.364  23.856  55.219  1.00  0.00     0.007 A 
ENDBRANCH  28  29
ENDBRANCH  27  28
ENDBRANCH  26  27
ENDBRANCH   6  26
TORSDOF 8
ENDMDL
MODEL 9
REMARK VINA RESULT:      -8.7      2.196      2.976
REMARK  8 active torsions:
REMARK  status: ('A' for Active; 'I' for Inactive)
REMARK    1  A    between atoms: N_2  and  C_3 
REMARK    2  A    between atoms: C_4  and  C_5 
REMARK       I    between atoms: C_5  and  N_6 
REMARK    3  A    between atoms: N_6  and  C_7 
REMARK    4  A    between atoms: C_7  and  C_8 
REMARK    5  A    between atoms: N_13  and  C_15 
REMARK    6  A    between atoms: C_15  and  C_16 
REMARK    7  A    between atoms: C_16  and  C_17 
REMARK    8  A    between atoms: C_17  and  C_18 
ROOT
HETATM    1  C   UNL     1       3.903  31.780  57.987  1.00  0.00     0.140 C 
HETATM    2  O   UNL     1       3.869  30.649  57.095  1.00  0.00    -0.373 OA
HETATM    3  C   UNL     1       5.208  30.166  56.874  1.00  0.00     0.064 C 
HETATM    4  C   UNL     1       5.420  30.167  55.356  1.00  0.00     0.066 C 
HETATM    5  C   UNL     1       4.477  29.186  54.663  1.00  0.00     0.237 C 
HETATM    6  N   UNL     1       4.618  27.789  55.235  1.00  0.00    -0.071 N 
HETATM    7  H   UNL     1       3.831  27.261  54.839  1.00  0.00     0.279 HD
HETATM    8  C   UNL     1       4.348  27.809  56.732  1.00  0.00     0.237 C 
HETATM    9  C   UNL     1       5.327  28.741  57.423  1.00  0.00     0.066 C 
HETATM   10  C   UNL     1       6.149  31.128  57.602  1.00  0.00     0.041 C 
HETATM   11  C   UNL     1       5.296  32.358  57.820  1.00  0.00     0.036 C 
ENDROOT
BRANCH   1  12
HETATM   12  C   UNL     1       3.599  31.340  59.432  1.00  0.00     0.155 C 
BRANCH  12  13
HETATM   13  N   UNL     1       4.631  31.769  60.361  1.00  0.00    -0.354 N 
HETATM   14  C   UNL     1       4.431  31.828  61.729  1.00  0.00     0.253 C 
HETATM   15  O   UNL     1       3.388  31.495  62.281  1.00  0.00    -0.268 OA
HETATM   16  H   UNL     1       5.487  32.154  59.981  1.00  0.00     0.162 HD
BRANCH  14  17
HETATM   17  C   UNL     1       5.618  32.305  62.498  1.00  0.00     0.053 A 
HETATM   18  C   UNL     1       5.570  33.455  63.319  1.00  0.00     0.025 A 
HETATM   19  C   UNL     1       6.758  33.817  63.988  1.00  0.00     0.025 A 
HETATM   20  C   UNL     1       7.932  33.066  63.864  1.00  0.00     0.002 A 
HETATM   21  C   UNL     1       7.952  31.928  63.068  1.00  0.00     0.001 A 
HETATM   22  C   UNL     1       6.799  31.545  62.390  1.00  0.00     0.019 A 
BRANCH  18  23
HETATM   23  N   UNL     1       4.402  34.255  63.417  1.00  0.00    -0.291 NA
HETATM   24  C   UNL     1       4.628  35.574  62.822  1.00  0.00     0.116 C 
HETATM   25  C   UNL     1       3.795  34.282  64.750  1.00  0.00     0.116 C 
ENDBRANCH  18  23
ENDBRANCH  14  17
ENDBRANCH  12  13
ENDBRANCH   1  12
BRANCH   6  26
HETATM   26  C   UNL     1       5.882  27.095  54.778  1.00  0.00     0.235 C 
BRANCH  26  27
HETATM   27  C   UNL     1       5.783  25.575  54.756  1.00  0.00     0.032 C 
BRANCH  27  28
HETATM   28  C   UNL     1       6.875  24.865  55.558  1.00  0.00     0.040 C 
BRANCH  28  29
HETATM   29  C   UNL     1       7.259  23.567  54.897  1.00  0.00    -0.058 A 
HETATM   30  C   UNL     1       7.492  22.421  55.671  1.00  0.00     0.007 A 
HETATM   31  C   UNL     1       7.891  21.229  55.064  1.00  0.00     0.001 A 
HETATM   32  C   UNL     1       8.064  21.172  53.683  1.00  0.00     0.000 A 
HETATM   33  C   UNL     1       7.838  22.307  52.907  1.00  0.00     0.001 A 
HETATM   34  C   UNL     1       7.438  23.500  53.509  1.00  0.00     0.007 A 
ENDBRANCH  28  29
ENDBRANCH  27  28
ENDBRANCH  26  27
ENDBRANCH   6  26
TORSDOF 8
ENDMDL
MODEL 10
REMARK VINA RESULT:      -8.6      2.256      3.106
REMARK  8 active torsions:
REMARK  status: ('A' for Active; 'I' for Inactive)
REMARK    1  A    between atoms: N_2  and  C_3 
REMARK    2  A    between atoms: C_4  and  C_5 
REMARK       I    between atoms: C_5  and  N_6 
REMARK    3  A    between atoms: N_6  and  C_7 
REMARK    4  A    between atoms: C_7  and  C_8 
REMARK    5  A    between atoms: N_13  and  C_15 
REMARK    6  A    between atoms: C_15  and  C_16 
REMARK    7  A    between atoms: C_16  and  C_17 
REMARK    8  A    between atoms: C_17  and  C_18 
ROOT
HETATM    1  C   UNL     1       6.485  30.486  57.052  1.00  0.00     0.140 C 
HETATM    2  O   UNL     1       6.372  29.691  55.856  1.00  0.00    -0.373 OA
HETATM    3  C   UNL     1       6.527  28.297  56.185  1.00  0.00     0.064 C 
HETATM    4  C   UNL     1       7.664  27.771  55.303  1.00  0.00     0.066 C 
HETATM    5  C   UNL     1       7.295  27.836  53.822  1.00  0.00     0.237 C 
HETATM    6  N   UNL     1       5.999  27.099  53.545  1.00  0.00    -0.071 N 
HETATM    7  H   UNL     1       5.751  27.354  52.582  1.00  0.00     0.279 HD
HETATM    8  C   UNL     1       4.877  27.678  54.393  1.00  0.00     0.237 C 
HETATM    9  C   UNL     1       5.225  27.556  55.866  1.00  0.00     0.066 C 
HETATM   10  C   UNL     1       6.859  28.230  57.678  1.00  0.00     0.041 C 
HETATM   11  C   UNL     1       7.311  29.636  58.001  1.00  0.00     0.036 C 
ENDROOT
BRANCH   1  12
HETATM   12  C   UNL     1       5.090  30.830  57.608  1.00  0.00     0.155 C 
BRANCH  12  13
HETATM   13  N   UNL     1       5.148  31.869  58.622  1.00  0.00    -0.354 N 
HETATM   14  C   UNL     1       4.105  32.124  59.495  1.00  0.00     0.253 C 
HETATM   15  O   UNL     1       3.061  31.482  59.516  1.00  0.00    -0.268 OA
HETATM   16  H   UNL     1       5.933  32.509  58.608  1.00  0.00     0.162 HD
BRANCH  14  17
HETATM   17  C   UNL     1       4.369  33.240  60.450  1.00  0.00     0.053 A 
HETATM   18  C   UNL     1       3.444  34.290  60.656  1.00  0.00     0.025 A 
HETATM   19  C   UNL     1       3.808  35.296  61.574  1.00  0.00     0.025 A 
HETATM   20  C   UNL     1       5.022  35.257  62.269  1.00  0.00     0.002 A 
HETATM   21  C   UNL     1       5.908  34.206  62.067  1.00  0.00     0.001 A 
HETATM   22  C   UNL     1       5.582  33.198  61.165  1.00  0.00     0.019 A 
BRANCH  18  23
HETATM   23  N   UNL     1       2.232  34.371  59.923  1.00  0.00    -0.291 NA
HETATM   24  C   UNL     1       2.387  35.247  58.761  1.00  0.00     0.116 C 
HETATM   25  C   UNL     1       1.046  34.644  60.740  1.00  0.00     0.116 C 
ENDBRANCH  18  23
ENDBRANCH  14  17
ENDBRANCH  12  13
ENDBRANCH   1  12
BRANCH   6  26
HETATM   26  C   UNL     1       6.167  25.595  53.568  1.00  0.00     0.235 C 
BRANCH  26  27
HETATM   27  C   UNL     1       7.576  25.123  53.232  1.00  0.00     0.032 C 
BRANCH  27  28
HETATM   28  C   UNL     1       7.628  23.789  52.486  1.00  0.00     0.040 C 
BRANCH  28  29
HETATM   29  C   UNL     1       7.828  22.650  53.451  1.00  0.00    -0.058 A 
HETATM   30  C   UNL     1       8.247  21.395  52.985  1.00  0.00     0.007 A 
HETATM   31  C   UNL     1       8.390  20.326  53.871  1.00  0.00     0.001 A 
HETATM   32  C   UNL     1       8.113  20.499  55.226  1.00  0.00     0.000 A 
HETATM   33  C   UNL     1       7.695  21.742  55.696  1.00  0.00     0.001 A 
HETATM   34  C   UNL     1       7.551  22.814  54.814  1.00  0.00     0.007 A 
ENDBRANCH  28  29
ENDBRANCH  27  28
ENDBRANCH  26  27
ENDBRANCH   6  26
TORSDOF 8
ENDMDL
