MODEL 1
REMARK VINA RESULT:      -8.1      0.000      0.000
REMARK  4 active torsions:
REMARK  status: ('A' for Active; 'I' for Inactive)
REMARK    1  A    between atoms: C_6  and  C_7 
REMARK    2  A    between atoms: C_7  and  N_8 
REMARK    3  A    between atoms: N_8  and  C_9 
REMARK    4  A    between atoms: C_9  and  C_10 
ROOT
HETATM    1  C   UNL     1       6.779  27.313  57.203  1.00  0.00     0.327 C 
ENDROOT
BRANCH   1   2
HETATM    2  N   UNL     1       7.486  26.123  56.709  1.00  0.00     0.097 N 
HETATM    3  H   UNL     1       7.714  26.252  55.721  1.00  0.00     0.317 HD
BRANCH   2   4
HETATM    4  C   UNL     1       6.653  24.905  56.799  1.00  0.00     0.252 C 
HETATM    5  C   UNL     1       5.170  25.207  57.042  1.00  0.00     0.048 C 
BRANCH   4   6
HETATM    6  C   UNL     1       6.843  24.142  55.521  1.00  0.00     0.006 A 
HETATM    7  C   UNL     1       6.398  24.506  54.259  1.00  0.00     0.058 A 
HETATM    8  O   UNL     1       6.790  23.593  53.330  1.00  0.00    -0.320 OA
HETATM    9  C   UNL     1       5.629  25.658  53.739  1.00  0.00     0.077 C 
HETATM   10  C   UNL     1       7.515  22.642  53.974  1.00  0.00     0.050 A 
HETATM   11  C   UNL     1       8.084  21.567  53.137  1.00  0.00     0.076 C 
HETATM   12  C   UNL     1       7.571  22.926  55.320  1.00  0.00     0.044 A 
ENDBRANCH   4   6
ENDBRANCH   2   4
ENDBRANCH   1   2
BRANCH   1  13
HETATM   13  C   UNL     1       7.769  28.428  57.479  1.00  0.00     0.044 A 
HETATM   14  N   UNL     1       7.524  29.175  58.618  1.00  0.00    -0.338 N 
HETATM   15  H   UNL     1       6.726  28.930  59.210  1.00  0.00     0.168 HD
HETATM   16  C   UNL     1       8.320  30.159  58.951  1.00  0.00     0.158 A 
HETATM   17  N   UNL     1       9.375  30.470  58.225  1.00  0.00    -0.269 N 
HETATM   18  S   UNL     1       8.106  31.159  60.354  1.00  0.00    -0.064 SA
HETATM   19  C   UNL     1       9.745  29.781  57.052  1.00  0.00     0.255 A 
HETATM   20  C   UNL     1      10.084  31.536  58.741  1.00  0.00     0.109 A 
HETATM   21  O   UNL     1      10.730  30.091  56.410  1.00  0.00    -0.268 OA
HETATM   22  C   UNL     1       8.834  28.679  56.705  1.00  0.00     0.101 A 
HETATM   23  C   UNL     1       9.551  32.026  59.870  1.00  0.00     0.071 A 
ENDBRANCH   1  13
TORSDOF 4
ENDMDL
MODEL 2
REMARK VINA RESULT:      -8.1      2.345      3.102
REMARK  4 active torsions:
REMARK  status: ('A' for Active; 'I' for Inactive)
REMARK    1  A    between atoms: C_6  and  C_7 
REMARK    2  A    between atoms: C_7  and  N_8 
REMARK    3  A    between atoms: N_8  and  C_9 
REMARK    4  A    between atoms: C_9  and  C_10 
ROOT
HETATM    1  C   UNL     1       6.948  27.629  53.384  1.00  0.00     0.327 C 
ENDROOT
BRANCH   1   2
HETATM    2  N   UNL     1       7.579  26.303  53.420  1.00  0.00     0.097 N 
HETATM    3  H   UNL     1       7.663  25.943  52.466  1.00  0.00     0.317 HD
BRANCH   2   4
HETATM    4  C   UNL     1       6.769  25.323  54.174  1.00  0.00     0.252 C 
HETATM    5  C   UNL     1       5.332  25.201  53.653  1.00  0.00     0.048 C 
BRANCH   4   6
HETATM    6  C   UNL     1       7.482  24.004  54.098  1.00  0.00     0.006 A 
HETATM    7  C   UNL     1       8.329  23.459  55.051  1.00  0.00     0.058 A 
HETATM    8  O   UNL     1       8.759  22.228  54.662  1.00  0.00    -0.320 OA
HETATM    9  C   UNL     1       8.821  23.923  56.366  1.00  0.00     0.077 C 
HETATM   10  C   UNL     1       8.176  21.952  53.467  1.00  0.00     0.050 A 
HETATM   11  C   UNL     1       8.472  20.630  52.878  1.00  0.00     0.076 C 
HETATM   12  C   UNL     1       7.390  23.011  53.072  1.00  0.00     0.044 A 
ENDBRANCH   4   6
ENDBRANCH   2   4
ENDBRANCH   1   2
BRANCH   1  13
HETATM   13  C   UNL     1       7.184  28.352  54.696  1.00  0.00     0.044 A 
HETATM   14  N   UNL     1       8.499  28.686  54.964  1.00  0.00    -0.338 N 
HETATM   15  H   UNL     1       9.220  28.457  54.276  1.00  0.00     0.168 HD
HETATM   16  C   UNL     1       8.812  29.317  56.068  1.00  0.00     0.158 A 
HETATM   17  N   UNL     1       7.897  29.657  56.953  1.00  0.00    -0.269 N 
HETATM   18  S   UNL     1      10.427  29.783  56.505  1.00  0.00    -0.064 SA
HETATM   19  C   UNL     1       6.522  29.389  56.795  1.00  0.00     0.255 A 
HETATM   20  C   UNL     1       8.427  30.312  58.047  1.00  0.00     0.109 A 
HETATM   21  O   UNL     1       5.703  29.723  57.629  1.00  0.00    -0.268 OA
HETATM   22  C   UNL     1       6.201  28.683  55.544  1.00  0.00     0.101 A 
HETATM   23  C   UNL     1       9.757  30.464  57.975  1.00  0.00     0.071 A 
ENDBRANCH   1  13
TORSDOF 4
ENDMDL
MODEL 3
REMARK VINA RESULT:      -7.8      5.841      7.606
REMARK  4 active torsions:
REMARK  status: ('A' for Active; 'I' for Inactive)
REMARK    1  A    between atoms: C_6  and  C_7 
REMARK    2  A    between atoms: C_7  and  N_8 
REMARK    3  A    between atoms: N_8  and  C_9 
REMARK    4  A    between atoms: C_9  and  C_10 
ROOT
HETATM    1  C   UNL     1       5.427  25.449  51.886  1.00  0.00     0.327 C 
ENDROOT
BRANCH   1   2
HETATM    2  N   UNL     1       6.841  25.398  52.281  1.00  0.00     0.097 N 
HETATM    3  H   UNL     1       7.301  24.626  51.793  1.00  0.00     0.317 HD
BRANCH   2   4
HETATM    4  C   UNL     1       7.003  25.143  53.729  1.00  0.00     0.252 C 
HETATM    5  C   UNL     1       5.676  25.164  54.496  1.00  0.00     0.048 C 
BRANCH   4   6
HETATM    6  C   UNL     1       7.686  23.814  53.872  1.00  0.00     0.006 A 
HETATM    7  C   UNL     1       8.389  23.353  54.975  1.00  0.00     0.058 A 
HETATM    8  O   UNL     1       8.833  22.085  54.765  1.00  0.00    -0.320 OA
HETATM    9  C   UNL     1       8.719  23.937  56.294  1.00  0.00     0.077 C 
HETATM   10  C   UNL     1       8.402  21.701  53.536  1.00  0.00     0.050 A 
HETATM   11  C   UNL     1       8.737  20.324  53.119  1.00  0.00     0.076 C 
HETATM   12  C   UNL     1       7.701  22.727  52.942  1.00  0.00     0.044 A 
ENDBRANCH   4   6
ENDBRANCH   2   4
ENDBRANCH   1   2
BRANCH   1  13
HETATM   13  C   UNL     1       5.182  26.644  50.985  1.00  0.00     0.044 A 
HETATM   14  N   UNL     1       4.311  26.430  49.933  1.00  0.00    -0.338 N 
HETATM   15  H   UNL     1       3.871  25.512  49.832  1.00  0.00     0.168 HD
HETATM   16  C   UNL     1       4.026  27.397  49.098  1.00  0.00     0.158 A 
HETATM   17  N   UNL     1       4.550  28.599  49.229  1.00  0.00    -0.269 N 
HETATM   18  S   UNL     1       2.950  27.239  47.745  1.00  0.00    -0.064 SA
HETATM   19  C   UNL     1       5.440  28.953  50.264  1.00  0.00     0.255 A 
HETATM   20  C   UNL     1       4.128  29.477  48.251  1.00  0.00     0.109 A 
HETATM   21  O   UNL     1       5.900  30.075  50.358  1.00  0.00    -0.268 OA
HETATM   22  C   UNL     1       5.737  27.847  51.188  1.00  0.00     0.101 A 
HETATM   23  C   UNL     1       3.275  28.921  47.378  1.00  0.00     0.071 A 
ENDBRANCH   1  13
TORSDOF 4
ENDMDL
MODEL 4
REMARK VINA RESULT:      -7.8      2.387      3.067
REMARK  4 active torsions:
REMARK  status: ('A' for Active; 'I' for Inactive)
REMARK    1  A    between atoms: C_6  and  C_7 
REMARK    2  A    between atoms: C_7  and  N_8 
REMARK    3  A    between atoms: N_8  and  C_9 
REMARK    4  A    between atoms: C_9  and  C_10 
ROOT
HETATM    1  C   UNL     1       6.964  27.606  53.618  1.00  0.00     0.327 C 
ENDROOT
BRANCH   1   2
HETATM    2  N   UNL     1       7.629  26.305  53.769  1.00  0.00     0.097 N 
HETATM    3  H   UNL     1       7.991  26.003  52.861  1.00  0.00     0.317 HD
BRANCH   2   4
HETATM    4  C   UNL     1       6.695  25.254  54.226  1.00  0.00     0.252 C 
HETATM    5  C   UNL     1       5.392  25.216  53.420  1.00  0.00     0.048 C 
BRANCH   4   6
HETATM    6  C   UNL     1       7.421  23.944  54.135  1.00  0.00     0.006 A 
HETATM    7  C   UNL     1       8.272  23.395  55.084  1.00  0.00     0.058 A 
HETATM    8  O   UNL     1       8.715  22.174  54.681  1.00  0.00    -0.320 OA
HETATM    9  C   UNL     1       8.755  23.848  56.407  1.00  0.00     0.077 C 
HETATM   10  C   UNL     1       8.139  21.907  53.481  1.00  0.00     0.050 A 
HETATM   11  C   UNL     1       8.450  20.595  52.877  1.00  0.00     0.076 C 
HETATM   12  C   UNL     1       7.343  22.963  53.097  1.00  0.00     0.044 A 
ENDBRANCH   4   6
ENDBRANCH   2   4
ENDBRANCH   1   2
BRANCH   1  13
HETATM   13  C   UNL     1       7.033  28.379  54.921  1.00  0.00     0.044 A 
HETATM   14  N   UNL     1       6.123  29.412  55.050  1.00  0.00    -0.338 N 
HETATM   15  H   UNL     1       5.455  29.583  54.295  1.00  0.00     0.168 HD
HETATM   16  C   UNL     1       6.094  30.140  56.139  1.00  0.00     0.158 A 
HETATM   17  N   UNL     1       6.918  29.916  57.142  1.00  0.00    -0.269 N 
HETATM   18  S   UNL     1       4.997  31.459  56.406  1.00  0.00    -0.064 SA
HETATM   19  C   UNL     1       7.882  28.887  57.143  1.00  0.00     0.255 A 
HETATM   20  C   UNL     1       6.731  30.789  58.194  1.00  0.00     0.109 A 
HETATM   21  O   UNL     1       8.623  28.705  58.090  1.00  0.00    -0.268 OA
HETATM   22  C   UNL     1       7.889  28.085  55.910  1.00  0.00     0.101 A 
HETATM   23  C   UNL     1       5.751  31.677  57.973  1.00  0.00     0.071 A 
ENDBRANCH   1  13
TORSDOF 4
ENDMDL
MODEL 5
REMARK VINA RESULT:      -7.7      2.841      7.723
REMARK  4 active torsions:
REMARK  status: ('A' for Active; 'I' for Inactive)
REMARK    1  A    between atoms: C_6  and  C_7 
REMARK    2  A    between atoms: C_7  and  N_8 
REMARK    3  A    between atoms: N_8  and  C_9 
REMARK    4  A    between atoms: C_9  and  C_10 
ROOT
HETATM    1  C   UNL     1       7.037  25.990  57.448  1.00  0.00     0.327 C 
ENDROOT
BRANCH   1   2
HETATM    2  N   UNL     1       8.084  27.010  57.598  1.00  0.00     0.097 N 
HETATM    3  H   UNL     1       8.325  27.104  58.588  1.00  0.00     0.317 HD
BRANCH   2   4
HETATM    4  C   UNL     1       7.629  28.343  57.145  1.00  0.00     0.252 C 
HETATM    5  C   UNL     1       6.134  28.582  57.385  1.00  0.00     0.048 C 
BRANCH   4   6
HETATM    6  C   UNL     1       8.459  29.365  57.864  1.00  0.00     0.006 A 
HETATM    7  C   UNL     1       9.648  29.930  57.426  1.00  0.00     0.058 A 
HETATM    8  O   UNL     1      10.098  30.852  58.319  1.00  0.00    -0.320 OA
HETATM    9  C   UNL     1      10.480  29.751  56.216  1.00  0.00     0.077 C 
HETATM   10  C   UNL     1       9.195  30.913  59.331  1.00  0.00     0.050 A 
HETATM   11  C   UNL     1       9.466  31.896  60.400  1.00  0.00     0.076 C 
HETATM   12  C   UNL     1       8.175  30.016  59.106  1.00  0.00     0.044 A 
ENDBRANCH   4   6
ENDBRANCH   2   4
ENDBRANCH   1   2
BRANCH   1  13
HETATM   13  C   UNL     1       7.475  24.941  56.444  1.00  0.00     0.044 A 
HETATM   14  N   UNL     1       7.737  23.688  56.968  1.00  0.00    -0.338 N 
HETATM   15  H   UNL     1       7.604  23.530  57.970  1.00  0.00     0.168 HD
HETATM   16  C   UNL     1       8.118  22.708  56.187  1.00  0.00     0.158 A 
HETATM   17  N   UNL     1       8.260  22.875  54.888  1.00  0.00    -0.269 N 
HETATM   18  S   UNL     1       8.473  21.100  56.736  1.00  0.00    -0.064 SA
HETATM   19  C   UNL     1       8.012  24.096  54.227  1.00  0.00     0.255 A 
HETATM   20  C   UNL     1       8.669  21.726  54.241  1.00  0.00     0.109 A 
HETATM   21  O   UNL     1       8.148  24.213  53.025  1.00  0.00    -0.268 OA
HETATM   22  C   UNL     1       7.584  25.176  55.129  1.00  0.00     0.101 A 
HETATM   23  C   UNL     1       8.832  20.685  55.071  1.00  0.00     0.071 A 
ENDBRANCH   1  13
TORSDOF 4
ENDMDL
MODEL 6
REMARK VINA RESULT:      -7.6      5.190      7.002
REMARK  4 active torsions:
REMARK  status: ('A' for Active; 'I' for Inactive)
REMARK    1  A    between atoms: C_6  and  C_7 
REMARK    2  A    between atoms: C_7  and  N_8 
REMARK    3  A    between atoms: N_8  and  C_9 
REMARK    4  A    between atoms: C_9  and  C_10 
ROOT
HETATM    1  C   UNL     1       4.335  27.429  53.642  1.00  0.00     0.327 C 
ENDROOT
BRANCH   1   2
HETATM    2  N   UNL     1       4.794  26.053  53.874  1.00  0.00     0.097 N 
HETATM    3  H   UNL     1       4.091  25.550  54.420  1.00  0.00     0.317 HD
BRANCH   2   4
HETATM    4  C   UNL     1       6.048  26.012  54.657  1.00  0.00     0.252 C 
HETATM    5  C   UNL     1       5.824  26.192  56.163  1.00  0.00     0.048 C 
BRANCH   4   6
HETATM    6  C   UNL     1       6.711  24.697  54.366  1.00  0.00     0.006 A 
HETATM    7  C   UNL     1       7.350  24.329  53.191  1.00  0.00     0.058 A 
HETATM    8  O   UNL     1       7.872  23.077  53.302  1.00  0.00    -0.320 OA
HETATM    9  C   UNL     1       7.588  25.010  51.900  1.00  0.00     0.077 C 
HETATM   10  C   UNL     1       7.599  22.632  54.555  1.00  0.00     0.050 A 
HETATM   11  C   UNL     1       8.121  21.296  54.909  1.00  0.00     0.076 C 
HETATM   12  C   UNL     1       6.882  23.583  55.246  1.00  0.00     0.044 A 
ENDBRANCH   4   6
ENDBRANCH   2   4
ENDBRANCH   1   2
BRANCH   1  13
HETATM   13  C   UNL     1       4.696  27.867  52.236  1.00  0.00     0.044 A 
HETATM   14  N   UNL     1       4.302  27.011  51.224  1.00  0.00    -0.338 N 
HETATM   15  H   UNL     1       3.781  26.164  51.465  1.00  0.00     0.168 HD
HETATM   16  C   UNL     1       4.560  27.297  49.973  1.00  0.00     0.158 A 
HETATM   17  N   UNL     1       5.196  28.400  49.633  1.00  0.00    -0.269 N 
HETATM   18  S   UNL     1       4.114  26.296  48.627  1.00  0.00    -0.064 SA
HETATM   19  C   UNL     1       5.639  29.362  50.564  1.00  0.00     0.255 A 
HETATM   20  C   UNL     1       5.373  28.518  48.270  1.00  0.00     0.109 A 
HETATM   21  O   UNL     1       6.217  30.373  50.215  1.00  0.00    -0.268 OA
HETATM   22  C   UNL     1       5.332  29.015  51.960  1.00  0.00     0.101 A 
HETATM   23  C   UNL     1       4.860  27.488  47.581  1.00  0.00     0.071 A 
ENDBRANCH   1  13
TORSDOF 4
ENDMDL
MODEL 7
REMARK VINA RESULT:      -7.6      2.893      4.302
REMARK  4 active torsions:
REMARK  status: ('A' for Active; 'I' for Inactive)
REMARK    1  A    between atoms: C_6  and  C_7 
REMARK    2  A    between atoms: C_7  and  N_8 
REMARK    3  A    between atoms: N_8  and  C_9 
REMARK    4  A    between atoms: C_9  and  C_10 
ROOT
HETATM    1  C   UNL     1       5.718  25.787  53.020  1.00  0.00     0.327 C 
ENDROOT
BRANCH   1   2
HETATM    2  N   UNL     1       5.857  24.480  53.676  1.00  0.00     0.097 N 
HETATM    3  H   UNL     1       6.123  24.620  54.654  1.00  0.00     0.317 HD
BRANCH   2   4
HETATM    4  C   UNL     1       6.920  23.659  53.059  1.00  0.00     0.252 C 
HETATM    5  C   UNL     1       8.080  24.494  52.504  1.00  0.00     0.048 C 
BRANCH   4   6
HETATM    6  C   UNL     1       7.404  22.698  54.105  1.00  0.00     0.006 A 
HETATM    7  C   UNL     1       7.928  21.431  53.894  1.00  0.00     0.058 A 
HETATM    8  O   UNL     1       8.302  20.864  55.073  1.00  0.00    -0.320 OA
HETATM    9  C   UNL     1       8.174  20.615  52.685  1.00  0.00     0.077 C 
HETATM   10  C   UNL     1       8.047  21.765  56.057  1.00  0.00     0.050 A 
HETATM   11  C   UNL     1       8.424  21.369  57.429  1.00  0.00     0.076 C 
HETATM   12  C   UNL     1       7.488  22.903  55.519  1.00  0.00     0.044 A 
ENDBRANCH   4   6
ENDBRANCH   2   4
ENDBRANCH   1   2
BRANCH   1  13
HETATM   13  C   UNL     1       5.787  26.896  54.051  1.00  0.00     0.044 A 
HETATM   14  N   UNL     1       6.739  26.733  55.041  1.00  0.00    -0.338 N 
HETATM   15  H   UNL     1       7.346  25.909  55.015  1.00  0.00     0.168 HD
HETATM   16  C   UNL     1       6.885  27.635  55.978  1.00  0.00     0.158 A 
HETATM   17  N   UNL     1       6.141  28.723  56.012  1.00  0.00    -0.269 N 
HETATM   18  S   UNL     1       8.045  27.531  57.266  1.00  0.00    -0.064 SA
HETATM   19  C   UNL     1       5.147  29.016  55.058  1.00  0.00     0.255 A 
HETATM   20  C   UNL     1       6.447  29.547  57.076  1.00  0.00     0.109 A 
HETATM   21  O   UNL     1       4.483  30.034  55.116  1.00  0.00    -0.268 OA
HETATM   22  C   UNL     1       5.008  27.987  54.016  1.00  0.00     0.101 A 
HETATM   23  C   UNL     1       7.434  29.068  57.847  1.00  0.00     0.071 A 
ENDBRANCH   1  13
TORSDOF 4
ENDMDL
MODEL 8
REMARK VINA RESULT:      -7.5      4.967      6.585
REMARK  4 active torsions:
REMARK  status: ('A' for Active; 'I' for Inactive)
REMARK    1  A    between atoms: C_6  and  C_7 
REMARK    2  A    between atoms: C_7  and  N_8 
REMARK    3  A    between atoms: N_8  and  C_9 
REMARK    4  A    between atoms: C_9  and  C_10 
ROOT
HETATM    1  C   UNL     1       7.066  27.335  53.630  1.00  0.00     0.327 C 
ENDROOT
BRANCH   1   2
HETATM    2  N   UNL     1       7.589  25.963  53.579  1.00  0.00     0.097 N 
HETATM    3  H   UNL     1       7.134  25.456  52.816  1.00  0.00     0.317 HD
BRANCH   2   4
HETATM    4  C   UNL     1       7.299  25.212  54.820  1.00  0.00     0.252 C 
HETATM    5  C   UNL     1       5.830  25.300  55.247  1.00  0.00     0.048 C 
BRANCH   4   6
HETATM    6  C   UNL     1       7.705  23.787  54.581  1.00  0.00     0.006 A 
HETATM    7  C   UNL     1       8.141  22.875  55.531  1.00  0.00     0.058 A 
HETATM    8  O   UNL     1       8.380  21.664  54.960  1.00  0.00    -0.320 OA
HETATM    9  C   UNL     1       8.368  22.950  56.991  1.00  0.00     0.077 C 
HETATM   10  C   UNL     1       8.077  21.770  53.640  1.00  0.00     0.050 A 
HETATM   11  C   UNL     1       8.221  20.544  52.829  1.00  0.00     0.076 C 
HETATM   12  C   UNL     1       7.667  23.053  53.354  1.00  0.00     0.044 A 
ENDBRANCH   4   6
ENDBRANCH   2   4
ENDBRANCH   1   2
BRANCH   1  13
HETATM   13  C   UNL     1       6.206  27.609  52.411  1.00  0.00     0.044 A 
HETATM   14  N   UNL     1       5.918  28.940  52.172  1.00  0.00    -0.338 N 
HETATM   15  H   UNL     1       6.306  29.652  52.796  1.00  0.00     0.168 HD
HETATM   16  C   UNL     1       5.188  29.287  51.142  1.00  0.00     0.158 A 
HETATM   17  N   UNL     1       4.708  28.392  50.302  1.00  0.00    -0.269 N 
HETATM   18  S   UNL     1       4.765  30.924  50.749  1.00  0.00    -0.064 SA
HETATM   19  C   UNL     1       4.939  27.007  50.424  1.00  0.00     0.255 A 
HETATM   20  C   UNL     1       3.963  28.956  49.286  1.00  0.00     0.109 A 
HETATM   21  O   UNL     1       4.485  26.209  49.626  1.00  0.00    -0.268 OA
HETATM   22  C   UNL     1       5.765  26.648  51.588  1.00  0.00     0.101 A 
HETATM   23  C   UNL     1       3.888  30.293  49.368  1.00  0.00     0.071 A 
ENDBRANCH   1  13
TORSDOF 4
ENDMDL
MODEL 9
REMARK VINA RESULT:      -7.5      2.957      7.829
REMARK  4 active torsions:
REMARK  status: ('A' for Active; 'I' for Inactive)
REMARK    1  A    between atoms: C_6  and  C_7 
REMARK    2  A    between atoms: C_7  and  N_8 
REMARK    3  A    between atoms: N_8  and  C_9 
REMARK    4  A    between atoms: C_9  and  C_10 
ROOT
HETATM    1  C   UNL     1       7.760  26.098  57.684  1.00  0.00     0.327 C 
ENDROOT
BRANCH   1   2
HETATM    2  N   UNL     1       8.577  27.218  57.197  1.00  0.00     0.097 N 
HETATM    3  H   UNL     1       9.301  27.432  57.886  1.00  0.00     0.317 HD
BRANCH   2   4
HETATM    4  C   UNL     1       7.780  28.451  57.019  1.00  0.00     0.252 C 
HETATM    5  C   UNL     1       6.310  28.280  57.419  1.00  0.00     0.048 C 
BRANCH   4   6
HETATM    6  C   UNL     1       8.437  29.526  57.834  1.00  0.00     0.006 A 
HETATM    7  C   UNL     1       9.699  30.067  57.637  1.00  0.00     0.058 A 
HETATM    8  O   UNL     1       9.946  31.052  58.541  1.00  0.00    -0.320 OA
HETATM    9  C   UNL     1      10.780  29.809  56.660  1.00  0.00     0.077 C 
HETATM   10  C   UNL     1       8.838  31.178  59.317  1.00  0.00     0.050 A 
HETATM   11  C   UNL     1       8.872  32.236  60.348  1.00  0.00     0.076 C 
HETATM   12  C   UNL     1       7.887  30.260  58.931  1.00  0.00     0.044 A 
ENDBRANCH   4   6
ENDBRANCH   2   4
ENDBRANCH   1   2
BRANCH   1  13
HETATM   13  C   UNL     1       7.955  24.886  56.793  1.00  0.00     0.044 A 
HETATM   14  N   UNL     1       7.801  25.111  55.437  1.00  0.00    -0.338 N 
HETATM   15  H   UNL     1       7.592  26.058  55.112  1.00  0.00     0.168 HD
HETATM   16  C   UNL     1       7.953  24.133  54.580  1.00  0.00     0.158 A 
HETATM   17  N   UNL     1       8.259  22.913  54.972  1.00  0.00    -0.269 N 
HETATM   18  S   UNL     1       7.781  24.302  52.861  1.00  0.00    -0.064 SA
HETATM   19  C   UNL     1       8.457  22.554  56.320  1.00  0.00     0.255 A 
HETATM   20  C   UNL     1       8.373  22.026  53.920  1.00  0.00     0.109 A 
HETATM   21  O   UNL     1       8.745  21.418  56.646  1.00  0.00    -0.268 OA
HETATM   22  C   UNL     1       8.283  23.673  57.259  1.00  0.00     0.101 A 
HETATM   23  C   UNL     1       8.151  22.594  52.726  1.00  0.00     0.071 A 
ENDBRANCH   1  13
TORSDOF 4
ENDMDL
MODEL 10
REMARK VINA RESULT:      -7.4      4.997      6.433
REMARK  4 active torsions:
REMARK  status: ('A' for Active; 'I' for Inactive)
REMARK    1  A    between atoms: C_6  and  C_7 
REMARK    2  A    between atoms: C_7  and  N_8 
REMARK    3  A    between atoms: N_8  and  C_9 
REMARK    4  A    between atoms: C_9  and  C_10 
ROOT
HETATM    1  C   UNL     1       5.290  27.011  54.362  1.00  0.00     0.327 C 
ENDROOT
BRANCH   1   2
HETATM    2  N   UNL     1       5.381  25.566  54.609  1.00  0.00     0.097 N 
HETATM    3  H   UNL     1       4.666  25.293  55.287  1.00  0.00     0.317 HD
BRANCH   2   4
HETATM    4  C   UNL     1       6.686  25.183  55.191  1.00  0.00     0.252 C 
HETATM    5  C   UNL     1       6.603  24.848  56.684  1.00  0.00     0.048 C 
BRANCH   4   6
HETATM    6  C   UNL     1       7.197  24.012  54.404  1.00  0.00     0.006 A 
HETATM    7  C   UNL     1       7.781  24.044  53.147  1.00  0.00     0.058 A 
HETATM    8  O   UNL     1       8.163  22.796  52.763  1.00  0.00    -0.320 OA
HETATM    9  C   UNL     1       8.080  25.128  52.186  1.00  0.00     0.077 C 
HETATM   10  C   UNL     1       7.854  21.946  53.777  1.00  0.00     0.050 A 
HETATM   11  C   UNL     1       8.229  20.530  53.589  1.00  0.00     0.076 C 
HETATM   12  C   UNL     1       7.252  22.639  54.804  1.00  0.00     0.044 A 
ENDBRANCH   4   6
ENDBRANCH   2   4
ENDBRANCH   1   2
BRANCH   1  13
HETATM   13  C   UNL     1       5.153  27.277  52.876  1.00  0.00     0.044 A 
HETATM   14  N   UNL     1       5.312  28.595  52.488  1.00  0.00    -0.338 N 
HETATM   15  H   UNL     1       5.531  29.299  53.199  1.00  0.00     0.168 HD
HETATM   16  C   UNL     1       5.218  28.933  51.227  1.00  0.00     0.158 A 
HETATM   17  N   UNL     1       4.975  28.040  50.289  1.00  0.00    -0.269 N 
HETATM   18  S   UNL     1       5.399  30.554  50.631  1.00  0.00    -0.064 SA
HETATM   19  C   UNL     1       4.806  26.665  50.547  1.00  0.00     0.255 A 
HETATM   20  C   UNL     1       4.912  28.594  49.026  1.00  0.00     0.109 A 
HETATM   21  O   UNL     1       4.589  25.867  49.655  1.00  0.00    -0.268 OA
HETATM   22  C   UNL     1       4.920  26.315  51.972  1.00  0.00     0.101 A 
HETATM   23  C   UNL     1       5.113  29.920  49.022  1.00  0.00     0.071 A 
ENDBRANCH   1  13
TORSDOF 4
ENDMDL
