MODEL 1
REMARK VINA RESULT:     -10.3      0.000      0.000
REMARK  5 active torsions:
REMARK  status: ('A' for Active; 'I' for Inactive)
REMARK    1  A    between atoms: C_7  and  C_8 
REMARK    2  A    between atoms: C_10  and  N_11 
REMARK       I    between atoms: N_11  and  C_12 
REMARK    3  A    between atoms: C_12  and  C_13 
REMARK    4  A    between atoms: C_15  and  O_16 
REMARK    5  A    between atoms: C_19  and  O_20 
ROOT
HETATM    1  C   UNL     1       9.082  30.790  58.929  1.00  0.00     0.019 A 
HETATM    2  C   UNL     1       8.388  29.791  58.221  1.00  0.00     0.045 A 
HETATM    3  C   UNL     1       8.947  29.180  57.094  1.00  0.00     0.035 A 
HETATM    4  C   UNL     1      10.214  29.589  56.663  1.00  0.00     0.029 A 
HETATM    5  C   UNL     1      10.906  30.597  57.339  1.00  0.00     0.003 A 
HETATM    6  C   UNL     1      10.344  31.189  58.469  1.00  0.00     0.016 A 
ENDROOT
BRANCH   3   7
HETATM    7  N   UNL     1       8.324  28.136  56.369  1.00  0.00    -0.323 N 
HETATM    8  C   UNL     1       7.963  26.888  56.848  1.00  0.00     0.256 C 
HETATM    9  O   UNL     1       8.076  26.510  58.011  1.00  0.00    -0.267 OA
HETATM   10  H   UNL     1       8.165  28.338  55.394  1.00  0.00     0.169 HD
BRANCH   8  11
HETATM   11  C   UNL     1       7.401  25.916  55.855  1.00  0.00     0.037 A 
HETATM   12  C   UNL     1       6.415  26.400  54.977  1.00  0.00     0.054 A 
HETATM   13  C   UNL     1       5.843  25.564  54.022  1.00  0.00     0.071 A 
HETATM   14  C   UNL     1       6.245  24.230  53.961  1.00  0.00     0.073 A 
HETATM   15  C   UNL     1       7.230  23.731  54.818  1.00  0.00     0.071 A 
HETATM   16  C   UNL     1       7.820  24.580  55.758  1.00  0.00     0.054 A 
BRANCH  13  17
HETATM   17  O   UNL     1       4.888  25.922  53.111  1.00  0.00    -0.356 OA
HETATM   18  C   UNL     1       5.233  25.791  51.737  1.00  0.00     0.210 C 
ENDBRANCH  13  17
BRANCH  15  19
HETATM   19  O   UNL     1       7.530  22.411  54.627  1.00  0.00    -0.356 OA
HETATM   20  C   UNL     1       7.898  22.005  53.315  1.00  0.00     0.210 C 
ENDBRANCH  15  19
ENDBRANCH   8  11
ENDBRANCH   3   7
BRANCH   1  21
HETATM   21  C   UNL     1       8.534  31.385  60.148  1.00  0.00     0.181 A 
HETATM   22  O   UNL     1       7.171  31.533  60.200  1.00  0.00    -0.289 OA
HETATM   23  C   UNL     1       6.940  32.047  61.440  1.00  0.00     0.106 A 
HETATM   24  C   UNL     1       8.161  32.190  62.073  1.00  0.00     0.094 A 
HETATM   25  C   UNL     1       5.713  32.371  61.999  1.00  0.00     0.040 A 
HETATM   26  C   UNL     1       8.190  32.689  63.383  1.00  0.00     0.041 A 
HETATM   27  N   UNL     1       9.171  31.781  61.238  1.00  0.00    -0.221 NA
HETATM   28  C   UNL     1       6.968  33.010  64.009  1.00  0.00    -0.060 A 
HETATM   29  C   UNL     1       6.964  33.560  65.406  1.00  0.00     0.048 C 
HETATM   30  C   UNL     1       5.755  32.865  63.309  1.00  0.00     0.009 A 
ENDBRANCH   1  21
TORSDOF 5
ENDMDL
MODEL 2
REMARK VINA RESULT:     -10.3      0.152      2.014
REMARK  5 active torsions:
REMARK  status: ('A' for Active; 'I' for Inactive)
REMARK    1  A    between atoms: C_7  and  C_8 
REMARK    2  A    between atoms: C_10  and  N_11 
REMARK       I    between atoms: N_11  and  C_12 
REMARK    3  A    between atoms: C_12  and  C_13 
REMARK    4  A    between atoms: C_15  and  O_16 
REMARK    5  A    between atoms: C_19  and  O_20 
ROOT
HETATM    1  C   UNL     1       9.041  30.747  58.922  1.00  0.00     0.019 A 
HETATM    2  C   UNL     1       8.302  29.800  58.189  1.00  0.00     0.045 A 
HETATM    3  C   UNL     1       8.845  29.169  57.065  1.00  0.00     0.035 A 
HETATM    4  C   UNL     1      10.142  29.507  56.662  1.00  0.00     0.029 A 
HETATM    5  C   UNL     1      10.880  30.463  57.364  1.00  0.00     0.003 A 
HETATM    6  C   UNL     1      10.332  31.075  58.490  1.00  0.00     0.016 A 
ENDROOT
BRANCH   3   7
HETATM    7  N   UNL     1       8.174  28.173  56.317  1.00  0.00    -0.323 N 
HETATM    8  C   UNL     1       7.967  26.853  56.681  1.00  0.00     0.256 C 
HETATM    9  O   UNL     1       8.286  26.351  57.755  1.00  0.00    -0.267 OA
HETATM   10  H   UNL     1       7.851  28.474  55.410  1.00  0.00     0.169 HD
BRANCH   8  11
HETATM   11  C   UNL     1       7.310  25.964  55.669  1.00  0.00     0.037 A 
HETATM   12  C   UNL     1       7.715  24.617  55.645  1.00  0.00     0.054 A 
HETATM   13  C   UNL     1       7.153  23.723  54.738  1.00  0.00     0.071 A 
HETATM   14  C   UNL     1       6.196  24.185  53.836  1.00  0.00     0.073 A 
HETATM   15  C   UNL     1       5.773  25.517  53.848  1.00  0.00     0.071 A 
HETATM   16  C   UNL     1       6.321  26.406  54.777  1.00  0.00     0.054 A 
BRANCH  13  17
HETATM   17  O   UNL     1       7.457  22.394  54.628  1.00  0.00    -0.356 OA
HETATM   18  C   UNL     1       8.164  21.994  53.460  1.00  0.00     0.210 C 
ENDBRANCH  13  17
BRANCH  15  19
HETATM   19  O   UNL     1       4.818  25.816  52.916  1.00  0.00    -0.356 OA
HETATM   20  C   UNL     1       5.191  25.737  51.546  1.00  0.00     0.210 C 
ENDBRANCH  15  19
ENDBRANCH   8  11
ENDBRANCH   3   7
BRANCH   1  21
HETATM   21  C   UNL     1       8.507  31.360  60.138  1.00  0.00     0.181 A 
HETATM   22  O   UNL     1       7.151  31.573  60.175  1.00  0.00    -0.289 OA
HETATM   23  C   UNL     1       6.929  32.089  61.415  1.00  0.00     0.106 A 
HETATM   24  C   UNL     1       8.148  32.169  62.064  1.00  0.00     0.094 A 
HETATM   25  C   UNL     1       5.712  32.468  61.961  1.00  0.00     0.040 A 
HETATM   26  C   UNL     1       8.184  32.657  63.379  1.00  0.00     0.041 A 
HETATM   27  N   UNL     1       9.148  31.717  61.240  1.00  0.00    -0.221 NA
HETATM   28  C   UNL     1       6.971  33.033  63.991  1.00  0.00    -0.060 A 
HETATM   29  C   UNL     1       6.975  33.573  65.393  1.00  0.00     0.048 C 
HETATM   30  C   UNL     1       5.762  32.951  63.276  1.00  0.00     0.009 A 
ENDBRANCH   1  21
TORSDOF 5
ENDMDL
MODEL 3
REMARK VINA RESULT:     -10.2      1.926     10.021
REMARK  5 active torsions:
REMARK  status: ('A' for Active; 'I' for Inactive)
REMARK    1  A    between atoms: C_7  and  C_8 
REMARK    2  A    between atoms: C_10  and  N_11 
REMARK       I    between atoms: N_11  and  C_12 
REMARK    3  A    between atoms: C_12  and  C_13 
REMARK    4  A    between atoms: C_15  and  O_16 
REMARK    5  A    between atoms: C_19  and  O_20 
ROOT
HETATM    1  C   UNL     1       8.915  29.498  57.735  1.00  0.00     0.019 A 
HETATM    2  C   UNL     1       8.217  30.026  58.837  1.00  0.00     0.045 A 
HETATM    3  C   UNL     1       8.689  31.150  59.522  1.00  0.00     0.035 A 
HETATM    4  C   UNL     1       9.887  31.742  59.106  1.00  0.00     0.029 A 
HETATM    5  C   UNL     1      10.605  31.215  58.029  1.00  0.00     0.003 A 
HETATM    6  C   UNL     1      10.117  30.102  57.346  1.00  0.00     0.016 A 
ENDROOT
BRANCH   3   7
HETATM    7  N   UNL     1       8.010  31.760  60.604  1.00  0.00    -0.323 N 
HETATM    8  C   UNL     1       8.161  31.475  61.951  1.00  0.00     0.256 C 
HETATM    9  O   UNL     1       8.965  30.679  62.426  1.00  0.00    -0.267 OA
HETATM   10  H   UNL     1       7.324  32.449  60.336  1.00  0.00     0.169 HD
BRANCH   8  11
HETATM   11  C   UNL     1       7.252  32.193  62.903  1.00  0.00     0.037 A 
HETATM   12  C   UNL     1       5.892  32.265  62.555  1.00  0.00     0.054 A 
HETATM   13  C   UNL     1       4.980  32.911  63.385  1.00  0.00     0.071 A 
HETATM   14  C   UNL     1       5.437  33.508  64.559  1.00  0.00     0.073 A 
HETATM   15  C   UNL     1       6.783  33.441  64.928  1.00  0.00     0.071 A 
HETATM   16  C   UNL     1       7.691  32.769  64.105  1.00  0.00     0.054 A 
BRANCH  13  17
HETATM   17  O   UNL     1       3.637  33.036  63.158  1.00  0.00    -0.356 OA
HETATM   18  C   UNL     1       3.004  34.198  63.682  1.00  0.00     0.210 C 
ENDBRANCH  13  17
BRANCH  15  19
HETATM   19  O   UNL     1       7.076  34.058  66.113  1.00  0.00    -0.356 OA
HETATM   20  C   UNL     1       6.016  34.221  67.047  1.00  0.00     0.210 C 
ENDBRANCH  15  19
ENDBRANCH   8  11
ENDBRANCH   3   7
BRANCH   1  21
HETATM   21  C   UNL     1       8.393  28.366  56.970  1.00  0.00     0.181 A 
HETATM   22  O   UNL     1       8.323  27.162  57.625  1.00  0.00    -0.289 OA
HETATM   23  C   UNL     1       7.762  26.320  56.714  1.00  0.00     0.106 A 
HETATM   24  C   UNL     1       7.524  27.043  55.559  1.00  0.00     0.094 A 
HETATM   25  C   UNL     1       7.462  24.976  56.885  1.00  0.00     0.040 A 
HETATM   26  C   UNL     1       6.926  26.398  54.467  1.00  0.00     0.041 A 
HETATM   27  N   UNL     1       7.942  28.340  55.726  1.00  0.00    -0.221 NA
HETATM   28  C   UNL     1       6.577  25.038  54.597  1.00  0.00    -0.060 A 
HETATM   29  C   UNL     1       5.949  24.313  53.441  1.00  0.00     0.048 C 
HETATM   30  C   UNL     1       6.863  24.344  55.787  1.00  0.00     0.009 A 
ENDBRANCH   1  21
TORSDOF 5
ENDMDL
MODEL 4
REMARK VINA RESULT:     -10.2      1.900     10.151
REMARK  5 active torsions:
REMARK  status: ('A' for Active; 'I' for Inactive)
REMARK    1  A    between atoms: C_7  and  C_8 
REMARK    2  A    between atoms: C_10  and  N_11 
REMARK       I    between atoms: N_11  and  C_12 
REMARK    3  A    between atoms: C_12  and  C_13 
REMARK    4  A    between atoms: C_15  and  O_16 
REMARK    5  A    between atoms: C_19  and  O_20 
ROOT
HETATM    1  C   UNL     1       8.891  29.340  57.621  1.00  0.00     0.019 A 
HETATM    2  C   UNL     1       8.151  29.873  58.693  1.00  0.00     0.045 A 
HETATM    3  C   UNL     1       8.574  31.026  59.363  1.00  0.00     0.035 A 
HETATM    4  C   UNL     1       9.765  31.642  58.962  1.00  0.00     0.029 A 
HETATM    5  C   UNL     1      10.524  31.111  57.916  1.00  0.00     0.003 A 
HETATM    6  C   UNL     1      10.085  29.970  57.248  1.00  0.00     0.016 A 
ENDROOT
BRANCH   3   7
HETATM    7  N   UNL     1       7.850  31.640  60.414  1.00  0.00    -0.323 N 
HETATM    8  C   UNL     1       8.030  31.450  61.773  1.00  0.00     0.256 C 
HETATM    9  O   UNL     1       8.901  30.754  62.287  1.00  0.00    -0.267 OA
HETATM   10  H   UNL     1       7.108  32.252  60.111  1.00  0.00     0.169 HD
BRANCH   8  11
HETATM   11  C   UNL     1       7.070  32.145  62.690  1.00  0.00     0.037 A 
HETATM   12  C   UNL     1       7.593  32.665  63.887  1.00  0.00     0.054 A 
HETATM   13  C   UNL     1       6.769  33.328  64.793  1.00  0.00     0.071 A 
HETATM   14  C   UNL     1       5.410  33.452  64.507  1.00  0.00     0.073 A 
HETATM   15  C   UNL     1       4.871  32.951  63.320  1.00  0.00     0.071 A 
HETATM   16  C   UNL     1       5.706  32.308  62.401  1.00  0.00     0.054 A 
BRANCH  13  17
HETATM   17  O   UNL     1       7.164  33.883  65.979  1.00  0.00    -0.356 OA
HETATM   18  C   UNL     1       6.136  34.207  66.908  1.00  0.00     0.210 C 
ENDBRANCH  13  17
BRANCH  15  19
HETATM   19  O   UNL     1       3.528  33.164  63.174  1.00  0.00    -0.356 OA
HETATM   20  C   UNL     1       2.968  34.293  63.832  1.00  0.00     0.210 C 
ENDBRANCH  15  19
ENDBRANCH   8  11
ENDBRANCH   3   7
BRANCH   1  21
HETATM   21  C   UNL     1       8.421  28.176  56.870  1.00  0.00     0.181 A 
HETATM   22  O   UNL     1       8.374  26.985  57.550  1.00  0.00    -0.289 OA
HETATM   23  C   UNL     1       7.859  26.107  56.647  1.00  0.00     0.106 A 
HETATM   24  C   UNL     1       7.623  26.798  55.472  1.00  0.00     0.094 A 
HETATM   25  C   UNL     1       7.597  24.758  56.840  1.00  0.00     0.040 A 
HETATM   26  C   UNL     1       7.069  26.111  54.382  1.00  0.00     0.041 A 
HETATM   27  N   UNL     1       7.997  28.110  55.619  1.00  0.00    -0.221 NA
HETATM   28  C   UNL     1       6.760  24.744  54.534  1.00  0.00    -0.060 A 
HETATM   29  C   UNL     1       6.179  23.975  53.382  1.00  0.00     0.048 C 
HETATM   30  C   UNL     1       7.041  24.085  55.745  1.00  0.00     0.009 A 
ENDBRANCH   1  21
TORSDOF 5
ENDMDL
MODEL 5
REMARK VINA RESULT:     -10.1      1.934     10.114
REMARK  5 active torsions:
REMARK  status: ('A' for Active; 'I' for Inactive)
REMARK    1  A    between atoms: C_7  and  C_8 
REMARK    2  A    between atoms: C_10  and  N_11 
REMARK       I    between atoms: N_11  and  C_12 
REMARK    3  A    between atoms: C_12  and  C_13 
REMARK    4  A    between atoms: C_15  and  O_16 
REMARK    5  A    between atoms: C_19  and  O_20 
ROOT
HETATM    1  C   UNL     1       8.761  28.648  57.598  1.00  0.00     0.019 A 
HETATM    2  C   UNL     1       8.056  29.256  58.653  1.00  0.00     0.045 A 
HETATM    3  C   UNL     1       8.387  30.538  59.102  1.00  0.00     0.035 A 
HETATM    4  C   UNL     1       9.451  31.213  58.495  1.00  0.00     0.029 A 
HETATM    5  C   UNL     1      10.177  30.615  57.462  1.00  0.00     0.003 A 
HETATM    6  C   UNL     1       9.830  29.341  57.015  1.00  0.00     0.016 A 
ENDROOT
BRANCH   3   7
HETATM    7  N   UNL     1       7.685  31.223  60.123  1.00  0.00    -0.323 N 
HETATM    8  C   UNL     1       8.011  31.278  61.468  1.00  0.00     0.256 C 
HETATM    9  O   UNL     1       9.011  30.781  61.980  1.00  0.00    -0.267 OA
HETATM   10  H   UNL     1       6.843  31.687  59.817  1.00  0.00     0.169 HD
BRANCH   8  11
HETATM   11  C   UNL     1       7.053  31.993  62.371  1.00  0.00     0.037 A 
HETATM   12  C   UNL     1       7.581  32.546  63.551  1.00  0.00     0.054 A 
HETATM   13  C   UNL     1       6.759  33.230  64.444  1.00  0.00     0.071 A 
HETATM   14  C   UNL     1       5.398  33.340  64.163  1.00  0.00     0.073 A 
HETATM   15  C   UNL     1       4.855  32.805  62.993  1.00  0.00     0.071 A 
HETATM   16  C   UNL     1       5.687  32.142  62.087  1.00  0.00     0.054 A 
BRANCH  13  17
HETATM   17  O   UNL     1       7.159  33.818  65.612  1.00  0.00    -0.356 OA
HETATM   18  C   UNL     1       6.136  34.143  66.548  1.00  0.00     0.210 C 
ENDBRANCH  13  17
BRANCH  15  19
HETATM   19  O   UNL     1       3.510  33.008  62.849  1.00  0.00    -0.356 OA
HETATM   20  C   UNL     1       2.927  34.080  63.579  1.00  0.00     0.210 C 
ENDBRANCH  15  19
ENDBRANCH   8  11
ENDBRANCH   3   7
BRANCH   1  21
HETATM   21  C   UNL     1       8.378  27.336  57.076  1.00  0.00     0.181 A 
HETATM   22  O   UNL     1       7.696  27.326  55.885  1.00  0.00    -0.289 OA
HETATM   23  C   UNL     1       7.521  26.002  55.614  1.00  0.00     0.106 A 
HETATM   24  C   UNL     1       8.096  25.280  56.645  1.00  0.00     0.094 A 
HETATM   25  C   UNL     1       6.893  25.447  54.510  1.00  0.00     0.040 A 
HETATM   26  C   UNL     1       8.064  23.879  56.590  1.00  0.00     0.041 A 
HETATM   27  N   UNL     1       8.626  26.137  57.577  1.00  0.00    -0.221 NA
HETATM   28  C   UNL     1       7.459  23.263  55.475  1.00  0.00    -0.060 A 
HETATM   29  C   UNL     1       7.396  21.765  55.392  1.00  0.00     0.048 C 
HETATM   30  C   UNL     1       6.871  24.047  54.465  1.00  0.00     0.009 A 
ENDBRANCH   1  21
TORSDOF 5
ENDMDL
MODEL 6
REMARK VINA RESULT:     -10.1      1.072      2.485
REMARK  5 active torsions:
REMARK  status: ('A' for Active; 'I' for Inactive)
REMARK    1  A    between atoms: C_7  and  C_8 
REMARK    2  A    between atoms: C_10  and  N_11 
REMARK       I    between atoms: N_11  and  C_12 
REMARK    3  A    between atoms: C_12  and  C_13 
REMARK    4  A    between atoms: C_15  and  O_16 
REMARK    5  A    between atoms: C_19  and  O_20 
ROOT
HETATM    1  C   UNL     1       8.667  30.639  58.928  1.00  0.00     0.019 A 
HETATM    2  C   UNL     1       8.137  29.522  58.256  1.00  0.00     0.045 A 
HETATM    3  C   UNL     1       8.839  28.899  57.219  1.00  0.00     0.035 A 
HETATM    4  C   UNL     1      10.084  29.415  56.841  1.00  0.00     0.029 A 
HETATM    5  C   UNL     1      10.614  30.538  57.481  1.00  0.00     0.003 A 
HETATM    6  C   UNL     1       9.910  31.142  58.521  1.00  0.00     0.016 A 
ENDROOT
BRANCH   3   7
HETATM    7  N   UNL     1       8.384  27.744  56.539  1.00  0.00    -0.323 N 
HETATM    8  C   UNL     1       8.020  26.532  57.103  1.00  0.00     0.256 C 
HETATM    9  O   UNL     1       7.976  26.290  58.305  1.00  0.00    -0.267 OA
HETATM   10  H   UNL     1       8.364  27.828  55.534  1.00  0.00     0.169 HD
BRANCH   8  11
HETATM   11  C   UNL     1       7.663  25.424  56.159  1.00  0.00     0.037 A 
HETATM   12  C   UNL     1       7.938  24.112  56.584  1.00  0.00     0.054 A 
HETATM   13  C   UNL     1       7.634  23.024  55.769  1.00  0.00     0.071 A 
HETATM   14  C   UNL     1       7.072  23.254  54.514  1.00  0.00     0.073 A 
HETATM   15  C   UNL     1       6.783  24.549  54.077  1.00  0.00     0.071 A 
HETATM   16  C   UNL     1       7.065  25.636  54.907  1.00  0.00     0.054 A 
BRANCH  13  17
HETATM   17  O   UNL     1       7.845  21.708  56.077  1.00  0.00    -0.356 OA
HETATM   18  C   UNL     1       8.110  20.831  54.988  1.00  0.00     0.210 C 
ENDBRANCH  13  17
BRANCH  15  19
HETATM   19  O   UNL     1       6.219  24.613  52.832  1.00  0.00    -0.356 OA
HETATM   20  C   UNL     1       4.831  24.911  52.756  1.00  0.00     0.210 C 
ENDBRANCH  15  19
ENDBRANCH   8  11
ENDBRANCH   3   7
BRANCH   1  21
HETATM   21  C   UNL     1       7.972  31.254  60.058  1.00  0.00     0.181 A 
HETATM   22  O   UNL     1       8.695  31.401  61.216  1.00  0.00    -0.289 OA
HETATM   23  C   UNL     1       7.839  32.037  62.063  1.00  0.00     0.106 A 
HETATM   24  C   UNL     1       6.648  32.239  61.388  1.00  0.00     0.094 A 
HETATM   25  C   UNL     1       8.088  32.432  63.369  1.00  0.00     0.040 A 
HETATM   26  C   UNL     1       5.600  32.899  62.046  1.00  0.00     0.041 A 
HETATM   27  N   UNL     1       6.737  31.724  60.119  1.00  0.00    -0.221 NA
HETATM   28  C   UNL     1       5.810  33.345  63.368  1.00  0.00    -0.060 A 
HETATM   29  C   UNL     1       4.704  34.042  64.107  1.00  0.00     0.048 C 
HETATM   30  C   UNL     1       7.034  33.093  64.014  1.00  0.00     0.009 A 
ENDBRANCH   1  21
TORSDOF 5
ENDMDL
MODEL 7
REMARK VINA RESULT:      -9.5      2.197      9.866
REMARK  5 active torsions:
REMARK  status: ('A' for Active; 'I' for Inactive)
REMARK    1  A    between atoms: C_7  and  C_8 
REMARK    2  A    between atoms: C_10  and  N_11 
REMARK       I    between atoms: N_11  and  C_12 
REMARK    3  A    between atoms: C_12  and  C_13 
REMARK    4  A    between atoms: C_15  and  O_16 
REMARK    5  A    between atoms: C_19  and  O_20 
ROOT
HETATM    1  C   UNL     1       8.651  28.490  57.521  1.00  0.00     0.019 A 
HETATM    2  C   UNL     1       7.825  29.120  58.470  1.00  0.00     0.045 A 
HETATM    3  C   UNL     1       8.113  30.404  58.943  1.00  0.00     0.035 A 
HETATM    4  C   UNL     1       9.257  31.057  58.470  1.00  0.00     0.029 A 
HETATM    5  C   UNL     1      10.101  30.436  57.547  1.00  0.00     0.003 A 
HETATM    6  C   UNL     1       9.796  29.162  57.073  1.00  0.00     0.016 A 
ENDROOT
BRANCH   3   7
HETATM    7  N   UNL     1       7.296  31.111  59.857  1.00  0.00    -0.323 N 
HETATM    8  C   UNL     1       6.447  32.168  59.572  1.00  0.00     0.256 C 
HETATM    9  O   UNL     1       6.222  32.620  58.454  1.00  0.00    -0.267 OA
HETATM   10  H   UNL     1       7.386  30.816  60.817  1.00  0.00     0.169 HD
BRANCH   8  11
HETATM   11  C   UNL     1       5.757  32.817  60.734  1.00  0.00     0.037 A 
HETATM   12  C   UNL     1       4.727  33.727  60.437  1.00  0.00     0.054 A 
HETATM   13  C   UNL     1       4.033  34.372  61.457  1.00  0.00     0.071 A 
HETATM   14  C   UNL     1       4.387  34.119  62.781  1.00  0.00     0.073 A 
HETATM   15  C   UNL     1       5.401  33.212  63.099  1.00  0.00     0.071 A 
HETATM   16  C   UNL     1       6.078  32.548  62.073  1.00  0.00     0.054 A 
BRANCH  13  17
HETATM   17  O   UNL     1       3.011  35.265  61.292  1.00  0.00    -0.356 OA
HETATM   18  C   UNL     1       1.701  34.804  61.604  1.00  0.00     0.210 C 
ENDBRANCH  13  17
BRANCH  15  19
HETATM   19  O   UNL     1       5.622  33.058  64.440  1.00  0.00    -0.356 OA
HETATM   20  C   UNL     1       4.748  33.737  65.332  1.00  0.00     0.210 C 
ENDBRANCH  15  19
ENDBRANCH   8  11
ENDBRANCH   3   7
BRANCH   1  21
HETATM   21  C   UNL     1       8.320  27.176  56.969  1.00  0.00     0.181 A 
HETATM   22  O   UNL     1       7.677  27.165  55.756  1.00  0.00    -0.289 OA
HETATM   23  C   UNL     1       7.547  25.842  55.462  1.00  0.00     0.106 A 
HETATM   24  C   UNL     1       8.106  25.120  56.502  1.00  0.00     0.094 A 
HETATM   25  C   UNL     1       6.969  25.286  54.330  1.00  0.00     0.040 A 
HETATM   26  C   UNL     1       8.113  23.720  56.426  1.00  0.00     0.041 A 
HETATM   27  N   UNL     1       8.582  25.977  57.462  1.00  0.00    -0.221 NA
HETATM   28  C   UNL     1       7.561  23.104  55.284  1.00  0.00    -0.060 A 
HETATM   29  C   UNL     1       7.539  21.606  55.178  1.00  0.00     0.048 C 
HETATM   30  C   UNL     1       6.985  23.886  54.266  1.00  0.00     0.009 A 
ENDBRANCH   1  21
TORSDOF 5
ENDMDL
MODEL 8
REMARK VINA RESULT:      -9.2      3.138      6.092
REMARK  5 active torsions:
REMARK  status: ('A' for Active; 'I' for Inactive)
REMARK    1  A    between atoms: C_7  and  C_8 
REMARK    2  A    between atoms: C_10  and  N_11 
REMARK       I    between atoms: N_11  and  C_12 
REMARK    3  A    between atoms: C_12  and  C_13 
REMARK    4  A    between atoms: C_15  and  O_16 
REMARK    5  A    between atoms: C_19  and  O_20 
ROOT
HETATM    1  C   UNL     1       7.733  27.237  55.911  1.00  0.00     0.019 A 
HETATM    2  C   UNL     1       7.378  27.599  54.598  1.00  0.00     0.045 A 
HETATM    3  C   UNL     1       6.891  26.652  53.692  1.00  0.00     0.035 A 
HETATM    4  C   UNL     1       6.774  25.320  54.105  1.00  0.00     0.029 A 
HETATM    5  C   UNL     1       7.145  24.939  55.397  1.00  0.00     0.003 A 
HETATM    6  C   UNL     1       7.617  25.895  56.295  1.00  0.00     0.016 A 
ENDROOT
BRANCH   3   7
HETATM    7  N   UNL     1       6.469  26.960  52.376  1.00  0.00    -0.323 N 
HETATM    8  C   UNL     1       5.199  27.336  51.974  1.00  0.00     0.256 C 
HETATM    9  O   UNL     1       4.240  27.522  52.718  1.00  0.00    -0.267 OA
HETATM   10  H   UNL     1       7.182  26.856  51.671  1.00  0.00     0.169 HD
BRANCH   8  11
HETATM   11  C   UNL     1       4.978  27.516  50.502  1.00  0.00     0.037 A 
HETATM   12  C   UNL     1       5.110  28.820  49.993  1.00  0.00     0.054 A 
HETATM   13  C   UNL     1       4.924  29.074  48.637  1.00  0.00     0.071 A 
HETATM   14  C   UNL     1       4.583  28.020  47.790  1.00  0.00     0.073 A 
HETATM   15  C   UNL     1       4.456  26.716  48.274  1.00  0.00     0.071 A 
HETATM   16  C   UNL     1       4.668  26.460  49.632  1.00  0.00     0.054 A 
BRANCH  13  17
HETATM   17  O   UNL     1       5.036  30.293  48.027  1.00  0.00    -0.356 OA
HETATM   18  C   UNL     1       4.356  30.453  46.787  1.00  0.00     0.210 C 
ENDBRANCH  13  17
BRANCH  15  19
HETATM   19  O   UNL     1       4.134  25.788  47.322  1.00  0.00    -0.356 OA
HETATM   20  C   UNL     1       2.755  25.508  47.118  1.00  0.00     0.210 C 
ENDBRANCH  15  19
ENDBRANCH   8  11
ENDBRANCH   3   7
BRANCH   1  21
HETATM   21  C   UNL     1       8.178  28.233  56.886  1.00  0.00     0.181 A 
HETATM   22  O   UNL     1       9.210  29.052  56.500  1.00  0.00    -0.289 OA
HETATM   23  C   UNL     1       9.375  29.897  57.555  1.00  0.00     0.106 A 
HETATM   24  C   UNL     1       8.449  29.552  58.523  1.00  0.00     0.094 A 
HETATM   25  C   UNL     1      10.292  30.932  57.666  1.00  0.00     0.040 A 
HETATM   26  C   UNL     1       8.404  30.295  59.712  1.00  0.00     0.041 A 
HETATM   27  N   UNL     1       7.702  28.483  58.095  1.00  0.00    -0.221 NA
HETATM   28  C   UNL     1       9.297  31.375  59.865  1.00  0.00    -0.060 A 
HETATM   29  C   UNL     1       9.285  32.181  61.132  1.00  0.00     0.048 C 
HETATM   30  C   UNL     1      10.234  31.668  58.857  1.00  0.00     0.009 A 
ENDBRANCH   1  21
TORSDOF 5
ENDMDL
MODEL 9
REMARK VINA RESULT:      -9.1      6.479     10.317
REMARK  5 active torsions:
REMARK  status: ('A' for Active; 'I' for Inactive)
REMARK    1  A    between atoms: C_7  and  C_8 
REMARK    2  A    between atoms: C_10  and  N_11 
REMARK       I    between atoms: N_11  and  C_12 
REMARK    3  A    between atoms: C_12  and  C_13 
REMARK    4  A    between atoms: C_15  and  O_16 
REMARK    5  A    between atoms: C_19  and  O_20 
ROOT
HETATM    1  C   UNL     1       5.463  26.248  53.990  1.00  0.00     0.019 A 
HETATM    2  C   UNL     1       4.807  26.446  52.761  1.00  0.00     0.045 A 
HETATM    3  C   UNL     1       4.185  27.661  52.458  1.00  0.00     0.035 A 
HETATM    4  C   UNL     1       4.207  28.687  53.410  1.00  0.00     0.029 A 
HETATM    5  C   UNL     1       4.833  28.499  54.645  1.00  0.00     0.003 A 
HETATM    6  C   UNL     1       5.461  27.288  54.930  1.00  0.00     0.016 A 
ENDROOT
BRANCH   3   7
HETATM    7  N   UNL     1       3.554  27.940  51.222  1.00  0.00    -0.323 N 
HETATM    8  C   UNL     1       4.149  27.984  49.973  1.00  0.00     0.256 C 
HETATM    9  O   UNL     1       5.324  27.723  49.733  1.00  0.00    -0.267 OA
HETATM   10  H   UNL     1       2.571  28.158  51.292  1.00  0.00     0.169 HD
BRANCH   8  11
HETATM   11  C   UNL     1       3.282  28.398  48.822  1.00  0.00     0.037 A 
HETATM   12  C   UNL     1       2.132  27.626  48.580  1.00  0.00     0.054 A 
HETATM   13  C   UNL     1       1.272  27.944  47.532  1.00  0.00     0.071 A 
HETATM   14  C   UNL     1       1.576  29.028  46.711  1.00  0.00     0.073 A 
HETATM   15  C   UNL     1       2.709  29.814  46.940  1.00  0.00     0.071 A 
HETATM   16  C   UNL     1       3.556  29.507  48.007  1.00  0.00     0.054 A 
BRANCH  13  17
HETATM   17  O   UNL     1       0.123  27.276  47.207  1.00  0.00    -0.356 OA
HETATM   18  C   UNL     1      -0.600  27.758  46.080  1.00  0.00     0.210 C 
ENDBRANCH  13  17
BRANCH  15  19
HETATM   19  O   UNL     1       2.864  30.851  46.062  1.00  0.00    -0.356 OA
HETATM   20  C   UNL     1       2.934  32.164  46.603  1.00  0.00     0.210 C 
ENDBRANCH  15  19
ENDBRANCH   8  11
ENDBRANCH   3   7
BRANCH   1  21
HETATM   21  C   UNL     1       6.176  25.006  54.287  1.00  0.00     0.181 A 
HETATM   22  O   UNL     1       6.561  24.246  53.211  1.00  0.00    -0.289 OA
HETATM   23  C   UNL     1       7.236  23.203  53.765  1.00  0.00     0.106 A 
HETATM   24  C   UNL     1       7.226  23.373  55.138  1.00  0.00     0.094 A 
HETATM   25  C   UNL     1       7.844  22.147  53.101  1.00  0.00     0.040 A 
HETATM   26  C   UNL     1       7.880  22.428  55.943  1.00  0.00     0.041 A 
HETATM   27  N   UNL     1       6.536  24.515  55.462  1.00  0.00    -0.221 NA
HETATM   28  C   UNL     1       8.536  21.349  55.316  1.00  0.00    -0.060 A 
HETATM   29  C   UNL     1       9.234  20.312  56.149  1.00  0.00     0.048 C 
HETATM   30  C   UNL     1       8.497  21.213  53.916  1.00  0.00     0.009 A 
ENDBRANCH   1  21
TORSDOF 5
ENDMDL
MODEL 10
REMARK VINA RESULT:      -9.0      6.466     10.245
REMARK  5 active torsions:
REMARK  status: ('A' for Active; 'I' for Inactive)
REMARK    1  A    between atoms: C_7  and  C_8 
REMARK    2  A    between atoms: C_10  and  N_11 
REMARK       I    between atoms: N_11  and  C_12 
REMARK    3  A    between atoms: C_12  and  C_13 
REMARK    4  A    between atoms: C_15  and  O_16 
REMARK    5  A    between atoms: C_19  and  O_20 
ROOT
HETATM    1  C   UNL     1       5.528  26.203  54.007  1.00  0.00     0.019 A 
HETATM    2  C   UNL     1       4.836  26.372  52.794  1.00  0.00     0.045 A 
HETATM    3  C   UNL     1       4.224  27.588  52.472  1.00  0.00     0.035 A 
HETATM    4  C   UNL     1       4.294  28.643  53.389  1.00  0.00     0.029 A 
HETATM    5  C   UNL     1       4.957  28.484  54.609  1.00  0.00     0.003 A 
HETATM    6  C   UNL     1       5.574  27.272  54.912  1.00  0.00     0.016 A 
ENDROOT
BRANCH   3   7
HETATM    7  N   UNL     1       3.557  27.838  51.249  1.00  0.00    -0.323 N 
HETATM    8  C   UNL     1       4.138  28.032  50.007  1.00  0.00     0.256 C 
HETATM    9  O   UNL     1       5.338  27.955  49.760  1.00  0.00    -0.267 OA
HETATM   10  H   UNL     1       2.554  27.909  51.324  1.00  0.00     0.169 HD
BRANCH   8  11
HETATM   11  C   UNL     1       3.219  28.378  48.874  1.00  0.00     0.037 A 
HETATM   12  C   UNL     1       3.535  29.525  48.125  1.00  0.00     0.054 A 
HETATM   13  C   UNL     1       2.735  29.916  47.054  1.00  0.00     0.071 A 
HETATM   14  C   UNL     1       1.601  29.166  46.746  1.00  0.00     0.073 A 
HETATM   15  C   UNL     1       1.274  28.017  47.472  1.00  0.00     0.071 A 
HETATM   16  C   UNL     1       2.093  27.614  48.530  1.00  0.00     0.054 A 
BRANCH  13  17
HETATM   17  O   UNL     1       2.946  31.002  46.249  1.00  0.00    -0.356 OA
HETATM   18  C   UNL     1       4.281  31.222  45.809  1.00  0.00     0.210 C 
ENDBRANCH  13  17
BRANCH  15  19
HETATM   19  O   UNL     1       0.144  27.378  47.041  1.00  0.00    -0.356 OA
HETATM   20  C   UNL     1      -0.311  27.667  45.726  1.00  0.00     0.210 C 
ENDBRANCH  15  19
ENDBRANCH   8  11
ENDBRANCH   3   7
BRANCH   1  21
HETATM   21  C   UNL     1       6.230  24.958  54.322  1.00  0.00     0.181 A 
HETATM   22  O   UNL     1       6.565  24.157  53.259  1.00  0.00    -0.289 OA
HETATM   23  C   UNL     1       7.242  23.120  53.825  1.00  0.00     0.106 A 
HETATM   24  C   UNL     1       7.281  23.336  55.191  1.00  0.00     0.094 A 
HETATM   25  C   UNL     1       7.809  22.033  53.176  1.00  0.00     0.040 A 
HETATM   26  C   UNL     1       7.947  22.407  56.004  1.00  0.00     0.041 A 
HETATM   27  N   UNL     1       6.622  24.500  55.499  1.00  0.00    -0.221 NA
HETATM   28  C   UNL     1       8.563  21.296  55.392  1.00  0.00    -0.060 A 
HETATM   29  C   UNL     1       9.271  20.275  56.235  1.00  0.00     0.048 C 
HETATM   30  C   UNL     1       8.473  21.115  53.999  1.00  0.00     0.009 A 
ENDBRANCH   1  21
TORSDOF 5
ENDMDL
