MODEL 1
REMARK VINA RESULT:      -9.7      0.000      0.000
REMARK  5 active torsions:
REMARK  status: ('A' for Active; 'I' for Inactive)
REMARK    1  A    between atoms: C_4  and  N_5 
REMARK       I    between atoms: N_5  and  C_6 
REMARK       I    between atoms: C_6  and  N_7 
REMARK    2  A    between atoms: N_7  and  C_8 
REMARK    3  A    between atoms: C_10  and  C_11 
REMARK       I    between atoms: C_11  and  N_12 
REMARK    4  A    between atoms: N_12  and  C_13 
REMARK    5  A    between atoms: C_13  and  C_14 
ROOT
HETATM    1  C   UNL     1       7.696  29.084  56.488  1.00  0.00     0.078 A 
HETATM    2  S   UNL     1       7.252  29.885  57.916  1.00  0.00    -0.067 SA
HETATM    3  C   UNL     1       8.868  30.384  58.226  1.00  0.00     0.074 A 
HETATM    4  C   UNL     1       9.738  29.813  57.312  1.00  0.00     0.027 A 
HETATM    5  C   UNL     1       9.056  29.056  56.303  1.00  0.00     0.039 A 
ENDROOT
BRANCH   1   6
HETATM    6  N   UNL     1       6.620  28.594  55.795  1.00  0.00    -0.303 N 
HETATM    7  C   UNL     1       6.383  27.346  55.288  1.00  0.00     0.325 C 
HETATM    8  N   UNL     1       7.452  26.492  55.215  1.00  0.00    -0.309 N 
HETATM    9  O   UNL     1       5.253  27.119  54.859  1.00  0.00    -0.247 OA
HETATM   10  H   UNL     1       8.341  26.878  55.484  1.00  0.00     0.170 HD
HETATM   11  H   UNL     1       5.895  29.261  55.556  1.00  0.00     0.171 HD
BRANCH   8  12
HETATM   12  C   UNL     1       7.511  25.224  54.600  1.00  0.00     0.036 A 
HETATM   13  C   UNL     1       7.713  25.021  53.233  1.00  0.00     0.029 A 
HETATM   14  C   UNL     1       7.813  23.725  52.715  1.00  0.00     0.002 A 
HETATM   15  C   UNL     1       7.696  22.621  53.556  1.00  0.00     0.000 A 
HETATM   16  C   UNL     1       7.478  22.810  54.917  1.00  0.00     0.002 A 
HETATM   17  C   UNL     1       7.388  24.106  55.436  1.00  0.00     0.029 A 
ENDBRANCH   8  12
ENDBRANCH   1   6
BRANCH   3  18
HETATM   18  C   UNL     1       9.108  31.310  59.326  1.00  0.00     0.258 C 
HETATM   19  N   UNL     1       8.919  30.792  60.593  1.00  0.00    -0.352 N 
HETATM   20  H   UNL     1       8.469  29.896  60.710  1.00  0.00     0.163 HD
HETATM   21  O   UNL     1       9.472  32.473  59.169  1.00  0.00    -0.267 OA
BRANCH  19  22
HETATM   22  C   UNL     1       9.232  31.559  61.780  1.00  0.00     0.162 C 
BRANCH  22  23
HETATM   23  C   UNL     1       8.014  32.032  62.520  1.00  0.00    -0.023 A 
HETATM   24  C   UNL     1       6.745  31.598  62.146  1.00  0.00     0.125 A 
HETATM   25  N   UNL     1       5.603  31.928  62.791  1.00  0.00    -0.273 NA
HETATM   26  C   UNL     1       5.728  32.720  63.877  1.00  0.00     0.116 A 
HETATM   27  C   UNL     1       6.939  33.197  64.344  1.00  0.00     0.020 A 
HETATM   28  C   UNL     1       8.098  32.842  63.657  1.00  0.00     0.012 A 
ENDBRANCH  22  23
ENDBRANCH  19  22
ENDBRANCH   3  18
TORSDOF 5
ENDMDL
MODEL 2
REMARK VINA RESULT:      -9.3      1.811     10.075
REMARK  5 active torsions:
REMARK  status: ('A' for Active; 'I' for Inactive)
REMARK    1  A    between atoms: C_4  and  N_5 
REMARK       I    between atoms: N_5  and  C_6 
REMARK       I    between atoms: C_6  and  N_7 
REMARK    2  A    between atoms: N_7  and  C_8 
REMARK    3  A    between atoms: C_10  and  C_11 
REMARK       I    between atoms: C_11  and  N_12 
REMARK    4  A    between atoms: N_12  and  C_13 
REMARK    5  A    between atoms: C_13  and  C_14 
ROOT
HETATM    1  C   UNL     1       8.423  29.434  57.459  1.00  0.00     0.078 A 
HETATM    2  S   UNL     1       8.704  28.949  55.857  1.00  0.00    -0.067 SA
HETATM    3  C   UNL     1       7.651  27.599  56.004  1.00  0.00     0.074 A 
HETATM    4  C   UNL     1       7.215  27.460  57.311  1.00  0.00     0.027 A 
HETATM    5  C   UNL     1       7.666  28.526  58.157  1.00  0.00     0.039 A 
ENDROOT
BRANCH   1   6
HETATM    6  N   UNL     1       9.023  30.627  57.768  1.00  0.00    -0.303 N 
HETATM    7  C   UNL     1       9.004  31.359  58.923  1.00  0.00     0.325 C 
HETATM    8  N   UNL     1       8.060  31.021  59.856  1.00  0.00    -0.309 N 
HETATM    9  O   UNL     1       9.775  32.314  58.996  1.00  0.00    -0.247 OA
HETATM   10  H   UNL     1       7.414  30.299  59.586  1.00  0.00     0.170 HD
HETATM   11  H   UNL     1       9.518  31.092  57.015  1.00  0.00     0.171 HD
BRANCH   8  12
HETATM   12  C   UNL     1       7.731  31.703  61.047  1.00  0.00     0.036 A 
HETATM   13  C   UNL     1       8.471  31.626  62.228  1.00  0.00     0.029 A 
HETATM   14  C   UNL     1       8.103  32.381  63.347  1.00  0.00     0.002 A 
HETATM   15  C   UNL     1       6.983  33.208  63.300  1.00  0.00     0.000 A 
HETATM   16  C   UNL     1       6.228  33.280  62.134  1.00  0.00     0.002 A 
HETATM   17  C   UNL     1       6.602  32.534  61.012  1.00  0.00     0.029 A 
ENDBRANCH   8  12
ENDBRANCH   1   6
BRANCH   3  18
HETATM   18  C   UNL     1       7.342  26.827  54.806  1.00  0.00     0.258 C 
HETATM   19  N   UNL     1       7.384  25.454  54.954  1.00  0.00    -0.352 N 
HETATM   20  H   UNL     1       7.782  25.049  55.788  1.00  0.00     0.163 HD
HETATM   21  O   UNL     1       7.046  27.335  53.727  1.00  0.00    -0.267 OA
BRANCH  19  22
HETATM   22  C   UNL     1       6.989  24.564  53.884  1.00  0.00     0.162 C 
BRANCH  22  23
HETATM   23  C   UNL     1       7.445  23.148  54.089  1.00  0.00    -0.023 A 
HETATM   24  C   UNL     1       7.450  22.583  55.361  1.00  0.00     0.125 A 
HETATM   25  N   UNL     1       7.790  21.301  55.628  1.00  0.00    -0.273 NA
HETATM   26  C   UNL     1       8.130  20.533  54.571  1.00  0.00     0.116 A 
HETATM   27  C   UNL     1       8.147  20.987  53.265  1.00  0.00     0.020 A 
HETATM   28  C   UNL     1       7.794  22.313  53.022  1.00  0.00     0.012 A 
ENDBRANCH  22  23
ENDBRANCH  19  22
ENDBRANCH   3  18
TORSDOF 5
ENDMDL
MODEL 3
REMARK VINA RESULT:      -9.1      1.965      2.847
REMARK  5 active torsions:
REMARK  status: ('A' for Active; 'I' for Inactive)
REMARK    1  A    between atoms: C_4  and  N_5 
REMARK       I    between atoms: N_5  and  C_6 
REMARK       I    between atoms: C_6  and  N_7 
REMARK    2  A    between atoms: N_7  and  C_8 
REMARK    3  A    between atoms: C_10  and  C_11 
REMARK       I    between atoms: C_11  and  N_12 
REMARK    4  A    between atoms: N_12  and  C_13 
REMARK    5  A    between atoms: C_13  and  C_14 
ROOT
HETATM    1  C   UNL     1       6.063  26.900  55.207  1.00  0.00     0.078 A 
HETATM    2  S   UNL     1       7.474  27.843  55.207  1.00  0.00    -0.067 SA
HETATM    3  C   UNL     1       7.288  28.253  56.866  1.00  0.00     0.074 A 
HETATM    4  C   UNL     1       6.080  27.781  57.352  1.00  0.00     0.027 A 
HETATM    5  C   UNL     1       5.368  26.996  56.386  1.00  0.00     0.039 A 
ENDROOT
BRANCH   1   6
HETATM    6  N   UNL     1       5.866  26.237  54.024  1.00  0.00    -0.303 N 
HETATM    7  C   UNL     1       6.091  24.929  53.689  1.00  0.00     0.325 C 
HETATM    8  N   UNL     1       6.860  24.192  54.550  1.00  0.00    -0.309 N 
HETATM    9  O   UNL     1       5.659  24.545  52.604  1.00  0.00    -0.247 OA
HETATM   10  H   UNL     1       7.249  24.693  55.329  1.00  0.00     0.170 HD
HETATM   11  H   UNL     1       5.558  26.797  53.237  1.00  0.00     0.171 HD
BRANCH   8  12
HETATM   12  C   UNL     1       7.362  22.887  54.366  1.00  0.00     0.036 A 
HETATM   13  C   UNL     1       7.776  22.370  53.136  1.00  0.00     0.029 A 
HETATM   14  C   UNL     1       8.314  21.080  53.054  1.00  0.00     0.002 A 
HETATM   15  C   UNL     1       8.429  20.292  54.196  1.00  0.00     0.000 A 
HETATM   16  C   UNL     1       8.005  20.790  55.423  1.00  0.00     0.002 A 
HETATM   17  C   UNL     1       7.476  22.082  55.508  1.00  0.00     0.029 A 
ENDBRANCH   8  12
ENDBRANCH   1   6
BRANCH   3  18
HETATM   18  C   UNL     1       8.366  28.980  57.525  1.00  0.00     0.258 C 
HETATM   19  N   UNL     1       8.001  29.701  58.645  1.00  0.00    -0.352 N 
HETATM   20  H   UNL     1       7.025  29.846  58.856  1.00  0.00     0.163 HD
HETATM   21  O   UNL     1       9.534  28.957  57.144  1.00  0.00    -0.267 OA
BRANCH  19  22
HETATM   22  C   UNL     1       8.984  30.376  59.466  1.00  0.00     0.162 C 
BRANCH  22  23
HETATM   23  C   UNL     1       8.376  31.280  60.499  1.00  0.00    -0.023 A 
HETATM   24  C   UNL     1       7.172  31.932  60.249  1.00  0.00     0.125 A 
HETATM   25  N   UNL     1       6.527  32.718  61.142  1.00  0.00    -0.273 NA
HETATM   26  C   UNL     1       7.101  32.851  62.356  1.00  0.00     0.116 A 
HETATM   27  C   UNL     1       8.288  32.239  62.716  1.00  0.00     0.020 A 
HETATM   28  C   UNL     1       8.930  31.439  61.774  1.00  0.00     0.012 A 
ENDBRANCH  22  23
ENDBRANCH  19  22
ENDBRANCH   3  18
TORSDOF 5
ENDMDL
MODEL 4
REMARK VINA RESULT:      -8.9      2.388      3.401
REMARK  5 active torsions:
REMARK  status: ('A' for Active; 'I' for Inactive)
REMARK    1  A    between atoms: C_4  and  N_5 
REMARK       I    between atoms: N_5  and  C_6 
REMARK       I    between atoms: C_6  and  N_7 
REMARK    2  A    between atoms: N_7  and  C_8 
REMARK    3  A    between atoms: C_10  and  C_11 
REMARK       I    between atoms: C_11  and  N_12 
REMARK    4  A    between atoms: N_12  and  C_13 
REMARK    5  A    between atoms: C_13  and  C_14 
ROOT
HETATM    1  C   UNL     1       6.614  26.055  57.343  1.00  0.00     0.078 A 
HETATM    2  S   UNL     1       7.447  27.512  57.592  1.00  0.00    -0.067 SA
HETATM    3  C   UNL     1       6.079  28.455  57.149  1.00  0.00     0.074 A 
HETATM    4  C   UNL     1       5.058  27.643  56.684  1.00  0.00     0.027 A 
HETATM    5  C   UNL     1       5.371  26.248  56.795  1.00  0.00     0.039 A 
ENDROOT
BRANCH   1   6
HETATM    6  N   UNL     1       7.344  24.955  57.712  1.00  0.00    -0.303 N 
HETATM    7  C   UNL     1       7.846  23.929  56.960  1.00  0.00     0.325 C 
HETATM    8  N   UNL     1       7.366  23.802  55.683  1.00  0.00    -0.309 N 
HETATM    9  O   UNL     1       8.621  23.152  57.515  1.00  0.00    -0.247 OA
HETATM   10  H   UNL     1       6.633  24.440  55.425  1.00  0.00     0.170 HD
HETATM   11  H   UNL     1       7.499  24.828  58.705  1.00  0.00     0.171 HD
BRANCH   8  12
HETATM   12  C   UNL     1       7.600  22.755  54.767  1.00  0.00     0.036 A 
HETATM   13  C   UNL     1       7.775  22.936  53.394  1.00  0.00     0.029 A 
HETATM   14  C   UNL     1       8.058  21.845  52.564  1.00  0.00     0.002 A 
HETATM   15  C   UNL     1       8.153  20.562  53.098  1.00  0.00     0.000 A 
HETATM   16  C   UNL     1       7.963  20.367  54.462  1.00  0.00     0.002 A 
HETATM   17  C   UNL     1       7.691  21.458  55.293  1.00  0.00     0.029 A 
ENDBRANCH   8  12
ENDBRANCH   1   6
BRANCH   3  18
HETATM   18  C   UNL     1       6.145  29.900  57.330  1.00  0.00     0.258 C 
HETATM   19  N   UNL     1       6.581  30.326  58.569  1.00  0.00    -0.352 N 
HETATM   20  H   UNL     1       6.661  29.668  59.330  1.00  0.00     0.163 HD
HETATM   21  O   UNL     1       5.855  30.709  56.452  1.00  0.00    -0.267 OA
BRANCH  19  22
HETATM   22  C   UNL     1       6.807  31.727  58.853  1.00  0.00     0.162 C 
BRANCH  22  23
HETATM   23  C   UNL     1       7.355  31.975  60.228  1.00  0.00    -0.023 A 
HETATM   24  C   UNL     1       6.503  32.275  61.287  1.00  0.00     0.125 A 
HETATM   25  N   UNL     1       6.905  32.456  62.566  1.00  0.00    -0.273 NA
HETATM   26  C   UNL     1       8.225  32.317  62.811  1.00  0.00     0.116 A 
HETATM   27  C   UNL     1       9.158  32.009  61.837  1.00  0.00     0.020 A 
HETATM   28  C   UNL     1       8.714  31.831  60.529  1.00  0.00     0.012 A 
ENDBRANCH  22  23
ENDBRANCH  19  22
ENDBRANCH   3  18
TORSDOF 5
ENDMDL
MODEL 5
REMARK VINA RESULT:      -8.7      2.314      9.897
REMARK  5 active torsions:
REMARK  status: ('A' for Active; 'I' for Inactive)
REMARK    1  A    between atoms: C_4  and  N_5 
REMARK       I    between atoms: N_5  and  C_6 
REMARK       I    between atoms: C_6  and  N_7 
REMARK    2  A    between atoms: N_7  and  C_8 
REMARK    3  A    between atoms: C_10  and  C_11 
REMARK       I    between atoms: C_11  and  N_12 
REMARK    4  A    between atoms: N_12  and  C_13 
REMARK    5  A    between atoms: C_13  and  C_14 
ROOT
HETATM    1  C   UNL     1       6.173  28.921  56.666  1.00  0.00     0.078 A 
HETATM    2  S   UNL     1       7.118  28.639  55.286  1.00  0.00    -0.067 SA
HETATM    3  C   UNL     1       6.917  26.937  55.405  1.00  0.00     0.074 A 
HETATM    4  C   UNL     1       6.251  26.605  56.574  1.00  0.00     0.027 A 
HETATM    5  C   UNL     1       5.821  27.760  57.307  1.00  0.00     0.039 A 
ENDROOT
BRANCH   1   6
HETATM    6  N   UNL     1       5.955  30.254  56.900  1.00  0.00    -0.303 N 
HETATM    7  C   UNL     1       6.484  31.089  57.846  1.00  0.00     0.325 C 
HETATM    8  N   UNL     1       7.141  30.501  58.894  1.00  0.00    -0.309 N 
HETATM    9  O   UNL     1       6.253  32.291  57.726  1.00  0.00    -0.247 OA
HETATM   10  H   UNL     1       7.126  29.496  58.913  1.00  0.00     0.170 HD
HETATM   11  H   UNL     1       5.248  30.703  56.329  1.00  0.00     0.171 HD
BRANCH   8  12
HETATM   12  C   UNL     1       7.636  31.116  60.063  1.00  0.00     0.036 A 
HETATM   13  C   UNL     1       6.889  31.964  60.882  1.00  0.00     0.029 A 
HETATM   14  C   UNL     1       7.443  32.488  62.056  1.00  0.00     0.002 A 
HETATM   15  C   UNL     1       8.754  32.180  62.413  1.00  0.00     0.000 A 
HETATM   16  C   UNL     1       9.514  31.349  61.596  1.00  0.00     0.002 A 
HETATM   17  C   UNL     1       8.957  30.818  60.428  1.00  0.00     0.029 A 
ENDBRANCH   8  12
ENDBRANCH   1   6
BRANCH   3  18
HETATM   18  C   UNL     1       7.415  26.102  54.319  1.00  0.00     0.258 C 
HETATM   19  N   UNL     1       7.291  24.739  54.510  1.00  0.00    -0.352 N 
HETATM   20  H   UNL     1       7.044  24.378  55.418  1.00  0.00     0.163 HD
HETATM   21  O   UNL     1       7.901  26.551  53.283  1.00  0.00    -0.267 OA
BRANCH  19  22
HETATM   22  C   UNL     1       7.636  23.793  53.470  1.00  0.00     0.162 C 
BRANCH  22  23
HETATM   23  C   UNL     1       7.999  22.435  53.997  1.00  0.00    -0.023 A 
HETATM   24  C   UNL     1       8.100  21.346  53.136  1.00  0.00     0.125 A 
HETATM   25  N   UNL     1       8.475  20.103  53.516  1.00  0.00    -0.273 NA
HETATM   26  C   UNL     1       8.783  19.935  54.819  1.00  0.00     0.116 A 
HETATM   27  C   UNL     1       8.730  20.950  55.758  1.00  0.00     0.020 A 
HETATM   28  C   UNL     1       8.337  22.218  55.337  1.00  0.00     0.012 A 
ENDBRANCH  22  23
ENDBRANCH  19  22
ENDBRANCH   3  18
TORSDOF 5
ENDMDL
MODEL 6
REMARK VINA RESULT:      -8.6      6.277      9.226
REMARK  5 active torsions:
REMARK  status: ('A' for Active; 'I' for Inactive)
REMARK    1  A    between atoms: C_4  and  N_5 
REMARK       I    between atoms: N_5  and  C_6 
REMARK       I    between atoms: C_6  and  N_7 
REMARK    2  A    between atoms: N_7  and  C_8 
REMARK    3  A    between atoms: C_10  and  C_11 
REMARK       I    between atoms: C_11  and  N_12 
REMARK    4  A    between atoms: N_12  and  C_13 
REMARK    5  A    between atoms: C_13  and  C_14 
ROOT
HETATM    1  C   UNL     1       5.516  28.604  53.321  1.00  0.00     0.078 A 
HETATM    2  S   UNL     1       6.441  27.236  53.709  1.00  0.00    -0.067 SA
HETATM    3  C   UNL     1       5.515  26.918  55.122  1.00  0.00     0.074 A 
HETATM    4  C   UNL     1       4.608  27.940  55.350  1.00  0.00     0.027 A 
HETATM    5  C   UNL     1       4.611  28.921  54.304  1.00  0.00     0.039 A 
ENDROOT
BRANCH   1   6
HETATM    6  N   UNL     1       5.857  29.154  52.114  1.00  0.00    -0.303 N 
HETATM    7  C   UNL     1       5.301  28.992  50.874  1.00  0.00     0.325 C 
HETATM    8  N   UNL     1       4.432  27.946  50.716  1.00  0.00    -0.309 N 
HETATM    9  O   UNL     1       5.691  29.743  49.982  1.00  0.00    -0.247 OA
HETATM   10  H   UNL     1       4.322  27.342  51.512  1.00  0.00     0.170 HD
HETATM   11  H   UNL     1       6.689  29.733  52.100  1.00  0.00     0.171 HD
BRANCH   8  12
HETATM   12  C   UNL     1       3.850  27.473  49.521  1.00  0.00     0.036 A 
HETATM   13  C   UNL     1       4.344  26.400  48.776  1.00  0.00     0.029 A 
HETATM   14  C   UNL     1       3.671  25.962  47.630  1.00  0.00     0.002 A 
HETATM   15  C   UNL     1       2.507  26.602  47.210  1.00  0.00     0.000 A 
HETATM   16  C   UNL     1       2.015  27.682  47.934  1.00  0.00     0.002 A 
HETATM   17  C   UNL     1       2.681  28.114  49.085  1.00  0.00     0.029 A 
ENDBRANCH   8  12
ENDBRANCH   1   6
BRANCH   3  18
HETATM   18  C   UNL     1       5.762  25.679  55.848  1.00  0.00     0.258 C 
HETATM   19  N   UNL     1       6.860  24.953  55.432  1.00  0.00    -0.352 N 
HETATM   20  H   UNL     1       7.326  25.192  54.569  1.00  0.00     0.163 HD
HETATM   21  O   UNL     1       5.066  25.288  56.783  1.00  0.00    -0.267 OA
BRANCH  19  22
HETATM   22  C   UNL     1       7.294  23.763  56.134  1.00  0.00     0.162 C 
BRANCH  22  23
HETATM   23  C   UNL     1       7.654  22.629  55.218  1.00  0.00    -0.023 A 
HETATM   24  C   UNL     1       7.892  21.356  55.728  1.00  0.00     0.125 A 
HETATM   25  N   UNL     1       8.166  20.268  54.971  1.00  0.00    -0.273 NA
HETATM   26  C   UNL     1       8.190  20.451  53.634  1.00  0.00     0.116 A 
HETATM   27  C   UNL     1       7.955  21.669  53.021  1.00  0.00     0.020 A 
HETATM   28  C   UNL     1       7.679  22.771  53.827  1.00  0.00     0.012 A 
ENDBRANCH  22  23
ENDBRANCH  19  22
ENDBRANCH   3  18
TORSDOF 5
ENDMDL
MODEL 7
REMARK VINA RESULT:      -8.5      2.956     10.344
REMARK  5 active torsions:
REMARK  status: ('A' for Active; 'I' for Inactive)
REMARK    1  A    between atoms: C_4  and  N_5 
REMARK       I    between atoms: N_5  and  C_6 
REMARK       I    between atoms: C_6  and  N_7 
REMARK    2  A    between atoms: N_7  and  C_8 
REMARK    3  A    between atoms: C_10  and  C_11 
REMARK       I    between atoms: C_11  and  N_12 
REMARK    4  A    between atoms: N_12  and  C_13 
REMARK    5  A    between atoms: C_13  and  C_14 
ROOT
HETATM    1  C   UNL     1       7.452  31.661  61.917  1.00  0.00     0.078 A 
HETATM    2  S   UNL     1       7.373  31.517  60.228  1.00  0.00    -0.067 SA
HETATM    3  C   UNL     1       9.081  31.615  60.065  1.00  0.00     0.074 A 
HETATM    4  C   UNL     1       9.671  31.898  61.286  1.00  0.00     0.027 A 
HETATM    5  C   UNL     1       8.723  31.927  62.361  1.00  0.00     0.039 A 
ENDROOT
BRANCH   1   6
HETATM    6  N   UNL     1       6.232  31.511  62.523  1.00  0.00    -0.303 N 
HETATM    7  C   UNL     1       5.593  32.298  63.441  1.00  0.00     0.325 C 
HETATM    8  N   UNL     1       6.344  33.256  64.067  1.00  0.00    -0.309 N 
HETATM    9  O   UNL     1       4.420  32.026  63.693  1.00  0.00    -0.247 OA
HETATM   10  H   UNL     1       7.324  33.260  63.844  1.00  0.00     0.170 HD
HETATM   11  H   UNL     1       5.729  30.655  62.318  1.00  0.00     0.171 HD
BRANCH   8  12
HETATM   12  C   UNL     1       5.971  34.083  65.148  1.00  0.00     0.036 A 
HETATM   13  C   UNL     1       5.010  35.093  65.071  1.00  0.00     0.029 A 
HETATM   14  C   UNL     1       4.662  35.830  66.209  1.00  0.00     0.002 A 
HETATM   15  C   UNL     1       5.283  35.575  67.429  1.00  0.00     0.000 A 
HETATM   16  C   UNL     1       6.255  34.583  67.514  1.00  0.00     0.002 A 
HETATM   17  C   UNL     1       6.595  33.839  66.380  1.00  0.00     0.029 A 
ENDBRANCH   8  12
ENDBRANCH   1   6
BRANCH   3  18
HETATM   18  C   UNL     1       9.667  31.377  58.751  1.00  0.00     0.258 C 
HETATM   19  N   UNL     1       9.324  30.180  58.154  1.00  0.00    -0.352 N 
HETATM   20  H   UNL     1       8.855  29.465  58.689  1.00  0.00     0.163 HD
HETATM   21  O   UNL     1      10.405  32.177  58.181  1.00  0.00    -0.267 OA
BRANCH  19  22
HETATM   22  C   UNL     1       9.737  29.861  56.804  1.00  0.00     0.162 C 
BRANCH  22  23
HETATM   23  C   UNL     1       8.645  29.247  55.977  1.00  0.00    -0.023 A 
HETATM   24  C   UNL     1       7.313  29.365  56.364  1.00  0.00     0.125 A 
HETATM   25  N   UNL     1       6.264  28.894  55.652  1.00  0.00    -0.273 NA
HETATM   26  C   UNL     1       6.552  28.285  54.482  1.00  0.00     0.116 A 
HETATM   27  C   UNL     1       7.837  28.125  53.995  1.00  0.00     0.020 A 
HETATM   28  C   UNL     1       8.896  28.619  54.753  1.00  0.00     0.012 A 
ENDBRANCH  22  23
ENDBRANCH  19  22
ENDBRANCH   3  18
TORSDOF 5
ENDMDL
MODEL 8
REMARK VINA RESULT:      -8.3      5.087      8.253
REMARK  5 active torsions:
REMARK  status: ('A' for Active; 'I' for Inactive)
REMARK    1  A    between atoms: C_4  and  N_5 
REMARK       I    between atoms: N_5  and  C_6 
REMARK       I    between atoms: C_6  and  N_7 
REMARK    2  A    between atoms: N_7  and  C_8 
REMARK    3  A    between atoms: C_10  and  C_11 
REMARK       I    between atoms: C_11  and  N_12 
REMARK    4  A    between atoms: N_12  and  C_13 
REMARK    5  A    between atoms: C_13  and  C_14 
ROOT
HETATM    1  C   UNL     1       7.650  26.873  56.754  1.00  0.00     0.078 A 
HETATM    2  S   UNL     1       6.049  26.820  56.195  1.00  0.00    -0.067 SA
HETATM    3  C   UNL     1       6.213  28.312  55.358  1.00  0.00     0.074 A 
HETATM    4  C   UNL     1       7.439  28.894  55.635  1.00  0.00     0.027 A 
HETATM    5  C   UNL     1       8.273  28.058  56.449  1.00  0.00     0.039 A 
ENDROOT
BRANCH   1   6
HETATM    6  N   UNL     1       8.018  25.738  57.427  1.00  0.00    -0.303 N 
HETATM    7  C   UNL     1       8.301  24.482  56.963  1.00  0.00     0.325 C 
HETATM    8  N   UNL     1       7.934  24.199  55.674  1.00  0.00    -0.309 N 
HETATM    9  O   UNL     1       8.781  23.682  57.764  1.00  0.00    -0.247 OA
HETATM   10  H   UNL     1       7.428  24.923  55.193  1.00  0.00     0.170 HD
HETATM   11  H   UNL     1       8.035  25.797  58.438  1.00  0.00     0.171 HD
BRANCH   8  12
HETATM   12  C   UNL     1       7.970  22.953  55.013  1.00  0.00     0.036 A 
HETATM   13  C   UNL     1       7.799  21.722  55.648  1.00  0.00     0.029 A 
HETATM   14  C   UNL     1       7.794  20.535  54.906  1.00  0.00     0.002 A 
HETATM   15  C   UNL     1       7.976  20.569  53.525  1.00  0.00     0.000 A 
HETATM   16  C   UNL     1       8.164  21.789  52.884  1.00  0.00     0.002 A 
HETATM   17  C   UNL     1       8.158  22.975  53.624  1.00  0.00     0.029 A 
ENDBRANCH   8  12
ENDBRANCH   1   6
BRANCH   3  18
HETATM   18  C   UNL     1       5.124  28.744  54.491  1.00  0.00     0.258 C 
HETATM   19  N   UNL     1       5.494  29.134  53.218  1.00  0.00    -0.352 N 
HETATM   20  H   UNL     1       6.468  29.274  52.997  1.00  0.00     0.163 HD
HETATM   21  O   UNL     1       3.944  28.757  54.836  1.00  0.00    -0.267 OA
BRANCH  19  22
HETATM   22  C   UNL     1       4.509  29.476  52.214  1.00  0.00     0.162 C 
BRANCH  22  23
HETATM   23  C   UNL     1       4.339  28.419  51.162  1.00  0.00    -0.023 A 
HETATM   24  C   UNL     1       3.447  28.605  50.109  1.00  0.00     0.125 A 
HETATM   25  N   UNL     1       3.273  27.732  49.090  1.00  0.00    -0.273 NA
HETATM   26  C   UNL     1       4.039  26.620  49.109  1.00  0.00     0.116 A 
HETATM   27  C   UNL     1       4.965  26.342  50.098  1.00  0.00     0.020 A 
HETATM   28  C   UNL     1       5.119  27.258  51.135  1.00  0.00     0.012 A 
ENDBRANCH  22  23
ENDBRANCH  19  22
ENDBRANCH   3  18
TORSDOF 5
ENDMDL
MODEL 9
REMARK VINA RESULT:      -8.3      6.240      9.813
REMARK  5 active torsions:
REMARK  status: ('A' for Active; 'I' for Inactive)
REMARK    1  A    between atoms: C_4  and  N_5 
REMARK       I    between atoms: N_5  and  C_6 
REMARK       I    between atoms: C_6  and  N_7 
REMARK    2  A    between atoms: N_7  and  C_8 
REMARK    3  A    between atoms: C_10  and  C_11 
REMARK       I    between atoms: C_11  and  N_12 
REMARK    4  A    between atoms: N_12  and  C_13 
REMARK    5  A    between atoms: C_13  and  C_14 
ROOT
HETATM    1  C   UNL     1       6.670  27.066  54.689  1.00  0.00     0.078 A 
HETATM    2  S   UNL     1       5.003  27.366  54.581  1.00  0.00    -0.067 SA
HETATM    3  C   UNL     1       5.169  28.159  53.066  1.00  0.00     0.074 A 
HETATM    4  C   UNL     1       6.507  28.307  52.737  1.00  0.00     0.027 A 
HETATM    5  C   UNL     1       7.378  27.673  53.682  1.00  0.00     0.039 A 
ENDROOT
BRANCH   1   6
HETATM    6  N   UNL     1       7.004  26.296  55.772  1.00  0.00    -0.303 N 
HETATM    7  C   UNL     1       7.496  25.021  55.839  1.00  0.00     0.325 C 
HETATM    8  N   UNL     1       7.427  24.269  54.697  1.00  0.00    -0.309 N 
HETATM    9  O   UNL     1       7.880  24.624  56.938  1.00  0.00    -0.247 OA
HETATM   10  H   UNL     1       6.960  24.698  53.916  1.00  0.00     0.170 HD
HETATM   11  H   UNL     1       6.810  26.692  56.685  1.00  0.00     0.171 HD
BRANCH   8  12
HETATM   12  C   UNL     1       7.717  22.897  54.541  1.00  0.00     0.036 A 
HETATM   13  C   UNL     1       7.674  21.962  55.576  1.00  0.00     0.029 A 
HETATM   14  C   UNL     1       7.924  20.608  55.320  1.00  0.00     0.002 A 
HETATM   15  C   UNL     1       8.234  20.182  54.031  1.00  0.00     0.000 A 
HETATM   16  C   UNL     1       8.296  21.107  52.995  1.00  0.00     0.002 A 
HETATM   17  C   UNL     1       8.037  22.458  53.248  1.00  0.00     0.029 A 
ENDBRANCH   8  12
ENDBRANCH   1   6
BRANCH   3  18
HETATM   18  C   UNL     1       3.960  28.533  52.343  1.00  0.00     0.258 C 
HETATM   19  N   UNL     1       4.094  28.643  50.973  1.00  0.00    -0.352 N 
HETATM   20  H   UNL     1       5.012  28.641  50.554  1.00  0.00     0.163 HD
HETATM   21  O   UNL     1       2.875  28.728  52.887  1.00  0.00    -0.267 OA
BRANCH  19  22
HETATM   22  C   UNL     1       2.954  28.894  50.117  1.00  0.00     0.162 C 
BRANCH  22  23
HETATM   23  C   UNL     1       2.853  27.936  48.965  1.00  0.00    -0.023 A 
HETATM   24  C   UNL     1       3.991  27.314  48.460  1.00  0.00     0.125 A 
HETATM   25  N   UNL     1       3.984  26.397  47.464  1.00  0.00    -0.273 NA
HETATM   26  C   UNL     1       2.779  26.069  46.953  1.00  0.00     0.116 A 
HETATM   27  C   UNL     1       1.585  26.615  47.388  1.00  0.00     0.020 A 
HETATM   28  C   UNL     1       1.625  27.558  48.412  1.00  0.00     0.012 A 
ENDBRANCH  22  23
ENDBRANCH  19  22
ENDBRANCH   3  18
TORSDOF 5
ENDMDL
MODEL 10
REMARK VINA RESULT:      -8.2      1.680      2.198
REMARK  5 active torsions:
REMARK  status: ('A' for Active; 'I' for Inactive)
REMARK    1  A    between atoms: C_4  and  N_5 
REMARK       I    between atoms: N_5  and  C_6 
REMARK       I    between atoms: C_6  and  N_7 
REMARK    2  A    between atoms: N_7  and  C_8 
REMARK    3  A    between atoms: C_10  and  C_11 
REMARK       I    between atoms: C_11  and  N_12 
REMARK    4  A    between atoms: N_12  and  C_13 
REMARK    5  A    between atoms: C_13  and  C_14 
ROOT
HETATM    1  C   UNL     1       7.087  29.025  56.594  1.00  0.00     0.078 A 
HETATM    2  S   UNL     1       6.437  30.129  57.706  1.00  0.00    -0.067 SA
HETATM    3  C   UNL     1       7.983  30.490  58.364  1.00  0.00     0.074 A 
HETATM    4  C   UNL     1       8.949  29.659  57.821  1.00  0.00     0.027 A 
HETATM    5  C   UNL     1       8.427  28.806  56.794  1.00  0.00     0.039 A 
ENDROOT
BRANCH   1   6
HETATM    6  N   UNL     1       6.152  28.538  55.718  1.00  0.00    -0.303 N 
HETATM    7  C   UNL     1       6.058  27.318  55.105  1.00  0.00     0.325 C 
HETATM    8  N   UNL     1       7.169  26.518  55.142  1.00  0.00    -0.309 N 
HETATM    9  O   UNL     1       5.017  27.073  54.498  1.00  0.00    -0.247 OA
HETATM   10  H   UNL     1       7.987  26.922  55.565  1.00  0.00     0.170 HD
HETATM   11  H   UNL     1       5.436  29.187  55.414  1.00  0.00     0.171 HD
BRANCH   8  12
HETATM   12  C   UNL     1       7.385  25.298  54.467  1.00  0.00     0.036 A 
HETATM   13  C   UNL     1       7.138  24.040  55.018  1.00  0.00     0.029 A 
HETATM   14  C   UNL     1       7.328  22.881  54.256  1.00  0.00     0.002 A 
HETATM   15  C   UNL     1       7.780  22.971  52.942  1.00  0.00     0.000 A 
HETATM   16  C   UNL     1       8.046  24.218  52.387  1.00  0.00     0.002 A 
HETATM   17  C   UNL     1       7.846  25.376  53.145  1.00  0.00     0.029 A 
ENDBRANCH   8  12
ENDBRANCH   1   6
BRANCH   3  18
HETATM   18  C   UNL     1       8.089  31.575  59.331  1.00  0.00     0.258 C 
HETATM   19  N   UNL     1       7.195  31.524  60.383  1.00  0.00    -0.352 N 
HETATM   20  H   UNL     1       6.420  30.879  60.357  1.00  0.00     0.163 HD
HETATM   21  O   UNL     1       8.918  32.479  59.253  1.00  0.00    -0.267 OA
BRANCH  19  22
HETATM   22  C   UNL     1       7.259  32.468  61.479  1.00  0.00     0.162 C 
BRANCH  22  23
HETATM   23  C   UNL     1       6.076  33.391  61.539  1.00  0.00    -0.023 A 
HETATM   24  C   UNL     1       5.956  34.322  62.567  1.00  0.00     0.125 A 
HETATM   25  N   UNL     1       4.955  35.227  62.667  1.00  0.00    -0.273 NA
HETATM   26  C   UNL     1       4.031  35.218  61.683  1.00  0.00     0.116 A 
HETATM   27  C   UNL     1       4.060  34.346  60.610  1.00  0.00     0.020 A 
HETATM   28  C   UNL     1       5.101  33.424  60.537  1.00  0.00     0.012 A 
ENDBRANCH  22  23
ENDBRANCH  19  22
ENDBRANCH   3  18
TORSDOF 5
ENDMDL
