MODEL 1
REMARK VINA RESULT:      -8.0      0.000      0.000
REMARK  10 active torsions:
REMARK  status: ('A' for Active; 'I' for Inactive)
REMARK    1  A    between atoms: C_6  and  C_7 
REMARK    2  A    between atoms: C_9  and  C_10 
REMARK    3  A    between atoms: C_10  and  C_11 
REMARK       I    between atoms: C_11  and  N_12 
REMARK    4  A    between atoms: N_12  and  C_13 
REMARK    5  A    between atoms: C_13  and  C_14 
REMARK    6  A    between atoms: C_14  and  N_15 
REMARK    7  A    between atoms: C_26  and  C_27 
REMARK    8  A    between atoms: C_27  and  O_28 
REMARK    9  A    between atoms: O_28  and  C_29 
REMARK   10  A    between atoms: C_29  and  C_30 
ROOT
HETATM    1  C   UNL     1       5.081  31.364  57.952  1.00  0.00     0.166 C 
HETATM    2  N   UNL     1       4.826  31.821  56.572  1.00  0.00    -0.318 N 
HETATM    3  C   UNL     1       4.318  31.303  55.501  1.00  0.00     0.011 C 
HETATM    4  C   UNL     1       4.988  33.355  56.395  1.00  0.00     0.170 C 
HETATM    5  S   UNL     1       5.035  33.800  54.718  1.00  0.00    -0.086 SA
HETATM    6  C   UNL     1       4.390  32.166  54.257  1.00  0.00     0.135 C 
HETATM    7  N   UNL     1       4.983  34.211  57.354  1.00  0.00    -0.229 NA
HETATM    8  C   UNL     1       4.662  33.746  58.617  1.00  0.00     0.048 C 
HETATM    9  C   UNL     1       4.259  34.839  59.579  1.00  0.00     0.071 C 
HETATM   10  C   UNL     1       4.651  32.430  58.922  1.00  0.00     0.069 C 
ENDROOT
BRANCH   3  11
HETATM   11  C   UNL     1       3.567  30.006  55.512  1.00  0.00     0.156 C 
BRANCH  11  12
HETATM   12  C   UNL     1       3.724  29.106  54.314  1.00  0.00     0.223 C 
HETATM   13  N   UNL     1       4.318  27.903  54.610  1.00  0.00    -0.359 N 
HETATM   14  H   UNL     1       4.656  27.765  55.561  1.00  0.00     0.162 HD
HETATM   15  O   UNL     1       3.386  29.441  53.185  1.00  0.00    -0.273 OA
BRANCH  13  16
HETATM   16  C   UNL     1       4.883  26.963  53.639  1.00  0.00     0.150 C 
BRANCH  16  17
HETATM   17  C   UNL     1       6.329  26.487  53.875  1.00  0.00     0.253 C 
BRANCH  17  18
HETATM   18  N   UNL     1       6.625  25.146  53.236  1.00  0.00    -0.077 N 
HETATM   19  H   UNL     1       5.803  24.907  52.649  1.00  0.00     0.279 HD
HETATM   20  C   UNL     1       7.823  25.150  52.326  1.00  0.00     0.269 C 
HETATM   21  C   UNL     1       6.746  24.060  54.271  1.00  0.00     0.269 C 
ENDBRANCH  17  18
ENDBRANCH  16  17
ENDBRANCH  13  16
ENDBRANCH  11  12
ENDBRANCH   3  11
BRANCH   1  22
HETATM   22  C   UNL     1       6.528  30.884  58.235  1.00  0.00    -0.024 C 
HETATM   23  C   UNL     1       7.163  29.711  57.751  1.00  0.00    -0.053 C 
HETATM   24  C   UNL     1       8.576  29.636  57.754  1.00  0.00     0.014 C 
HETATM   25  C   UNL     1       6.486  28.504  57.166  1.00  0.00     0.049 C 
HETATM   26  C   UNL     1       9.377  30.652  58.271  1.00  0.00    -0.061 C 
HETATM   27  C   UNL     1      10.870  30.610  58.115  1.00  0.00     0.048 C 
HETATM   28  C   UNL     1       8.756  31.732  58.881  1.00  0.00     0.007 C 
HETATM   29  C   UNL     1       7.362  31.836  58.877  1.00  0.00     0.011 C 
ENDBRANCH   1  22
BRANCH  10  30
HETATM   30  C   UNL     1       3.907  31.976  60.118  1.00  0.00     0.294 C 
HETATM   31  O   UNL     1       2.735  31.648  60.053  1.00  0.00    -0.259 OA
BRANCH  30  32
HETATM   32  O   UNL     1       4.729  31.847  61.175  1.00  0.00    -0.313 OA
BRANCH  32  33
HETATM   33  C   UNL     1       4.232  32.369  62.421  1.00  0.00     0.217 C 
BRANCH  33  34
HETATM   34  C   UNL     1       5.392  32.778  63.297  1.00  0.00    -0.034 A 
HETATM   35  C   UNL     1       6.712  32.472  62.932  1.00  0.00     0.009 A 
HETATM   36  C   UNL     1       7.782  32.878  63.734  1.00  0.00     0.001 A 
HETATM   37  C   UNL     1       7.544  33.588  64.909  1.00  0.00     0.000 A 
HETATM   38  C   UNL     1       6.238  33.887  65.288  1.00  0.00     0.001 A 
HETATM   39  C   UNL     1       5.167  33.482  64.490  1.00  0.00     0.009 A 
ENDBRANCH  33  34
ENDBRANCH  32  33
ENDBRANCH  30  32
ENDBRANCH  10  30
TORSDOF 10
ENDMDL
MODEL 2
REMARK VINA RESULT:      -7.9      2.766      5.473
REMARK  10 active torsions:
REMARK  status: ('A' for Active; 'I' for Inactive)
REMARK    1  A    between atoms: C_6  and  C_7 
REMARK    2  A    between atoms: C_9  and  C_10 
REMARK    3  A    between atoms: C_10  and  C_11 
REMARK       I    between atoms: C_11  and  N_12 
REMARK    4  A    between atoms: N_12  and  C_13 
REMARK    5  A    between atoms: C_13  and  C_14 
REMARK    6  A    between atoms: C_14  and  N_15 
REMARK    7  A    between atoms: C_26  and  C_27 
REMARK    8  A    between atoms: C_27  and  O_28 
REMARK    9  A    between atoms: O_28  and  C_29 
REMARK   10  A    between atoms: C_29  and  C_30 
ROOT
HETATM    1  C   UNL     1       4.006  34.641  60.860  1.00  0.00     0.166 C 
HETATM    2  N   UNL     1       4.225  34.065  59.518  1.00  0.00    -0.318 N 
HETATM    3  C   UNL     1       5.043  33.210  58.997  1.00  0.00     0.011 C 
HETATM    4  C   UNL     1       3.072  34.373  58.524  1.00  0.00     0.170 C 
HETATM    5  S   UNL     1       3.523  33.998  56.892  1.00  0.00    -0.086 SA
HETATM    6  C   UNL     1       4.942  33.037  57.494  1.00  0.00     0.135 C 
HETATM    7  N   UNL     1       1.892  34.755  58.863  1.00  0.00    -0.229 NA
HETATM    8  C   UNL     1       1.586  34.750  60.212  1.00  0.00     0.048 C 
HETATM    9  C   UNL     1       0.102  34.786  60.495  1.00  0.00     0.071 C 
HETATM   10  C   UNL     1       2.534  34.652  61.168  1.00  0.00     0.069 C 
ENDROOT
BRANCH   3  11
HETATM   11  C   UNL     1       5.923  32.328  59.829  1.00  0.00     0.156 C 
BRANCH  11  12
HETATM   12  C   UNL     1       7.138  31.738  59.162  1.00  0.00     0.223 C 
HETATM   13  N   UNL     1       6.970  30.429  58.779  1.00  0.00    -0.359 N 
HETATM   14  H   UNL     1       6.098  29.970  59.041  1.00  0.00     0.162 HD
HETATM   15  O   UNL     1       8.182  32.363  59.016  1.00  0.00    -0.273 OA
BRANCH  13  16
HETATM   16  C   UNL     1       8.038  29.501  58.400  1.00  0.00     0.150 C 
BRANCH  16  17
HETATM   17  C   UNL     1       8.262  29.259  56.895  1.00  0.00     0.253 C 
BRANCH  17  18
HETATM   18  N   UNL     1       8.141  27.800  56.504  1.00  0.00    -0.077 N 
HETATM   19  H   UNL     1       9.109  27.439  56.398  1.00  0.00     0.279 HD
HETATM   20  C   UNL     1       7.467  26.940  57.537  1.00  0.00     0.269 C 
HETATM   21  C   UNL     1       7.474  27.646  55.164  1.00  0.00     0.269 C 
ENDBRANCH  17  18
ENDBRANCH  16  17
ENDBRANCH  13  16
ENDBRANCH  11  12
ENDBRANCH   3  11
BRANCH   1  22
HETATM   22  C   UNL     1       4.650  36.032  61.098  1.00  0.00    -0.024 C 
HETATM   23  C   UNL     1       4.331  37.256  60.457  1.00  0.00    -0.053 C 
HETATM   24  C   UNL     1       4.702  38.477  61.070  1.00  0.00     0.014 C 
HETATM   25  C   UNL     1       3.571  37.422  59.172  1.00  0.00     0.049 C 
HETATM   26  C   UNL     1       5.427  38.526  62.259  1.00  0.00    -0.061 C 
HETATM   27  C   UNL     1       5.665  39.831  62.962  1.00  0.00     0.048 C 
HETATM   28  C   UNL     1       5.870  37.331  62.809  1.00  0.00     0.007 C 
HETATM   29  C   UNL     1       5.503  36.113  62.230  1.00  0.00     0.011 C 
ENDBRANCH   1  22
BRANCH  10  30
HETATM   30  C   UNL     1       2.141  34.226  62.530  1.00  0.00     0.294 C 
HETATM   31  O   UNL     1       1.075  34.559  63.019  1.00  0.00    -0.259 OA
BRANCH  30  32
HETATM   32  O   UNL     1       3.026  33.346  63.033  1.00  0.00    -0.313 OA
BRANCH  32  33
HETATM   33  C   UNL     1       3.583  33.684  64.316  1.00  0.00     0.217 C 
BRANCH  33  34
HETATM   34  C   UNL     1       5.073  33.441  64.300  1.00  0.00    -0.034 A 
HETATM   35  C   UNL     1       5.652  32.587  63.349  1.00  0.00     0.009 A 
HETATM   36  C   UNL     1       7.036  32.388  63.323  1.00  0.00     0.001 A 
HETATM   37  C   UNL     1       7.852  33.035  64.249  1.00  0.00     0.000 A 
HETATM   38  C   UNL     1       7.288  33.877  65.205  1.00  0.00     0.001 A 
HETATM   39  C   UNL     1       5.906  34.076  65.234  1.00  0.00     0.009 A 
ENDBRANCH  33  34
ENDBRANCH  32  33
ENDBRANCH  30  32
ENDBRANCH  10  30
TORSDOF 10
ENDMDL
MODEL 3
REMARK VINA RESULT:      -7.8      3.302      6.151
REMARK  10 active torsions:
REMARK  status: ('A' for Active; 'I' for Inactive)
REMARK    1  A    between atoms: C_6  and  C_7 
REMARK    2  A    between atoms: C_9  and  C_10 
REMARK    3  A    between atoms: C_10  and  C_11 
REMARK       I    between atoms: C_11  and  N_12 
REMARK    4  A    between atoms: N_12  and  C_13 
REMARK    5  A    between atoms: C_13  and  C_14 
REMARK    6  A    between atoms: C_14  and  N_15 
REMARK    7  A    between atoms: C_26  and  C_27 
REMARK    8  A    between atoms: C_27  and  O_28 
REMARK    9  A    between atoms: O_28  and  C_29 
REMARK   10  A    between atoms: C_29  and  C_30 
ROOT
HETATM    1  C   UNL     1       4.934  34.317  62.837  1.00  0.00     0.166 C 
HETATM    2  N   UNL     1       4.538  35.253  61.767  1.00  0.00    -0.318 N 
HETATM    3  C   UNL     1       3.768  35.205  60.729  1.00  0.00     0.011 C 
HETATM    4  C   UNL     1       4.953  36.722  62.053  1.00  0.00     0.170 C 
HETATM    5  S   UNL     1       4.797  37.714  60.638  1.00  0.00    -0.086 SA
HETATM    6  C   UNL     1       3.787  36.432  59.839  1.00  0.00     0.135 C 
HETATM    7  N   UNL     1       5.273  37.184  63.210  1.00  0.00    -0.229 NA
HETATM    8  C   UNL     1       5.090  36.350  64.298  1.00  0.00     0.048 C 
HETATM    9  C   UNL     1       5.068  37.079  65.621  1.00  0.00     0.071 C 
HETATM   10  C   UNL     1       4.884  35.022  64.165  1.00  0.00     0.069 C 
ENDROOT
BRANCH   3  11
HETATM   11  C   UNL     1       2.799  34.086  60.497  1.00  0.00     0.156 C 
BRANCH  11  12
HETATM   12  C   UNL     1       3.349  32.801  59.934  1.00  0.00     0.223 C 
HETATM   13  N   UNL     1       4.040  32.971  58.759  1.00  0.00    -0.359 N 
HETATM   14  H   UNL     1       4.052  33.905  58.351  1.00  0.00     0.162 HD
HETATM   15  O   UNL     1       3.158  31.712  60.463  1.00  0.00    -0.273 OA
BRANCH  13  16
HETATM   16  C   UNL     1       4.418  31.910  57.823  1.00  0.00     0.150 C 
BRANCH  16  17
HETATM   17  C   UNL     1       5.905  31.511  57.771  1.00  0.00     0.253 C 
BRANCH  17  18
HETATM   18  N   UNL     1       6.145  30.062  58.141  1.00  0.00    -0.077 N 
HETATM   19  H   UNL     1       5.809  29.943  59.116  1.00  0.00     0.279 HD
HETATM   20  C   UNL     1       5.384  29.077  57.295  1.00  0.00     0.269 C 
HETATM   21  C   UNL     1       7.614  29.734  58.148  1.00  0.00     0.269 C 
ENDBRANCH  17  18
ENDBRANCH  16  17
ENDBRANCH  13  16
ENDBRANCH  11  12
ENDBRANCH   3  11
BRANCH   1  22
HETATM   22  C   UNL     1       6.292  33.599  62.622  1.00  0.00    -0.024 C 
HETATM   23  C   UNL     1       7.285  33.314  63.594  1.00  0.00    -0.053 C 
HETATM   24  C   UNL     1       8.245  32.308  63.329  1.00  0.00     0.014 C 
HETATM   25  C   UNL     1       7.419  33.947  64.950  1.00  0.00     0.049 C 
HETATM   26  C   UNL     1       8.292  31.620  62.118  1.00  0.00    -0.061 C 
HETATM   27  C   UNL     1       9.219  30.454  61.930  1.00  0.00     0.048 C 
HETATM   28  C   UNL     1       7.417  32.002  61.111  1.00  0.00     0.007 C 
HETATM   29  C   UNL     1       6.449  32.982  61.354  1.00  0.00     0.011 C 
ENDBRANCH   1  22
BRANCH  10  30
HETATM   30  C   UNL     1       4.282  34.272  65.290  1.00  0.00     0.294 C 
HETATM   31  O   UNL     1       3.161  33.800  65.215  1.00  0.00    -0.259 OA
BRANCH  30  32
HETATM   32  O   UNL     1       5.179  34.081  66.275  1.00  0.00    -0.313 OA
BRANCH  32  33
HETATM   33  C   UNL     1       4.649  34.086  67.613  1.00  0.00     0.217 C 
BRANCH  33  34
HETATM   34  C   UNL     1       5.785  34.101  68.607  1.00  0.00    -0.034 A 
HETATM   35  C   UNL     1       6.887  34.950  68.426  1.00  0.00     0.009 A 
HETATM   36  C   UNL     1       7.923  34.978  69.364  1.00  0.00     0.001 A 
HETATM   37  C   UNL     1       7.870  34.157  70.489  1.00  0.00     0.000 A 
HETATM   38  C   UNL     1       6.785  33.302  70.674  1.00  0.00     0.001 A 
HETATM   39  C   UNL     1       5.751  33.270  69.737  1.00  0.00     0.009 A 
ENDBRANCH  33  34
ENDBRANCH  32  33
ENDBRANCH  30  32
ENDBRANCH  10  30
TORSDOF 10
ENDMDL
MODEL 4
REMARK VINA RESULT:      -7.7      7.223     11.068
REMARK  10 active torsions:
REMARK  status: ('A' for Active; 'I' for Inactive)
REMARK    1  A    between atoms: C_6  and  C_7 
REMARK    2  A    between atoms: C_9  and  C_10 
REMARK    3  A    between atoms: C_10  and  C_11 
REMARK       I    between atoms: C_11  and  N_12 
REMARK    4  A    between atoms: N_12  and  C_13 
REMARK    5  A    between atoms: C_13  and  C_14 
REMARK    6  A    between atoms: C_14  and  N_15 
REMARK    7  A    between atoms: C_26  and  C_27 
REMARK    8  A    between atoms: C_27  and  O_28 
REMARK    9  A    between atoms: O_28  and  C_29 
REMARK   10  A    between atoms: C_29  and  C_30 
ROOT
HETATM    1  C   UNL     1       4.608  28.301  50.195  1.00  0.00     0.166 C 
HETATM    2  N   UNL     1       4.695  27.822  51.588  1.00  0.00    -0.318 N 
HETATM    3  C   UNL     1       5.286  26.849  52.201  1.00  0.00     0.011 C 
HETATM    4  C   UNL     1       4.134  28.838  52.621  1.00  0.00     0.170 C 
HETATM    5  S   UNL     1       3.922  28.108  54.180  1.00  0.00    -0.086 SA
HETATM    6  C   UNL     1       4.955  26.701  53.673  1.00  0.00     0.135 C 
HETATM    7  N   UNL     1       3.946  30.089  52.394  1.00  0.00    -0.229 NA
HETATM    8  C   UNL     1       4.415  30.594  51.194  1.00  0.00     0.048 C 
HETATM    9  C   UNL     1       4.550  32.098  51.183  1.00  0.00     0.071 C 
HETATM   10  C   UNL     1       4.776  29.796  50.166  1.00  0.00     0.069 C 
ENDROOT
BRANCH   3  11
HETATM   11  C   UNL     1       6.348  26.016  51.550  1.00  0.00     0.156 C 
BRANCH  11  12
HETATM   12  C   UNL     1       7.379  25.385  52.449  1.00  0.00     0.223 C 
HETATM   13  N   UNL     1       7.340  24.011  52.446  1.00  0.00    -0.359 N 
HETATM   14  H   UNL     1       6.595  23.563  51.915  1.00  0.00     0.162 HD
HETATM   15  O   UNL     1       8.147  26.044  53.141  1.00  0.00    -0.273 OA
BRANCH  13  16
HETATM   16  C   UNL     1       7.983  23.131  53.424  1.00  0.00     0.150 C 
BRANCH  16  17
HETATM   17  C   UNL     1       7.326  23.020  54.813  1.00  0.00     0.253 C 
BRANCH  17  18
HETATM   18  N   UNL     1       7.668  24.178  55.728  1.00  0.00    -0.077 N 
HETATM   19  H   UNL     1       8.089  24.916  55.130  1.00  0.00     0.279 HD
HETATM   20  C   UNL     1       6.478  24.796  56.409  1.00  0.00     0.269 C 
HETATM   21  C   UNL     1       8.716  23.790  56.735  1.00  0.00     0.269 C 
ENDBRANCH  17  18
ENDBRANCH  16  17
ENDBRANCH  13  16
ENDBRANCH  11  12
ENDBRANCH   3  11
BRANCH   1  22
HETATM   22  C   UNL     1       3.345  27.853  49.416  1.00  0.00    -0.024 C 
HETATM   23  C   UNL     1       2.026  28.358  49.539  1.00  0.00    -0.053 C 
HETATM   24  C   UNL     1       1.100  28.145  48.489  1.00  0.00     0.014 C 
HETATM   25  C   UNL     1       1.481  29.170  50.680  1.00  0.00     0.049 C 
HETATM   26  C   UNL     1       1.417  27.401  47.354  1.00  0.00    -0.061 C 
HETATM   27  C   UNL     1       0.469  27.329  46.192  1.00  0.00     0.048 C 
HETATM   28  C   UNL     1       2.656  26.780  47.300  1.00  0.00     0.007 C 
HETATM   29  C   UNL     1       3.592  26.989  48.317  1.00  0.00     0.011 C 
ENDBRANCH   1  22
BRANCH  10  30
HETATM   30  C   UNL     1       5.649  30.343  49.104  1.00  0.00     0.294 C 
HETATM   31  O   UNL     1       6.804  30.662  49.328  1.00  0.00    -0.259 OA
BRANCH  30  32
HETATM   32  O   UNL     1       5.040  30.286  47.905  1.00  0.00    -0.313 OA
BRANCH  32  33
HETATM   33  C   UNL     1       4.529  31.533  47.402  1.00  0.00     0.217 C 
BRANCH  33  34
HETATM   34  C   UNL     1       3.030  31.437  47.240  1.00  0.00    -0.034 A 
HETATM   35  C   UNL     1       2.168  31.890  48.249  1.00  0.00     0.009 A 
HETATM   36  C   UNL     1       0.781  31.823  48.080  1.00  0.00     0.001 A 
HETATM   37  C   UNL     1       0.245  31.298  46.906  1.00  0.00     0.000 A 
HETATM   38  C   UNL     1       1.092  30.834  45.902  1.00  0.00     0.001 A 
HETATM   39  C   UNL     1       2.477  30.898  46.068  1.00  0.00     0.009 A 
ENDBRANCH  33  34
ENDBRANCH  32  33
ENDBRANCH  30  32
ENDBRANCH  10  30
TORSDOF 10
ENDMDL
MODEL 5
REMARK VINA RESULT:      -7.5      7.016     10.584
REMARK  10 active torsions:
REMARK  status: ('A' for Active; 'I' for Inactive)
REMARK    1  A    between atoms: C_6  and  C_7 
REMARK    2  A    between atoms: C_9  and  C_10 
REMARK    3  A    between atoms: C_10  and  C_11 
REMARK       I    between atoms: C_11  and  N_12 
REMARK    4  A    between atoms: N_12  and  C_13 
REMARK    5  A    between atoms: C_13  and  C_14 
REMARK    6  A    between atoms: C_14  and  N_15 
REMARK    7  A    between atoms: C_26  and  C_27 
REMARK    8  A    between atoms: C_27  and  O_28 
REMARK    9  A    between atoms: O_28  and  C_29 
REMARK   10  A    between atoms: C_29  and  C_30 
ROOT
HETATM    1  C   UNL     1       4.160  29.273  49.105  1.00  0.00     0.166 C 
HETATM    2  N   UNL     1       3.422  30.361  48.434  1.00  0.00    -0.318 N 
HETATM    3  C   UNL     1       3.722  31.511  47.924  1.00  0.00     0.011 C 
HETATM    4  C   UNL     1       1.977  29.960  48.028  1.00  0.00     0.170 C 
HETATM    5  S   UNL     1       1.036  31.347  47.578  1.00  0.00    -0.086 SA
HETATM    6  C   UNL     1       2.549  32.343  47.444  1.00  0.00     0.135 C 
HETATM    7  N   UNL     1       1.549  28.752  47.930  1.00  0.00    -0.229 NA
HETATM    8  C   UNL     1       2.481  27.737  48.051  1.00  0.00     0.048 C 
HETATM    9  C   UNL     1       2.004  26.411  47.507  1.00  0.00     0.071 C 
HETATM   10  C   UNL     1       3.719  27.948  48.548  1.00  0.00     0.069 C 
ENDROOT
BRANCH   3  11
HETATM   11  C   UNL     1       5.137  31.936  47.675  1.00  0.00     0.156 C 
BRANCH  11  12
HETATM   12  C   UNL     1       5.826  32.719  48.762  1.00  0.00     0.223 C 
HETATM   13  N   UNL     1       6.026  34.040  48.441  1.00  0.00    -0.359 N 
HETATM   14  H   UNL     1       5.770  34.340  47.501  1.00  0.00     0.162 HD
HETATM   15  O   UNL     1       6.200  32.207  49.811  1.00  0.00    -0.273 OA
BRANCH  13  16
HETATM   16  C   UNL     1       6.924  34.966  49.135  1.00  0.00     0.150 C 
BRANCH  16  17
HETATM   17  C   UNL     1       6.362  35.706  50.364  1.00  0.00     0.253 C 
BRANCH  17  18
HETATM   18  N   UNL     1       6.224  34.815  51.582  1.00  0.00    -0.077 N 
HETATM   19  H   UNL     1       6.606  33.886  51.317  1.00  0.00     0.279 HD
HETATM   20  C   UNL     1       7.008  35.283  52.778  1.00  0.00     0.269 C 
HETATM   21  C   UNL     1       4.780  34.600  51.943  1.00  0.00     0.269 C 
ENDBRANCH  17  18
ENDBRANCH  16  17
ENDBRANCH  13  16
ENDBRANCH  11  12
ENDBRANCH   3  11
BRANCH   1  22
HETATM   22  C   UNL     1       4.103  29.290  50.655  1.00  0.00    -0.024 C 
HETATM   23  C   UNL     1       2.975  29.056  51.483  1.00  0.00    -0.053 C 
HETATM   24  C   UNL     1       3.172  28.698  52.838  1.00  0.00     0.014 C 
HETATM   25  C   UNL     1       1.533  29.099  51.064  1.00  0.00     0.049 C 
HETATM   26  C   UNL     1       4.439  28.622  53.414  1.00  0.00    -0.061 C 
HETATM   27  C   UNL     1       4.622  28.087  54.805  1.00  0.00     0.048 C 
HETATM   28  C   UNL     1       5.533  28.996  52.647  1.00  0.00     0.007 C 
HETATM   29  C   UNL     1       5.365  29.339  51.302  1.00  0.00     0.011 C 
ENDBRANCH   1  22
BRANCH  10  30
HETATM   30  C   UNL     1       4.785  26.962  48.263  1.00  0.00     0.294 C 
HETATM   31  O   UNL     1       5.111  26.688  47.121  1.00  0.00    -0.259 OA
BRANCH  30  32
HETATM   32  O   UNL     1       5.394  26.570  49.397  1.00  0.00    -0.313 OA
BRANCH  32  33
HETATM   33  C   UNL     1       4.593  25.782  50.296  1.00  0.00     0.217 C 
BRANCH  33  34
HETATM   34  C   UNL     1       5.384  25.479  51.546  1.00  0.00    -0.034 A 
HETATM   35  C   UNL     1       6.768  25.701  51.591  1.00  0.00     0.009 A 
HETATM   36  C   UNL     1       7.490  25.444  52.760  1.00  0.00     0.001 A 
HETATM   37  C   UNL     1       6.838  24.958  53.892  1.00  0.00     0.000 A 
HETATM   38  C   UNL     1       5.465  24.723  53.855  1.00  0.00     0.001 A 
HETATM   39  C   UNL     1       4.742  24.977  52.688  1.00  0.00     0.009 A 
ENDBRANCH  33  34
ENDBRANCH  32  33
ENDBRANCH  30  32
ENDBRANCH  10  30
TORSDOF 10
ENDMDL
MODEL 6
REMARK VINA RESULT:      -7.5      5.902     10.973
REMARK  10 active torsions:
REMARK  status: ('A' for Active; 'I' for Inactive)
REMARK    1  A    between atoms: C_6  and  C_7 
REMARK    2  A    between atoms: C_9  and  C_10 
REMARK    3  A    between atoms: C_10  and  C_11 
REMARK       I    between atoms: C_11  and  N_12 
REMARK    4  A    between atoms: N_12  and  C_13 
REMARK    5  A    between atoms: C_13  and  C_14 
REMARK    6  A    between atoms: C_14  and  N_15 
REMARK    7  A    between atoms: C_26  and  C_27 
REMARK    8  A    between atoms: C_27  and  O_28 
REMARK    9  A    between atoms: O_28  and  C_29 
REMARK   10  A    between atoms: C_29  and  C_30 
ROOT
HETATM    1  C   UNL     1       4.597  35.391  63.073  1.00  0.00     0.166 C 
HETATM    2  N   UNL     1       5.535  34.434  63.690  1.00  0.00    -0.318 N 
HETATM    3  C   UNL     1       5.678  33.892  64.856  1.00  0.00     0.011 C 
HETATM    4  C   UNL     1       6.446  33.716  62.656  1.00  0.00     0.170 C 
HETATM    5  S   UNL     1       7.756  32.885  63.432  1.00  0.00    -0.086 SA
HETATM    6  C   UNL     1       6.915  33.035  65.035  1.00  0.00     0.135 C 
HETATM    7  N   UNL     1       6.213  33.649  61.394  1.00  0.00    -0.229 NA
HETATM    8  C   UNL     1       4.992  34.120  60.948  1.00  0.00     0.048 C 
HETATM    9  C   UNL     1       4.619  33.625  59.570  1.00  0.00     0.071 C 
HETATM   10  C   UNL     1       4.191  34.893  61.714  1.00  0.00     0.069 C 
ENDROOT
BRANCH   3  11
HETATM   11  C   UNL     1       4.620  33.970  65.914  1.00  0.00     0.156 C 
BRANCH  11  12
HETATM   12  C   UNL     1       5.079  34.100  67.343  1.00  0.00     0.223 C 
HETATM   13  N   UNL     1       6.288  34.740  67.472  1.00  0.00    -0.359 N 
HETATM   14  H   UNL     1       6.783  34.990  66.616  1.00  0.00     0.162 HD
HETATM   15  O   UNL     1       4.445  33.642  68.286  1.00  0.00    -0.273 OA
BRANCH  13  16
HETATM   16  C   UNL     1       7.134  34.745  68.668  1.00  0.00     0.150 C 
BRANCH  16  17
HETATM   17  C   UNL     1       6.511  35.283  69.970  1.00  0.00     0.253 C 
BRANCH  17  18
HETATM   18  N   UNL     1       7.537  35.558  71.050  1.00  0.00    -0.077 N 
HETATM   19  H   UNL     1       7.040  35.484  71.960  1.00  0.00     0.279 HD
HETATM   20  C   UNL     1       8.668  34.568  71.090  1.00  0.00     0.269 C 
HETATM   21  C   UNL     1       8.063  36.965  70.961  1.00  0.00     0.269 C 
ENDBRANCH  17  18
ENDBRANCH  16  17
ENDBRANCH  13  16
ENDBRANCH  11  12
ENDBRANCH   3  11
BRANCH   1  22
HETATM   22  C   UNL     1       5.088  36.861  63.020  1.00  0.00    -0.024 C 
HETATM   23  C   UNL     1       5.395  37.712  64.112  1.00  0.00    -0.053 C 
HETATM   24  C   UNL     1       6.212  38.849  63.897  1.00  0.00     0.014 C 
HETATM   25  C   UNL     1       4.980  37.519  65.543  1.00  0.00     0.049 C 
HETATM   26  C   UNL     1       6.682  39.202  62.633  1.00  0.00    -0.061 C 
HETATM   27  C   UNL     1       7.673  40.319  62.465  1.00  0.00     0.048 C 
HETATM   28  C   UNL     1       6.259  38.457  61.542  1.00  0.00     0.007 C 
HETATM   29  C   UNL     1       5.465  37.322  61.732  1.00  0.00     0.011 C 
ENDBRANCH   1  22
BRANCH  10  30
HETATM   30  C   UNL     1       2.757  35.005  61.368  1.00  0.00     0.294 C 
HETATM   31  O   UNL     1       1.976  34.093  61.578  1.00  0.00    -0.259 OA
BRANCH  30  32
HETATM   32  O   UNL     1       2.457  36.252  60.960  1.00  0.00    -0.313 OA
BRANCH  32  33
HETATM   33  C   UNL     1       2.271  36.419  59.543  1.00  0.00     0.217 C 
BRANCH  33  34
HETATM   34  C   UNL     1       3.222  37.473  59.029  1.00  0.00    -0.034 A 
HETATM   35  C   UNL     1       4.277  37.132  58.170  1.00  0.00     0.009 A 
HETATM   36  C   UNL     1       5.137  38.117  57.676  1.00  0.00     0.001 A 
HETATM   37  C   UNL     1       4.954  39.450  58.039  1.00  0.00     0.000 A 
HETATM   38  C   UNL     1       3.916  39.799  58.900  1.00  0.00     0.001 A 
HETATM   39  C   UNL     1       3.057  38.817  59.396  1.00  0.00     0.009 A 
ENDBRANCH  33  34
ENDBRANCH  32  33
ENDBRANCH  30  32
ENDBRANCH  10  30
TORSDOF 10
ENDMDL
MODEL 7
REMARK VINA RESULT:      -7.4      7.221     10.895
REMARK  10 active torsions:
REMARK  status: ('A' for Active; 'I' for Inactive)
REMARK    1  A    between atoms: C_6  and  C_7 
REMARK    2  A    between atoms: C_9  and  C_10 
REMARK    3  A    between atoms: C_10  and  C_11 
REMARK       I    between atoms: C_11  and  N_12 
REMARK    4  A    between atoms: N_12  and  C_13 
REMARK    5  A    between atoms: C_13  and  C_14 
REMARK    6  A    between atoms: C_14  and  N_15 
REMARK    7  A    between atoms: C_26  and  C_27 
REMARK    8  A    between atoms: C_27  and  O_28 
REMARK    9  A    between atoms: O_28  and  C_29 
REMARK   10  A    between atoms: C_29  and  C_30 
ROOT
HETATM    1  C   UNL     1       4.173  29.185  49.104  1.00  0.00     0.166 C 
HETATM    2  N   UNL     1       3.451  30.278  48.424  1.00  0.00    -0.318 N 
HETATM    3  C   UNL     1       3.773  31.407  47.881  1.00  0.00     0.011 C 
HETATM    4  C   UNL     1       1.986  29.912  48.062  1.00  0.00     0.170 C 
HETATM    5  S   UNL     1       1.075  31.315  47.601  1.00  0.00    -0.086 SA
HETATM    6  C   UNL     1       2.614  32.262  47.408  1.00  0.00     0.135 C 
HETATM    7  N   UNL     1       1.520  28.715  48.003  1.00  0.00    -0.229 NA
HETATM    8  C   UNL     1       2.424  27.676  48.126  1.00  0.00     0.048 C 
HETATM    9  C   UNL     1       1.896  26.352  47.625  1.00  0.00     0.071 C 
HETATM   10  C   UNL     1       3.680  27.860  48.589  1.00  0.00     0.069 C 
ENDROOT
BRANCH   3  11
HETATM   11  C   UNL     1       5.193  31.783  47.588  1.00  0.00     0.156 C 
BRANCH  11  12
HETATM   12  C   UNL     1       5.939  32.546  48.652  1.00  0.00     0.223 C 
HETATM   13  N   UNL     1       5.905  33.908  48.473  1.00  0.00    -0.359 N 
HETATM   14  H   UNL     1       5.460  34.261  47.627  1.00  0.00     0.162 HD
HETATM   15  O   UNL     1       6.545  31.992  49.562  1.00  0.00    -0.273 OA
BRANCH  13  16
HETATM   16  C   UNL     1       6.772  34.883  49.138  1.00  0.00     0.150 C 
BRANCH  16  17
HETATM   17  C   UNL     1       7.801  35.625  48.263  1.00  0.00     0.253 C 
BRANCH  17  18
HETATM   18  N   UNL     1       7.281  35.946  46.877  1.00  0.00    -0.077 N 
HETATM   19  H   UNL     1       6.691  35.142  46.586  1.00  0.00     0.279 HD
HETATM   20  C   UNL     1       6.409  37.170  46.815  1.00  0.00     0.269 C 
HETATM   21  C   UNL     1       8.404  36.040  45.879  1.00  0.00     0.269 C 
ENDBRANCH  17  18
ENDBRANCH  16  17
ENDBRANCH  13  16
ENDBRANCH  11  12
ENDBRANCH   3  11
BRANCH   1  22
HETATM   22  C   UNL     1       4.153  29.239  50.654  1.00  0.00    -0.024 C 
HETATM   23  C   UNL     1       3.038  29.065  51.513  1.00  0.00    -0.053 C 
HETATM   24  C   UNL     1       3.254  28.731  52.871  1.00  0.00     0.014 C 
HETATM   25  C   UNL     1       1.588  29.151  51.127  1.00  0.00     0.049 C 
HETATM   26  C   UNL     1       4.531  28.622  53.419  1.00  0.00    -0.061 C 
HETATM   27  C   UNL     1       4.727  28.112  54.818  1.00  0.00     0.048 C 
HETATM   28  C   UNL     1       5.619  28.939  52.619  1.00  0.00     0.007 C 
HETATM   29  C   UNL     1       5.431  29.256  51.270  1.00  0.00     0.011 C 
ENDBRANCH   1  22
BRANCH  10  30
HETATM   30  C   UNL     1       4.709  26.837  48.302  1.00  0.00     0.294 C 
HETATM   31  O   UNL     1       4.987  26.514  47.160  1.00  0.00    -0.259 OA
BRANCH  30  32
HETATM   32  O   UNL     1       5.347  26.468  49.428  1.00  0.00    -0.313 OA
BRANCH  32  33
HETATM   33  C   UNL     1       4.562  25.724  50.377  1.00  0.00     0.217 C 
BRANCH  33  34
HETATM   34  C   UNL     1       5.400  25.411  51.593  1.00  0.00    -0.034 A 
HETATM   35  C   UNL     1       6.795  25.550  51.559  1.00  0.00     0.009 A 
HETATM   36  C   UNL     1       7.563  25.285  52.697  1.00  0.00     0.001 A 
HETATM   37  C   UNL     1       6.944  24.874  53.877  1.00  0.00     0.000 A 
HETATM   38  C   UNL     1       5.560  24.722  53.919  1.00  0.00     0.001 A 
HETATM   39  C   UNL     1       4.792  24.984  52.784  1.00  0.00     0.009 A 
ENDBRANCH  33  34
ENDBRANCH  32  33
ENDBRANCH  30  32
ENDBRANCH  10  30
TORSDOF 10
ENDMDL
MODEL 8
REMARK VINA RESULT:      -7.3      4.024      8.090
REMARK  10 active torsions:
REMARK  status: ('A' for Active; 'I' for Inactive)
REMARK    1  A    between atoms: C_6  and  C_7 
REMARK    2  A    between atoms: C_9  and  C_10 
REMARK    3  A    between atoms: C_10  and  C_11 
REMARK       I    between atoms: C_11  and  N_12 
REMARK    4  A    between atoms: N_12  and  C_13 
REMARK    5  A    between atoms: C_13  and  C_14 
REMARK    6  A    between atoms: C_14  and  N_15 
REMARK    7  A    between atoms: C_26  and  C_27 
REMARK    8  A    between atoms: C_27  and  O_28 
REMARK    9  A    between atoms: O_28  and  C_29 
REMARK   10  A    between atoms: C_29  and  C_30 
ROOT
HETATM    1  C   UNL     1       5.671  34.103  61.470  1.00  0.00     0.166 C 
HETATM    2  N   UNL     1       5.024  34.779  62.612  1.00  0.00    -0.318 N 
HETATM    3  C   UNL     1       4.999  35.982  63.085  1.00  0.00     0.011 C 
HETATM    4  C   UNL     1       3.929  33.915  63.295  1.00  0.00     0.170 C 
HETATM    5  S   UNL     1       3.454  34.584  64.824  1.00  0.00    -0.086 SA
HETATM    6  C   UNL     1       4.260  36.156  64.397  1.00  0.00     0.135 C 
HETATM    7  N   UNL     1       3.361  32.892  62.763  1.00  0.00    -0.229 NA
HETATM    8  C   UNL     1       3.639  32.633  61.433  1.00  0.00     0.048 C 
HETATM    9  C   UNL     1       2.636  31.714  60.774  1.00  0.00     0.071 C 
HETATM   10  C   UNL     1       4.673  33.210  60.784  1.00  0.00     0.069 C 
ENDROOT
BRANCH   3  11
HETATM   11  C   UNL     1       5.522  37.159  62.321  1.00  0.00     0.156 C 
BRANCH  11  12
HETATM   12  C   UNL     1       4.560  37.876  61.410  1.00  0.00     0.223 C 
HETATM   13  N   UNL     1       4.141  37.113  60.347  1.00  0.00    -0.359 N 
HETATM   14  H   UNL     1       4.564  36.193  60.233  1.00  0.00     0.162 HD
HETATM   15  O   UNL     1       4.220  39.040  61.591  1.00  0.00    -0.273 OA
BRANCH  13  16
HETATM   16  C   UNL     1       3.470  37.610  59.145  1.00  0.00     0.150 C 
BRANCH  16  17
HETATM   17  C   UNL     1       2.183  36.886  58.704  1.00  0.00     0.253 C 
BRANCH  17  18
HETATM   18  N   UNL     1       2.385  35.996  57.496  1.00  0.00    -0.077 N 
HETATM   19  H   UNL     1       2.910  35.161  57.825  1.00  0.00     0.279 HD
HETATM   20  C   UNL     1       1.107  35.491  56.883  1.00  0.00     0.269 C 
HETATM   21  C   UNL     1       3.246  36.665  56.459  1.00  0.00     0.269 C 
ENDBRANCH  17  18
ENDBRANCH  16  17
ENDBRANCH  13  16
ENDBRANCH  11  12
ENDBRANCH   3  11
BRANCH   1  22
HETATM   22  C   UNL     1       6.982  33.344  61.804  1.00  0.00    -0.024 C 
HETATM   23  C   UNL     1       7.401  32.851  63.066  1.00  0.00    -0.053 C 
HETATM   24  C   UNL     1       8.391  31.841  63.122  1.00  0.00     0.014 C 
HETATM   25  C   UNL     1       6.863  33.256  64.409  1.00  0.00     0.049 C 
HETATM   26  C   UNL     1       9.020  31.348  61.980  1.00  0.00    -0.061 C 
HETATM   27  C   UNL     1       9.947  30.169  62.060  1.00  0.00     0.048 C 
HETATM   28  C   UNL     1       8.721  31.934  60.759  1.00  0.00     0.007 C 
HETATM   29  C   UNL     1       7.735  32.922  60.677  1.00  0.00     0.011 C 
ENDBRANCH   1  22
BRANCH  10  30
HETATM   30  C   UNL     1       4.669  33.238  59.305  1.00  0.00     0.294 C 
HETATM   31  O   UNL     1       4.656  34.288  58.686  1.00  0.00    -0.259 OA
BRANCH  30  32
HETATM   32  O   UNL     1       4.828  32.000  58.800  1.00  0.00    -0.313 OA
BRANCH  32  33
HETATM   33  C   UNL     1       5.851  31.860  57.798  1.00  0.00     0.217 C 
BRANCH  33  34
HETATM   34  C   UNL     1       6.278  30.415  57.709  1.00  0.00    -0.034 A 
HETATM   35  C   UNL     1       5.370  29.419  57.320  1.00  0.00     0.009 A 
HETATM   36  C   UNL     1       5.779  28.087  57.214  1.00  0.00     0.001 A 
HETATM   37  C   UNL     1       7.097  27.736  57.501  1.00  0.00     0.000 A 
HETATM   38  C   UNL     1       8.006  28.714  57.899  1.00  0.00     0.001 A 
HETATM   39  C   UNL     1       7.599  30.045  58.007  1.00  0.00     0.009 A 
ENDBRANCH  33  34
ENDBRANCH  32  33
ENDBRANCH  30  32
ENDBRANCH  10  30
TORSDOF 10
ENDMDL
MODEL 9
REMARK VINA RESULT:      -7.2      3.410      5.349
REMARK  10 active torsions:
REMARK  status: ('A' for Active; 'I' for Inactive)
REMARK    1  A    between atoms: C_6  and  C_7 
REMARK    2  A    between atoms: C_9  and  C_10 
REMARK    3  A    between atoms: C_10  and  C_11 
REMARK       I    between atoms: C_11  and  N_12 
REMARK    4  A    between atoms: N_12  and  C_13 
REMARK    5  A    between atoms: C_13  and  C_14 
REMARK    6  A    between atoms: C_14  and  N_15 
REMARK    7  A    between atoms: C_26  and  C_27 
REMARK    8  A    between atoms: C_27  and  O_28 
REMARK    9  A    between atoms: O_28  and  C_29 
REMARK   10  A    between atoms: C_29  and  C_30 
ROOT
HETATM    1  C   UNL     1       3.719  32.841  57.971  1.00  0.00     0.166 C 
HETATM    2  N   UNL     1       3.722  33.554  56.679  1.00  0.00    -0.318 N 
HETATM    3  C   UNL     1       3.095  33.440  55.553  1.00  0.00     0.011 C 
HETATM    4  C   UNL     1       4.486  34.906  56.727  1.00  0.00     0.170 C 
HETATM    5  S   UNL     1       4.773  35.531  55.134  1.00  0.00    -0.086 SA
HETATM    6  C   UNL     1       3.553  34.371  54.448  1.00  0.00     0.135 C 
HETATM    7  N   UNL     1       4.781  35.546  57.802  1.00  0.00    -0.229 NA
HETATM    8  C   UNL     1       4.251  35.071  58.988  1.00  0.00     0.048 C 
HETATM    9  C   UNL     1       4.274  36.084  60.109  1.00  0.00     0.071 C 
HETATM   10  C   UNL     1       3.707  33.839  59.096  1.00  0.00     0.069 C 
ENDROOT
BRANCH   3  11
HETATM   11  C   UNL     1       1.892  32.562  55.388  1.00  0.00     0.156 C 
BRANCH  11  12
HETATM   12  C   UNL     1       0.552  33.240  55.278  1.00  0.00     0.223 C 
HETATM   13  N   UNL     1      -0.255  32.700  54.305  1.00  0.00    -0.359 N 
HETATM   14  H   UNL     1       0.141  31.968  53.717  1.00  0.00     0.162 HD
HETATM   15  O   UNL     1       0.238  34.202  55.969  1.00  0.00    -0.273 OA
BRANCH  13  16
HETATM   16  C   UNL     1      -1.463  33.317  53.752  1.00  0.00     0.150 C 
BRANCH  16  17
HETATM   17  C   UNL     1      -2.820  32.750  54.211  1.00  0.00     0.253 C 
BRANCH  17  18
HETATM   18  N   UNL     1      -3.627  33.732  55.034  1.00  0.00    -0.077 N 
HETATM   19  H   UNL     1      -4.612  33.651  54.715  1.00  0.00     0.279 HD
HETATM   20  C   UNL     1      -3.624  33.445  56.511  1.00  0.00     0.269 C 
HETATM   21  C   UNL     1      -3.202  35.151  54.766  1.00  0.00     0.269 C 
ENDBRANCH  17  18
ENDBRANCH  16  17
ENDBRANCH  13  16
ENDBRANCH  11  12
ENDBRANCH   3  11
BRANCH   1  22
HETATM   22  C   UNL     1       4.845  31.790  58.151  1.00  0.00    -0.024 C 
HETATM   23  C   UNL     1       4.994  30.554  57.472  1.00  0.00    -0.053 C 
HETATM   24  C   UNL     1       6.263  29.926  57.443  1.00  0.00     0.014 C 
HETATM   25  C   UNL     1       3.931  29.820  56.705  1.00  0.00     0.049 C 
HETATM   26  C   UNL     1       7.369  30.448  58.111  1.00  0.00    -0.061 C 
HETATM   27  C   UNL     1       8.732  29.845  57.930  1.00  0.00     0.048 C 
HETATM   28  C   UNL     1       7.190  31.576  58.899  1.00  0.00     0.007 C 
HETATM   29  C   UNL     1       5.950  32.222  58.930  1.00  0.00     0.011 C 
ENDBRANCH   1  22
BRANCH  10  30
HETATM   30  C   UNL     1       2.796  33.552  60.226  1.00  0.00     0.294 C 
HETATM   31  O   UNL     1       1.609  33.825  60.173  1.00  0.00    -0.259 OA
BRANCH  30  32
HETATM   32  O   UNL     1       3.426  32.849  61.184  1.00  0.00    -0.313 OA
BRANCH  32  33
HETATM   33  C   UNL     1       3.447  33.451  62.491  1.00  0.00     0.217 C 
BRANCH  33  34
HETATM   34  C   UNL     1       4.846  33.387  63.056  1.00  0.00    -0.034 A 
HETATM   35  C   UNL     1       5.073  33.538  64.432  1.00  0.00     0.009 A 
HETATM   36  C   UNL     1       6.368  33.450  64.951  1.00  0.00     0.001 A 
HETATM   37  C   UNL     1       7.447  33.216  64.101  1.00  0.00     0.000 A 
HETATM   38  C   UNL     1       7.235  33.075  62.731  1.00  0.00     0.001 A 
HETATM   39  C   UNL     1       5.943  33.164  62.210  1.00  0.00     0.009 A 
ENDBRANCH  33  34
ENDBRANCH  32  33
ENDBRANCH  30  32
ENDBRANCH  10  30
TORSDOF 10
ENDMDL
MODEL 10
REMARK VINA RESULT:      -7.0      8.198     11.589
REMARK  10 active torsions:
REMARK  status: ('A' for Active; 'I' for Inactive)
REMARK    1  A    between atoms: C_6  and  C_7 
REMARK    2  A    between atoms: C_9  and  C_10 
REMARK    3  A    between atoms: C_10  and  C_11 
REMARK       I    between atoms: C_11  and  N_12 
REMARK    4  A    between atoms: N_12  and  C_13 
REMARK    5  A    between atoms: C_13  and  C_14 
REMARK    6  A    between atoms: C_14  and  N_15 
REMARK    7  A    between atoms: C_26  and  C_27 
REMARK    8  A    between atoms: C_27  and  O_28 
REMARK    9  A    between atoms: O_28  and  C_29 
REMARK   10  A    between atoms: C_29  and  C_30 
ROOT
HETATM    1  C   UNL     1       4.126  29.535  47.988  1.00  0.00     0.166 C 
HETATM    2  N   UNL     1       3.408  30.319  46.964  1.00  0.00    -0.318 N 
HETATM    3  C   UNL     1       3.729  31.207  46.080  1.00  0.00     0.011 C 
HETATM    4  C   UNL     1       1.959  29.819  46.713  1.00  0.00     0.170 C 
HETATM    5  S   UNL     1       1.042  30.964  45.788  1.00  0.00    -0.086 SA
HETATM    6  C   UNL     1       2.572  31.827  45.322  1.00  0.00     0.135 C 
HETATM    7  N   UNL     1       1.512  28.661  47.050  1.00  0.00    -0.229 NA
HETATM    8  C   UNL     1       2.428  27.745  47.535  1.00  0.00     0.048 C 
HETATM    9  C   UNL     1       1.933  26.318  47.497  1.00  0.00     0.071 C 
HETATM   10  C   UNL     1       3.667  28.103  47.937  1.00  0.00     0.069 C 
ENDROOT
BRANCH   3  11
HETATM   11  C   UNL     1       5.152  31.496  45.710  1.00  0.00     0.156 C 
BRANCH  11  12
HETATM   12  C   UNL     1       5.561  32.943  45.614  1.00  0.00     0.223 C 
HETATM   13  N   UNL     1       5.243  33.675  46.732  1.00  0.00    -0.359 N 
HETATM   14  H   UNL     1       4.711  33.209  47.466  1.00  0.00     0.162 HD
HETATM   15  O   UNL     1       6.090  33.416  44.616  1.00  0.00    -0.273 OA
BRANCH  13  16
HETATM   16  C   UNL     1       5.224  35.137  46.825  1.00  0.00     0.150 C 
BRANCH  16  17
HETATM   17  C   UNL     1       6.492  35.827  47.365  1.00  0.00     0.253 C 
BRANCH  17  18
HETATM   18  N   UNL     1       7.765  35.320  46.721  1.00  0.00    -0.077 N 
HETATM   19  H   UNL     1       7.568  34.355  46.389  1.00  0.00     0.279 HD
HETATM   20  C   UNL     1       8.204  36.111  45.519  1.00  0.00     0.269 C 
HETATM   21  C   UNL     1       8.882  35.211  47.724  1.00  0.00     0.269 C 
ENDBRANCH  17  18
ENDBRANCH  16  17
ENDBRANCH  13  16
ENDBRANCH  11  12
ENDBRANCH   3  11
BRANCH   1  22
HETATM   22  C   UNL     1       4.060  30.105  49.428  1.00  0.00    -0.024 C 
HETATM   23  C   UNL     1       4.864  31.128  49.993  1.00  0.00    -0.053 C 
HETATM   24  C   UNL     1       4.411  31.808  51.149  1.00  0.00     0.014 C 
HETATM   25  C   UNL     1       6.176  31.632  49.461  1.00  0.00     0.049 C 
HETATM   26  C   UNL     1       3.223  31.471  51.796  1.00  0.00    -0.061 C 
HETATM   27  C   UNL     1       2.694  32.313  52.921  1.00  0.00     0.048 C 
HETATM   28  C   UNL     1       2.511  30.373  51.334  1.00  0.00     0.007 C 
HETATM   29  C   UNL     1       2.931  29.696  50.185  1.00  0.00     0.011 C 
ENDBRANCH   1  22
BRANCH  10  30
HETATM   30  C   UNL     1       4.719  27.067  48.034  1.00  0.00     0.294 C 
HETATM   31  O   UNL     1       5.552  26.920  47.157  1.00  0.00    -0.259 OA
BRANCH  30  32
HETATM   32  O   UNL     1       4.693  26.467  49.238  1.00  0.00    -0.313 OA
BRANCH  32  33
HETATM   33  C   UNL     1       5.488  27.088  50.264  1.00  0.00     0.217 C 
BRANCH  33  34
HETATM   34  C   UNL     1       5.717  26.108  51.389  1.00  0.00    -0.034 A 
HETATM   35  C   UNL     1       6.934  25.418  51.505  1.00  0.00     0.009 A 
HETATM   36  C   UNL     1       7.150  24.532  52.564  1.00  0.00     0.001 A 
HETATM   37  C   UNL     1       6.152  24.323  53.514  1.00  0.00     0.000 A 
HETATM   38  C   UNL     1       4.935  24.993  53.403  1.00  0.00     0.001 A 
HETATM   39  C   UNL     1       4.717  25.877  52.345  1.00  0.00     0.009 A 
ENDBRANCH  33  34
ENDBRANCH  32  33
ENDBRANCH  30  32
ENDBRANCH  10  30
TORSDOF 10
ENDMDL
