MODEL 1
REMARK VINA RESULT:     -12.2      0.000      0.000
REMARK  4 active torsions:
REMARK  status: ('A' for Active; 'I' for Inactive)
REMARK    1  A    between atoms: C_2  and  C_3 
REMARK    2  A    between atoms: N_16  and  C_17 
REMARK    3  A    between atoms: C_17  and  C_18 
REMARK       I    between atoms: C_18  and  N_19 
REMARK    4  A    between atoms: N_19  and  C_20 
ROOT
HETATM    1  C   UNL     1       5.959  28.446  55.791  1.00  0.00     0.054 C 
HETATM    2  C   UNL     1       7.410  27.968  55.856  1.00  0.00     0.140 C 
HETATM    3  N   UNL     1       8.198  28.697  54.882  1.00  0.00    -0.321 N 
HETATM    4  C   UNL     1       9.302  29.291  55.443  1.00  0.00     0.326 C 
HETATM    5  O   UNL     1      10.199  29.795  54.791  1.00  0.00    -0.247 OA
HETATM    6  N   UNL     1       9.213  29.187  56.794  1.00  0.00    -0.259 N 
HETATM    7  C   UNL     1       8.100  28.478  57.147  1.00  0.00     0.261 C 
HETATM    8  O   UNL     1       7.737  28.255  58.296  1.00  0.00    -0.270 OA
HETATM    9  H   UNL     1       8.128  28.584  53.880  1.00  0.00     0.165 HD
ENDROOT
BRANCH   6  10
HETATM   10  C   UNL     1      10.244  29.639  57.702  1.00  0.00     0.240 C 
BRANCH  10  11
HETATM   11  C   UNL     1       9.784  30.804  58.574  1.00  0.00     0.240 C 
HETATM   12  N   UNL     1       8.965  30.444  59.625  1.00  0.00    -0.324 N 
HETATM   13  H   UNL     1       8.889  29.456  59.872  1.00  0.00     0.169 HD
HETATM   14  O   UNL     1      10.245  31.930  58.389  1.00  0.00    -0.271 OA
BRANCH  12  15
HETATM   15  C   UNL     1       8.405  31.313  60.598  1.00  0.00     0.064 A 
HETATM   16  C   UNL     1       7.205  31.957  60.254  1.00  0.00     0.093 A 
HETATM   17  C   UNL     1       6.604  32.810  61.208  1.00  0.00    -0.005 A 
HETATM   18  N   UNL     1       6.641  31.738  59.043  1.00  0.00    -0.258 NA
HETATM   19  C   UNL     1       5.390  33.426  60.879  1.00  0.00     0.015 A 
HETATM   20  C   UNL     1       7.209  33.024  62.456  1.00  0.00     0.014 A 
HETATM   21  C   UNL     1       4.807  33.189  59.641  1.00  0.00     0.020 A 
HETATM   22  C   UNL     1       5.466  32.347  58.766  1.00  0.00     0.117 A 
HETATM   23  C   UNL     1       8.408  32.395  62.769  1.00  0.00     0.003 A 
HETATM   24  C   UNL     1       9.004  31.541  61.844  1.00  0.00     0.032 A 
ENDBRANCH  12  15
ENDBRANCH  10  11
ENDBRANCH   6  10
BRANCH   2  25
HETATM   25  C   UNL     1       7.578  26.451  55.719  1.00  0.00    -0.020 A 
HETATM   26  C   UNL     1       7.500  25.798  54.471  1.00  0.00     0.022 A 
HETATM   27  C   UNL     1       7.682  24.408  54.338  1.00  0.00    -0.025 A 
HETATM   28  C   UNL     1       7.955  23.636  55.484  1.00  0.00    -0.026 A 
HETATM   29  C   UNL     1       7.604  23.774  53.086  1.00  0.00     0.012 A 
HETATM   30  C   UNL     1       8.049  24.275  56.728  1.00  0.00     0.013 A 
HETATM   31  C   UNL     1       8.138  22.248  55.353  1.00  0.00     0.012 A 
HETATM   32  C   UNL     1       7.872  25.659  56.841  1.00  0.00     0.011 A 
HETATM   33  C   UNL     1       8.054  21.633  54.103  1.00  0.00     0.001 A 
HETATM   34  C   UNL     1       7.788  22.396  52.969  1.00  0.00     0.001 A 
ENDBRANCH   2  25
TORSDOF 4
ENDMDL
MODEL 2
REMARK VINA RESULT:     -11.9      1.469      2.904
REMARK  4 active torsions:
REMARK  status: ('A' for Active; 'I' for Inactive)
REMARK    1  A    between atoms: C_2  and  C_3 
REMARK    2  A    between atoms: N_16  and  C_17 
REMARK    3  A    between atoms: C_17  and  C_18 
REMARK       I    between atoms: C_18  and  N_19 
REMARK    4  A    between atoms: N_19  and  C_20 
ROOT
HETATM    1  C   UNL     1       5.277  25.419  57.033  1.00  0.00     0.054 C 
HETATM    2  C   UNL     1       6.503  25.762  56.186  1.00  0.00     0.140 C 
HETATM    3  N   UNL     1       6.226  26.949  55.402  1.00  0.00    -0.321 N 
HETATM    4  C   UNL     1       7.177  27.924  55.576  1.00  0.00     0.326 C 
HETATM    5  O   UNL     1       7.252  28.924  54.885  1.00  0.00    -0.247 OA
HETATM    6  N   UNL     1       7.994  27.558  56.598  1.00  0.00    -0.259 N 
HETATM    7  C   UNL     1       7.643  26.325  57.072  1.00  0.00     0.261 C 
HETATM    8  O   UNL     1       8.174  25.752  58.016  1.00  0.00    -0.270 OA
HETATM    9  H   UNL     1       5.584  26.991  54.622  1.00  0.00     0.165 HD
ENDROOT
BRANCH   6  10
HETATM   10  C   UNL     1       9.156  28.315  57.007  1.00  0.00     0.240 C 
BRANCH  10  11
HETATM   11  C   UNL     1       8.793  29.695  57.547  1.00  0.00     0.240 C 
HETATM   12  N   UNL     1       7.631  29.731  58.292  1.00  0.00    -0.324 N 
HETATM   13  H   UNL     1       7.218  28.849  58.599  1.00  0.00     0.169 HD
HETATM   14  O   UNL     1       9.577  30.634  57.413  1.00  0.00    -0.271 OA
BRANCH  12  15
HETATM   15  C   UNL     1       7.064  30.870  58.924  1.00  0.00     0.064 A 
HETATM   16  C   UNL     1       7.570  31.207  60.189  1.00  0.00     0.093 A 
HETATM   17  C   UNL     1       7.048  32.351  60.837  1.00  0.00    -0.005 A 
HETATM   18  N   UNL     1       8.549  30.458  60.751  1.00  0.00    -0.258 NA
HETATM   19  C   UNL     1       7.576  32.709  62.084  1.00  0.00     0.015 A 
HETATM   20  C   UNL     1       6.032  33.109  60.236  1.00  0.00     0.014 A 
HETATM   21  C   UNL     1       8.589  31.946  62.651  1.00  0.00     0.020 A 
HETATM   22  C   UNL     1       9.035  30.841  61.953  1.00  0.00     0.117 A 
HETATM   23  C   UNL     1       5.529  32.746  58.993  1.00  0.00     0.003 A 
HETATM   24  C   UNL     1       6.043  31.629  58.337  1.00  0.00     0.032 A 
ENDBRANCH  12  15
ENDBRANCH  10  11
ENDBRANCH   6  10
BRANCH   2  25
HETATM   25  C   UNL     1       7.014  24.603  55.322  1.00  0.00    -0.020 A 
HETATM   26  C   UNL     1       7.338  23.345  55.874  1.00  0.00     0.022 A 
HETATM   27  C   UNL     1       7.781  22.270  55.080  1.00  0.00    -0.025 A 
HETATM   28  C   UNL     1       7.905  22.446  53.688  1.00  0.00    -0.026 A 
HETATM   29  C   UNL     1       8.096  21.023  55.645  1.00  0.00     0.012 A 
HETATM   30  C   UNL     1       7.574  23.687  53.127  1.00  0.00     0.013 A 
HETATM   31  C   UNL     1       8.347  21.373  52.894  1.00  0.00     0.012 A 
HETATM   32  C   UNL     1       7.128  24.743  53.930  1.00  0.00     0.011 A 
HETATM   33  C   UNL     1       8.659  20.141  53.471  1.00  0.00     0.001 A 
HETATM   34  C   UNL     1       8.533  19.965  54.846  1.00  0.00     0.001 A 
ENDBRANCH   2  25
TORSDOF 4
ENDMDL
MODEL 3
REMARK VINA RESULT:     -11.5      5.459      9.304
REMARK  4 active torsions:
REMARK  status: ('A' for Active; 'I' for Inactive)
REMARK    1  A    between atoms: C_2  and  C_3 
REMARK    2  A    between atoms: N_16  and  C_17 
REMARK    3  A    between atoms: C_17  and  C_18 
REMARK       I    between atoms: C_18  and  N_19 
REMARK    4  A    between atoms: N_19  and  C_20 
ROOT
HETATM    1  C   UNL     1       6.649  27.271  56.123  1.00  0.00     0.054 C 
HETATM    2  C   UNL     1       6.184  26.889  54.717  1.00  0.00     0.140 C 
HETATM    3  N   UNL     1       4.741  26.993  54.646  1.00  0.00    -0.321 N 
HETATM    4  C   UNL     1       4.325  27.786  53.604  1.00  0.00     0.326 C 
HETATM    5  O   UNL     1       3.166  27.867  53.240  1.00  0.00    -0.247 OA
HETATM    6  N   UNL     1       5.409  28.407  53.070  1.00  0.00    -0.259 N 
HETATM    7  C   UNL     1       6.552  27.996  53.696  1.00  0.00     0.261 C 
HETATM    8  O   UNL     1       7.679  28.412  53.457  1.00  0.00    -0.270 OA
HETATM    9  H   UNL     1       4.092  26.371  55.109  1.00  0.00     0.165 HD
ENDROOT
BRANCH   6  10
HETATM   10  C   UNL     1       5.350  29.262  51.905  1.00  0.00     0.240 C 
BRANCH  10  11
HETATM   11  C   UNL     1       5.159  28.474  50.613  1.00  0.00     0.240 C 
HETATM   12  N   UNL     1       3.864  28.052  50.386  1.00  0.00    -0.324 N 
HETATM   13  H   UNL     1       3.113  28.446  50.953  1.00  0.00     0.169 HD
HETATM   14  O   UNL     1       6.087  28.370  49.812  1.00  0.00    -0.271 OA
BRANCH  12  15
HETATM   15  C   UNL     1       3.397  27.316  49.264  1.00  0.00     0.064 A 
HETATM   16  C   UNL     1       2.398  27.921  48.484  1.00  0.00     0.093 A 
HETATM   17  C   UNL     1       1.927  27.229  47.344  1.00  0.00    -0.005 A 
HETATM   18  N   UNL     1       1.924  29.145  48.817  1.00  0.00    -0.258 NA
HETATM   19  C   UNL     1       0.955  27.846  46.545  1.00  0.00     0.015 A 
HETATM   20  C   UNL     1       2.431  25.960  47.021  1.00  0.00     0.014 A 
HETATM   21  C   UNL     1       0.481  29.107  46.882  1.00  0.00     0.020 A 
HETATM   22  C   UNL     1       0.991  29.708  48.017  1.00  0.00     0.117 A 
HETATM   23  C   UNL     1       3.403  25.369  47.818  1.00  0.00     0.003 A 
HETATM   24  C   UNL     1       3.886  26.045  48.937  1.00  0.00     0.032 A 
ENDBRANCH  12  15
ENDBRANCH  10  11
ENDBRANCH   6  10
BRANCH   2  25
HETATM   25  C   UNL     1       6.692  25.525  54.237  1.00  0.00    -0.020 A 
HETATM   26  C   UNL     1       6.885  24.444  55.123  1.00  0.00     0.022 A 
HETATM   27  C   UNL     1       7.325  23.181  54.682  1.00  0.00    -0.025 A 
HETATM   28  C   UNL     1       7.580  22.980  53.310  1.00  0.00    -0.026 A 
HETATM   29  C   UNL     1       7.509  22.114  55.578  1.00  0.00     0.012 A 
HETATM   30  C   UNL     1       7.379  24.043  52.419  1.00  0.00     0.013 A 
HETATM   31  C   UNL     1       8.018  21.720  52.869  1.00  0.00     0.012 A 
HETATM   32  C   UNL     1       6.935  25.290  52.874  1.00  0.00     0.011 A 
HETATM   33  C   UNL     1       8.198  20.671  53.771  1.00  0.00     0.001 A 
HETATM   34  C   UNL     1       7.943  20.867  55.125  1.00  0.00     0.001 A 
ENDBRANCH   2  25
TORSDOF 4
ENDMDL
MODEL 4
REMARK VINA RESULT:     -11.3      4.352      7.989
REMARK  4 active torsions:
REMARK  status: ('A' for Active; 'I' for Inactive)
REMARK    1  A    between atoms: C_2  and  C_3 
REMARK    2  A    between atoms: N_16  and  C_17 
REMARK    3  A    between atoms: C_17  and  C_18 
REMARK       I    between atoms: C_18  and  N_19 
REMARK    4  A    between atoms: N_19  and  C_20 
ROOT
HETATM    1  C   UNL     1       8.579  26.920  57.007  1.00  0.00     0.054 C 
HETATM    2  C   UNL     1       7.417  26.683  56.042  1.00  0.00     0.140 C 
HETATM    3  N   UNL     1       6.168  26.742  56.773  1.00  0.00    -0.321 N 
HETATM    4  C   UNL     1       5.280  27.632  56.220  1.00  0.00     0.326 C 
HETATM    5  O   UNL     1       4.111  27.711  56.551  1.00  0.00    -0.247 OA
HETATM    6  N   UNL     1       5.922  28.348  55.261  1.00  0.00    -0.259 N 
HETATM    7  C   UNL     1       7.209  27.911  55.119  1.00  0.00     0.261 C 
HETATM    8  O   UNL     1       8.040  28.392  54.358  1.00  0.00    -0.270 OA
HETATM    9  H   UNL     1       5.853  26.048  57.438  1.00  0.00     0.165 HD
ENDROOT
BRANCH   6  10
HETATM   10  C   UNL     1       5.269  29.326  54.419  1.00  0.00     0.240 C 
BRANCH  10  11
HETATM   11  C   UNL     1       4.628  28.699  53.185  1.00  0.00     0.240 C 
HETATM   12  N   UNL     1       5.500  28.473  52.139  1.00  0.00    -0.324 N 
HETATM   13  H   UNL     1       6.503  28.539  52.314  1.00  0.00     0.169 HD
HETATM   14  O   UNL     1       3.457  28.322  53.225  1.00  0.00    -0.271 OA
BRANCH  12  15
HETATM   15  C   UNL     1       5.183  27.891  50.882  1.00  0.00     0.064 A 
HETATM   16  C   UNL     1       5.019  28.773  49.802  1.00  0.00     0.093 A 
HETATM   17  C   UNL     1       4.728  28.227  48.530  1.00  0.00    -0.005 A 
HETATM   18  N   UNL     1       5.161  30.107  49.986  1.00  0.00    -0.258 NA
HETATM   19  C   UNL     1       4.599  29.103  47.444  1.00  0.00     0.015 A 
HETATM   20  C   UNL     1       4.583  26.842  48.364  1.00  0.00     0.014 A 
HETATM   21  C   UNL     1       4.758  30.469  47.634  1.00  0.00     0.020 A 
HETATM   22  C   UNL     1       5.034  30.917  48.911  1.00  0.00     0.117 A 
HETATM   23  C   UNL     1       4.727  25.987  49.451  1.00  0.00     0.003 A 
HETATM   24  C   UNL     1       5.027  26.510  50.707  1.00  0.00     0.032 A 
ENDBRANCH  12  15
ENDBRANCH  10  11
ENDBRANCH   6  10
BRANCH   2  25
HETATM   25  C   UNL     1       7.543  25.401  55.210  1.00  0.00    -0.020 A 
HETATM   26  C   UNL     1       7.644  24.128  55.809  1.00  0.00     0.022 A 
HETATM   27  C   UNL     1       7.732  22.946  55.049  1.00  0.00    -0.025 A 
HETATM   28  C   UNL     1       7.715  23.028  53.642  1.00  0.00    -0.026 A 
HETATM   29  C   UNL     1       7.829  21.685  55.662  1.00  0.00     0.012 A 
HETATM   30  C   UNL     1       7.601  24.286  53.037  1.00  0.00     0.013 A 
HETATM   31  C   UNL     1       7.802  21.848  52.882  1.00  0.00     0.012 A 
HETATM   32  C   UNL     1       7.508  25.451  53.807  1.00  0.00     0.011 A 
HETATM   33  C   UNL     1       7.900  20.604  53.506  1.00  0.00     0.001 A 
HETATM   34  C   UNL     1       7.913  20.521  54.895  1.00  0.00     0.001 A 
ENDBRANCH   2  25
TORSDOF 4
ENDMDL
MODEL 5
REMARK VINA RESULT:     -11.2      1.577      2.657
REMARK  4 active torsions:
REMARK  status: ('A' for Active; 'I' for Inactive)
REMARK    1  A    between atoms: C_2  and  C_3 
REMARK    2  A    between atoms: N_16  and  C_17 
REMARK    3  A    between atoms: C_17  and  C_18 
REMARK       I    between atoms: C_18  and  N_19 
REMARK    4  A    between atoms: N_19  and  C_20 
ROOT
HETATM    1  C   UNL     1       6.468  26.626  52.187  1.00  0.00     0.054 C 
HETATM    2  C   UNL     1       6.871  26.610  53.662  1.00  0.00     0.140 C 
HETATM    3  N   UNL     1       7.950  27.553  53.873  1.00  0.00    -0.321 N 
HETATM    4  C   UNL     1       7.673  28.449  54.877  1.00  0.00     0.326 C 
HETATM    5  O   UNL     1       8.499  29.207  55.351  1.00  0.00    -0.247 OA
HETATM    6  N   UNL     1       6.370  28.310  55.237  1.00  0.00    -0.259 N 
HETATM    7  C   UNL     1       5.787  27.293  54.535  1.00  0.00     0.261 C 
HETATM    8  O   UNL     1       4.611  26.959  54.617  1.00  0.00    -0.270 OA
HETATM    9  H   UNL     1       8.897  27.434  53.538  1.00  0.00     0.165 HD
ENDROOT
BRANCH   6  10
HETATM   10  C   UNL     1       5.755  29.044  56.320  1.00  0.00     0.240 C 
BRANCH  10  11
HETATM   11  C   UNL     1       6.727  29.322  57.462  1.00  0.00     0.240 C 
HETATM   12  N   UNL     1       6.911  30.661  57.745  1.00  0.00    -0.324 N 
HETATM   13  H   UNL     1       6.266  31.341  57.340  1.00  0.00     0.169 HD
HETATM   14  O   UNL     1       7.175  28.389  58.129  1.00  0.00    -0.271 OA
BRANCH  12  15
HETATM   15  C   UNL     1       7.742  31.206  58.760  1.00  0.00     0.064 A 
HETATM   16  C   UNL     1       7.104  31.940  59.772  1.00  0.00     0.093 A 
HETATM   17  C   UNL     1       7.897  32.476  60.813  1.00  0.00    -0.005 A 
HETATM   18  N   UNL     1       5.760  32.104  59.748  1.00  0.00    -0.258 NA
HETATM   19  C   UNL     1       7.258  33.180  61.842  1.00  0.00     0.015 A 
HETATM   20  C   UNL     1       9.289  32.297  60.815  1.00  0.00     0.014 A 
HETATM   21  C   UNL     1       5.878  33.334  61.822  1.00  0.00     0.020 A 
HETATM   22  C   UNL     1       5.181  32.784  60.763  1.00  0.00     0.117 A 
HETATM   23  C   UNL     1       9.904  31.585  59.792  1.00  0.00     0.003 A 
HETATM   24  C   UNL     1       9.133  31.040  58.767  1.00  0.00     0.032 A 
ENDBRANCH  12  15
ENDBRANCH  10  11
ENDBRANCH   6  10
BRANCH   2  25
HETATM   25  C   UNL     1       7.202  25.217  54.207  1.00  0.00    -0.020 A 
HETATM   26  C   UNL     1       7.362  24.100  53.360  1.00  0.00     0.022 A 
HETATM   27  C   UNL     1       7.694  22.824  53.855  1.00  0.00    -0.025 A 
HETATM   28  C   UNL     1       7.877  22.649  55.241  1.00  0.00    -0.026 A 
HETATM   29  C   UNL     1       7.853  21.723  52.997  1.00  0.00     0.012 A 
HETATM   30  C   UNL     1       7.733  23.754  56.091  1.00  0.00     0.013 A 
HETATM   31  C   UNL     1       8.209  21.375  55.737  1.00  0.00     0.012 A 
HETATM   32  C   UNL     1       7.410  25.017  55.581  1.00  0.00     0.011 A 
HETATM   33  C   UNL     1       8.361  20.291  54.871  1.00  0.00     0.001 A 
HETATM   34  C   UNL     1       8.185  20.464  53.502  1.00  0.00     0.001 A 
ENDBRANCH   2  25
TORSDOF 4
ENDMDL
MODEL 6
REMARK VINA RESULT:     -10.7      2.072      3.480
REMARK  4 active torsions:
REMARK  status: ('A' for Active; 'I' for Inactive)
REMARK    1  A    between atoms: C_2  and  C_3 
REMARK    2  A    between atoms: N_16  and  C_17 
REMARK    3  A    between atoms: C_17  and  C_18 
REMARK       I    between atoms: C_18  and  N_19 
REMARK    4  A    between atoms: N_19  and  C_20 
ROOT
HETATM    1  C   UNL     1       6.138  28.171  52.591  1.00  0.00     0.054 C 
HETATM    2  C   UNL     1       6.854  27.592  53.811  1.00  0.00     0.140 C 
HETATM    3  N   UNL     1       7.998  28.420  54.133  1.00  0.00    -0.321 N 
HETATM    4  C   UNL     1       7.992  28.834  55.442  1.00  0.00     0.326 C 
HETATM    5  O   UNL     1       8.939  29.378  55.981  1.00  0.00    -0.247 OA
HETATM    6  N   UNL     1       6.796  28.507  55.997  1.00  0.00    -0.259 N 
HETATM    7  C   UNL     1       6.023  27.826  55.099  1.00  0.00     0.261 C 
HETATM    8  O   UNL     1       4.880  27.436  55.301  1.00  0.00    -0.270 OA
HETATM    9  H   UNL     1       8.841  28.484  53.577  1.00  0.00     0.165 HD
ENDROOT
BRANCH   6  10
HETATM   10  C   UNL     1       6.470  28.727  57.388  1.00  0.00     0.240 C 
BRANCH  10  11
HETATM   11  C   UNL     1       5.504  29.891  57.585  1.00  0.00     0.240 C 
HETATM   12  N   UNL     1       6.110  31.126  57.698  1.00  0.00    -0.324 N 
HETATM   13  H   UNL     1       7.096  31.213  57.449  1.00  0.00     0.169 HD
HETATM   14  O   UNL     1       4.290  29.703  57.505  1.00  0.00    -0.271 OA
BRANCH  12  15
HETATM   15  C   UNL     1       5.460  32.377  57.873  1.00  0.00     0.064 A 
HETATM   16  C   UNL     1       5.325  32.840  59.191  1.00  0.00     0.093 A 
HETATM   17  C   UNL     1       4.705  34.093  59.402  1.00  0.00    -0.005 A 
HETATM   18  N   UNL     1       5.800  32.102  60.223  1.00  0.00    -0.258 NA
HETATM   19  C   UNL     1       4.600  34.573  60.714  1.00  0.00     0.015 A 
HETATM   20  C   UNL     1       4.216  34.839  58.318  1.00  0.00     0.014 A 
HETATM   21  C   UNL     1       5.101  33.820  61.768  1.00  0.00     0.020 A 
HETATM   22  C   UNL     1       5.685  32.603  61.473  1.00  0.00     0.117 A 
HETATM   23  C   UNL     1       4.340  34.353  57.022  1.00  0.00     0.003 A 
HETATM   24  C   UNL     1       4.961  33.125  56.799  1.00  0.00     0.032 A 
ENDBRANCH  12  15
ENDBRANCH  10  11
ENDBRANCH   6  10
BRANCH   2  25
HETATM   25  C   UNL     1       7.229  26.112  53.675  1.00  0.00    -0.020 A 
HETATM   26  C   UNL     1       7.195  25.227  54.774  1.00  0.00     0.022 A 
HETATM   27  C   UNL     1       7.512  23.861  54.648  1.00  0.00    -0.025 A 
HETATM   28  C   UNL     1       7.872  23.351  53.385  1.00  0.00    -0.026 A 
HETATM   29  C   UNL     1       7.471  22.993  55.753  1.00  0.00     0.012 A 
HETATM   30  C   UNL     1       7.895  24.217  52.284  1.00  0.00     0.013 A 
HETATM   31  C   UNL     1       8.188  21.986  53.257  1.00  0.00     0.012 A 
HETATM   32  C   UNL     1       7.571  25.571  52.425  1.00  0.00     0.011 A 
HETATM   33  C   UNL     1       8.144  21.138  54.364  1.00  0.00     0.001 A 
HETATM   34  C   UNL     1       7.785  21.640  55.612  1.00  0.00     0.001 A 
ENDBRANCH   2  25
TORSDOF 4
ENDMDL
MODEL 7
REMARK VINA RESULT:     -10.5      5.251      8.639
REMARK  4 active torsions:
REMARK  status: ('A' for Active; 'I' for Inactive)
REMARK    1  A    between atoms: C_2  and  C_3 
REMARK    2  A    between atoms: N_16  and  C_17 
REMARK    3  A    between atoms: C_17  and  C_18 
REMARK       I    between atoms: C_18  and  N_19 
REMARK    4  A    between atoms: N_19  and  C_20 
ROOT
HETATM    1  C   UNL     1       5.299  26.071  56.856  1.00  0.00     0.054 C 
HETATM    2  C   UNL     1       5.863  25.685  55.489  1.00  0.00     0.140 C 
HETATM    3  N   UNL     1       4.781  25.612  54.528  1.00  0.00    -0.321 N 
HETATM    4  C   UNL     1       5.016  26.384  53.417  1.00  0.00     0.326 C 
HETATM    5  O   UNL     1       4.339  26.334  52.405  1.00  0.00    -0.247 OA
HETATM    6  N   UNL     1       6.113  27.153  53.645  1.00  0.00    -0.259 N 
HETATM    7  C   UNL     1       6.653  26.865  54.866  1.00  0.00     0.261 C 
HETATM    8  O   UNL     1       7.623  27.424  55.362  1.00  0.00    -0.270 OA
HETATM    9  H   UNL     1       4.064  24.899  54.515  1.00  0.00     0.165 HD
ENDROOT
BRANCH   6  10
HETATM   10  C   UNL     1       6.694  28.035  52.657  1.00  0.00     0.240 C 
BRANCH  10  11
HETATM   11  C   UNL     1       5.637  28.766  51.834  1.00  0.00     0.240 C 
HETATM   12  N   UNL     1       5.574  28.380  50.510  1.00  0.00    -0.324 N 
HETATM   13  H   UNL     1       6.063  27.532  50.222  1.00  0.00     0.169 HD
HETATM   14  O   UNL     1       4.845  29.527  52.388  1.00  0.00    -0.271 OA
BRANCH  12  15
HETATM   15  C   UNL     1       4.682  28.880  49.524  1.00  0.00     0.064 A 
HETATM   16  C   UNL     1       3.970  27.928  48.776  1.00  0.00     0.093 A 
HETATM   17  C   UNL     1       3.054  28.388  47.803  1.00  0.00    -0.005 A 
HETATM   18  N   UNL     1       4.154  26.606  49.009  1.00  0.00    -0.258 NA
HETATM   19  C   UNL     1       2.318  27.440  47.080  1.00  0.00     0.015 A 
HETATM   20  C   UNL     1       2.883  29.762  47.577  1.00  0.00     0.014 A 
HETATM   21  C   UNL     1       2.498  26.086  47.331  1.00  0.00     0.020 A 
HETATM   22  C   UNL     1       3.420  25.724  48.294  1.00  0.00     0.117 A 
HETATM   23  C   UNL     1       3.613  30.689  48.312  1.00  0.00     0.003 A 
HETATM   24  C   UNL     1       4.510  30.249  49.284  1.00  0.00     0.032 A 
ENDBRANCH  12  15
ENDBRANCH  10  11
ENDBRANCH   6  10
BRANCH   2  25
HETATM   25  C   UNL     1       6.717  24.412  55.499  1.00  0.00    -0.020 A 
HETATM   26  C   UNL     1       6.846  23.589  54.360  1.00  0.00     0.022 A 
HETATM   27  C   UNL     1       7.652  22.434  54.356  1.00  0.00    -0.025 A 
HETATM   28  C   UNL     1       8.359  22.083  55.524  1.00  0.00    -0.026 A 
HETATM   29  C   UNL     1       7.772  21.627  53.212  1.00  0.00     0.012 A 
HETATM   30  C   UNL     1       8.248  22.900  56.656  1.00  0.00     0.013 A 
HETATM   31  C   UNL     1       9.164  20.930  55.521  1.00  0.00     0.012 A 
HETATM   32  C   UNL     1       7.448  24.049  56.641  1.00  0.00     0.011 A 
HETATM   33  C   UNL     1       9.271  20.138  54.377  1.00  0.00     0.001 A 
HETATM   34  C   UNL     1       8.576  20.486  53.223  1.00  0.00     0.001 A 
ENDBRANCH   2  25
TORSDOF 4
ENDMDL
MODEL 8
REMARK VINA RESULT:     -10.5      6.485      9.741
REMARK  4 active torsions:
REMARK  status: ('A' for Active; 'I' for Inactive)
REMARK    1  A    between atoms: C_2  and  C_3 
REMARK    2  A    between atoms: N_16  and  C_17 
REMARK    3  A    between atoms: C_17  and  C_18 
REMARK       I    between atoms: C_18  and  N_19 
REMARK    4  A    between atoms: N_19  and  C_20 
ROOT
HETATM    1  C   UNL     1       5.513  29.583  48.999  1.00  0.00     0.054 C 
HETATM    2  C   UNL     1       4.654  28.414  49.481  1.00  0.00     0.140 C 
HETATM    3  N   UNL     1       5.486  27.236  49.627  1.00  0.00    -0.321 N 
HETATM    4  C   UNL     1       5.378  26.671  50.874  1.00  0.00     0.326 C 
HETATM    5  O   UNL     1       5.837  25.580  51.161  1.00  0.00    -0.247 OA
HETATM    6  N   UNL     1       4.672  27.513  51.674  1.00  0.00    -0.259 N 
HETATM    7  C   UNL     1       4.251  28.603  50.966  1.00  0.00     0.261 C 
HETATM    8  O   UNL     1       3.626  29.550  51.430  1.00  0.00    -0.270 OA
HETATM    9  H   UNL     1       5.893  26.716  48.861  1.00  0.00     0.165 HD
ENDROOT
BRANCH   6  10
HETATM   10  C   UNL     1       4.303  27.201  53.037  1.00  0.00     0.240 C 
BRANCH  10  11
HETATM   11  C   UNL     1       5.515  26.940  53.924  1.00  0.00     0.240 C 
HETATM   12  N   UNL     1       5.595  25.654  54.421  1.00  0.00    -0.324 N 
HETATM   13  H   UNL     1       4.990  24.936  54.022  1.00  0.00     0.169 HD
HETATM   14  O   UNL     1       6.388  27.799  54.042  1.00  0.00    -0.271 OA
BRANCH  12  15
HETATM   15  C   UNL     1       6.617  25.130  55.257  1.00  0.00     0.064 A 
HETATM   16  C   UNL     1       7.355  24.049  54.750  1.00  0.00     0.093 A 
HETATM   17  C   UNL     1       8.398  23.518  55.543  1.00  0.00    -0.005 A 
HETATM   18  N   UNL     1       7.076  23.553  53.521  1.00  0.00    -0.258 NA
HETATM   19  C   UNL     1       9.158  22.461  55.025  1.00  0.00     0.015 A 
HETATM   20  C   UNL     1       8.667  24.046  56.815  1.00  0.00     0.014 A 
HETATM   21  C   UNL     1       8.878  21.964  53.758  1.00  0.00     0.020 A 
HETATM   22  C   UNL     1       7.836  22.537  53.055  1.00  0.00     0.117 A 
HETATM   23  C   UNL     1       7.911  25.103  57.309  1.00  0.00     0.003 A 
HETATM   24  C   UNL     1       6.888  25.644  56.532  1.00  0.00     0.032 A 
ENDBRANCH  12  15
ENDBRANCH  10  11
ENDBRANCH   6  10
BRANCH   2  25
HETATM   25  C   UNL     1       3.416  28.147  48.618  1.00  0.00    -0.020 A 
HETATM   26  C   UNL     1       2.698  29.190  47.995  1.00  0.00     0.022 A 
HETATM   27  C   UNL     1       1.577  28.946  47.179  1.00  0.00    -0.025 A 
HETATM   28  C   UNL     1       1.153  27.619  46.968  1.00  0.00    -0.026 A 
HETATM   29  C   UNL     1       0.876  29.997  46.563  1.00  0.00     0.012 A 
HETATM   30  C   UNL     1       1.866  26.574  47.571  1.00  0.00     0.013 A 
HETATM   31  C   UNL     1       0.034  27.375  46.153  1.00  0.00     0.012 A 
HETATM   32  C   UNL     1       2.982  26.833  48.374  1.00  0.00     0.011 A 
HETATM   33  C   UNL     1      -0.653  28.430  45.551  1.00  0.00     0.001 A 
HETATM   34  C   UNL     1      -0.233  29.740  45.755  1.00  0.00     0.001 A 
ENDBRANCH   2  25
TORSDOF 4
ENDMDL
MODEL 9
REMARK VINA RESULT:     -10.5      2.881      4.067
REMARK  4 active torsions:
REMARK  status: ('A' for Active; 'I' for Inactive)
REMARK    1  A    between atoms: C_2  and  C_3 
REMARK    2  A    between atoms: N_16  and  C_17 
REMARK    3  A    between atoms: C_17  and  C_18 
REMARK       I    between atoms: C_18  and  N_19 
REMARK    4  A    between atoms: N_19  and  C_20 
ROOT
HETATM    1  C   UNL     1       5.765  25.142  56.046  1.00  0.00     0.054 C 
HETATM    2  C   UNL     1       5.614  26.506  55.372  1.00  0.00     0.140 C 
HETATM    3  N   UNL     1       4.594  27.270  56.061  1.00  0.00    -0.321 N 
HETATM    4  C   UNL     1       5.044  28.507  56.454  1.00  0.00     0.326 C 
HETATM    5  O   UNL     1       4.316  29.385  56.880  1.00  0.00    -0.247 OA
HETATM    6  N   UNL     1       6.387  28.565  56.256  1.00  0.00    -0.259 N 
HETATM    7  C   UNL     1       6.835  27.410  55.679  1.00  0.00     0.261 C 
HETATM    8  O   UNL     1       8.005  27.157  55.417  1.00  0.00    -0.270 OA
HETATM    9  H   UNL     1       3.604  27.068  56.039  1.00  0.00     0.165 HD
ENDROOT
BRANCH   6  10
HETATM   10  C   UNL     1       7.182  29.751  56.490  1.00  0.00     0.240 C 
BRANCH  10  11
HETATM   11  C   UNL     1       7.649  29.863  57.938  1.00  0.00     0.240 C 
HETATM   12  N   UNL     1       7.608  31.142  58.455  1.00  0.00    -0.324 N 
HETATM   13  H   UNL     1       7.099  31.863  57.942  1.00  0.00     0.169 HD
HETATM   14  O   UNL     1       7.901  28.846  58.583  1.00  0.00    -0.271 OA
BRANCH  12  15
HETATM   15  C   UNL     1       7.968  31.536  59.771  1.00  0.00     0.064 A 
HETATM   16  C   UNL     1       7.008  32.253  60.502  1.00  0.00     0.093 A 
HETATM   17  C   UNL     1       7.322  32.640  61.825  1.00  0.00    -0.005 A 
HETATM   18  N   UNL     1       5.807  32.542  59.945  1.00  0.00    -0.258 NA
HETATM   19  C   UNL     1       6.352  33.326  62.567  1.00  0.00     0.015 A 
HETATM   20  C   UNL     1       8.574  32.333  62.380  1.00  0.00     0.014 A 
HETATM   21  C   UNL     1       5.117  33.608  61.998  1.00  0.00     0.020 A 
HETATM   22  C   UNL     1       4.896  33.200  60.696  1.00  0.00     0.117 A 
HETATM   23  C   UNL     1       9.520  31.640  61.633  1.00  0.00     0.003 A 
HETATM   24  C   UNL     1       9.218  31.243  60.332  1.00  0.00     0.032 A 
ENDBRANCH  12  15
ENDBRANCH  10  11
ENDBRANCH   6  10
BRANCH   2  25
HETATM   25  C   UNL     1       5.364  26.436  53.861  1.00  0.00    -0.020 A 
HETATM   26  C   UNL     1       5.469  27.572  53.031  1.00  0.00     0.022 A 
HETATM   27  C   UNL     1       5.268  27.505  51.639  1.00  0.00    -0.025 A 
HETATM   28  C   UNL     1       4.954  26.266  51.046  1.00  0.00    -0.026 A 
HETATM   29  C   UNL     1       5.380  28.647  50.827  1.00  0.00     0.012 A 
HETATM   30  C   UNL     1       4.860  25.129  51.859  1.00  0.00     0.013 A 
HETATM   31  C   UNL     1       4.753  26.199  49.656  1.00  0.00     0.012 A 
HETATM   32  C   UNL     1       5.070  25.211  53.240  1.00  0.00     0.011 A 
HETATM   33  C   UNL     1       4.865  27.342  48.864  1.00  0.00     0.001 A 
HETATM   34  C   UNL     1       5.179  28.565  49.448  1.00  0.00     0.001 A 
ENDBRANCH   2  25
TORSDOF 4
ENDMDL
MODEL 10
REMARK VINA RESULT:     -10.5      5.596      8.876
REMARK  4 active torsions:
REMARK  status: ('A' for Active; 'I' for Inactive)
REMARK    1  A    between atoms: C_2  and  C_3 
REMARK    2  A    between atoms: N_16  and  C_17 
REMARK    3  A    between atoms: C_17  and  C_18 
REMARK       I    between atoms: C_18  and  N_19 
REMARK    4  A    between atoms: N_19  and  C_20 
ROOT
HETATM    1  C   UNL     1       8.102  27.910  54.089  1.00  0.00     0.054 C 
HETATM    2  C   UNL     1       6.830  27.122  54.407  1.00  0.00     0.140 C 
HETATM    3  N   UNL     1       6.112  27.785  55.477  1.00  0.00    -0.321 N 
HETATM    4  C   UNL     1       4.804  28.044  55.146  1.00  0.00     0.326 C 
HETATM    5  O   UNL     1       3.969  28.421  55.948  1.00  0.00    -0.247 OA
HETATM    6  N   UNL     1       4.629  27.781  53.825  1.00  0.00    -0.259 N 
HETATM    7  C   UNL     1       5.781  27.292  53.278  1.00  0.00     0.261 C 
HETATM    8  O   UNL     1       5.938  27.002  52.098  1.00  0.00    -0.270 OA
HETATM    9  H   UNL     1       6.416  27.825  56.440  1.00  0.00     0.165 HD
ENDROOT
BRANCH   6  10
HETATM   10  C   UNL     1       3.352  27.871  53.152  1.00  0.00     0.240 C 
BRANCH  10  11
HETATM   11  C   UNL     1       3.356  28.905  52.030  1.00  0.00     0.240 C 
HETATM   12  N   UNL     1       3.526  28.377  50.766  1.00  0.00    -0.324 N 
HETATM   13  H   UNL     1       3.434  27.369  50.639  1.00  0.00     0.169 HD
HETATM   14  O   UNL     1       3.089  30.081  52.276  1.00  0.00    -0.271 OA
BRANCH  12  15
HETATM   15  C   UNL     1       3.555  29.100  49.543  1.00  0.00     0.064 A 
HETATM   16  C   UNL     1       2.587  28.760  48.585  1.00  0.00     0.093 A 
HETATM   17  C   UNL     1       2.569  29.476  47.366  1.00  0.00    -0.005 A 
HETATM   18  N   UNL     1       1.686  27.783  48.847  1.00  0.00    -0.258 NA
HETATM   19  C   UNL     1       1.582  29.161  46.423  1.00  0.00     0.015 A 
HETATM   20  C   UNL     1       3.515  30.482  47.115  1.00  0.00     0.014 A 
HETATM   21  C   UNL     1       0.652  28.168  46.700  1.00  0.00     0.020 A 
HETATM   22  C   UNL     1       0.747  27.514  47.913  1.00  0.00     0.117 A 
HETATM   23  C   UNL     1       4.479  30.789  48.068  1.00  0.00     0.003 A 
HETATM   24  C   UNL     1       4.500  30.100  49.279  1.00  0.00     0.032 A 
ENDBRANCH  12  15
ENDBRANCH  10  11
ENDBRANCH   6  10
BRANCH   2  25
HETATM   25  C   UNL     1       7.068  25.637  54.701  1.00  0.00    -0.020 A 
HETATM   26  C   UNL     1       7.318  24.701  53.674  1.00  0.00     0.022 A 
HETATM   27  C   UNL     1       7.565  23.341  53.943  1.00  0.00    -0.025 A 
HETATM   28  C   UNL     1       7.569  22.892  55.278  1.00  0.00    -0.026 A 
HETATM   29  C   UNL     1       7.814  22.423  52.908  1.00  0.00     0.012 A 
HETATM   30  C   UNL     1       7.336  23.815  56.306  1.00  0.00     0.013 A 
HETATM   31  C   UNL     1       7.816  21.534  55.547  1.00  0.00     0.012 A 
HETATM   32  C   UNL     1       7.099  25.164  56.023  1.00  0.00     0.011 A 
HETATM   33  C   UNL     1       8.059  20.634  54.508  1.00  0.00     0.001 A 
HETATM   34  C   UNL     1       8.059  21.078  53.190  1.00  0.00     0.001 A 
ENDBRANCH   2  25
TORSDOF 4
ENDMDL
