MODEL 1
REMARK VINA RESULT:      -9.2      0.000      0.000
REMARK  11 active torsions:
REMARK  status: ('A' for Active; 'I' for Inactive)
REMARK    1  A    between atoms: C_6  and  C_7 
REMARK    2  A    between atoms: C_7  and  C_8 
REMARK       I    between atoms: C_8  and  N_9 
REMARK    3  A    between atoms: N_9  and  C_10 
REMARK    4  A    between atoms: C_10  and  C_11 
REMARK    5  A    between atoms: C_11  and  N_12 
REMARK    6  A    between atoms: C_17  and  C_18 
REMARK    7  A    between atoms: C_21  and  C_22 
REMARK    8  A    between atoms: C_29  and  C_30 
REMARK    9  A    between atoms: C_30  and  O_31 
REMARK   10  A    between atoms: O_31  and  C_32 
REMARK   11  A    between atoms: C_32  and  C_33 
ROOT
HETATM    1  C   UNL     1       4.964  24.737  53.135  1.00  0.00     0.071 C 
HETATM    2  C   UNL     1       5.213  26.200  53.438  1.00  0.00     0.048 C 
HETATM    3  N   UNL     1       4.469  27.056  52.654  1.00  0.00    -0.229 NA
HETATM    4  C   UNL     1       4.307  28.261  53.078  1.00  0.00     0.170 C 
HETATM    5  N   UNL     1       5.122  28.931  54.249  1.00  0.00    -0.319 N 
HETATM    6  C   UNL     1       4.654  30.119  54.492  1.00  0.00     0.011 C 
HETATM    7  C   UNL     1       6.320  28.108  54.563  1.00  0.00     0.166 C 
HETATM    8  S   UNL     1       3.142  29.347  52.400  1.00  0.00    -0.086 SA
HETATM    9  C   UNL     1       3.326  30.438  53.831  1.00  0.00     0.135 C 
HETATM   10  C   UNL     1       5.980  26.656  54.454  1.00  0.00     0.069 C 
ENDROOT
BRANCH   6  11
HETATM   11  C   UNL     1       5.342  31.151  55.335  1.00  0.00     0.156 C 
BRANCH  11  12
HETATM   12  C   UNL     1       4.696  31.439  56.676  1.00  0.00     0.223 C 
HETATM   13  N   UNL     1       5.113  32.621  57.244  1.00  0.00    -0.359 N 
HETATM   14  H   UNL     1       5.895  33.096  56.798  1.00  0.00     0.162 HD
HETATM   15  O   UNL     1       3.875  30.693  57.199  1.00  0.00    -0.273 OA
BRANCH  13  16
HETATM   16  C   UNL     1       4.851  33.051  58.618  1.00  0.00     0.150 C 
BRANCH  16  17
HETATM   17  C   UNL     1       5.761  32.471  59.722  1.00  0.00     0.253 C 
BRANCH  17  18
HETATM   18  N   UNL     1       4.982  31.923  60.902  1.00  0.00    -0.077 N 
HETATM   19  H   UNL     1       5.122  30.893  60.892  1.00  0.00     0.279 HD
HETATM   20  C   UNL     1       5.455  32.436  62.235  1.00  0.00     0.269 C 
HETATM   21  C   UNL     1       3.503  32.158  60.743  1.00  0.00     0.269 C 
ENDBRANCH  17  18
ENDBRANCH  16  17
ENDBRANCH  13  16
ENDBRANCH  11  12
ENDBRANCH   6  11
BRANCH   7  22
HETATM   22  C   UNL     1       7.142  28.572  55.750  1.00  0.00    -0.030 A 
HETATM   23  C   UNL     1       6.664  28.594  57.067  1.00  0.00     0.010 A 
HETATM   24  C   UNL     1       7.446  29.135  58.098  1.00  0.00     0.008 A 
HETATM   25  C   UNL     1       8.718  29.667  57.844  1.00  0.00    -0.055 A 
HETATM   26  C   UNL     1       9.223  29.579  56.544  1.00  0.00     0.008 A 
HETATM   27  C   UNL     1       8.451  29.038  55.516  1.00  0.00     0.010 A 
BRANCH  25  28
HETATM   28  C   UNL     1       9.536  30.282  58.970  1.00  0.00     0.010 C 
HETATM   29  C   UNL     1      10.157  31.610  58.538  1.00  0.00     0.015 C 
HETATM   30  C   UNL     1       8.721  30.460  60.257  1.00  0.00     0.015 C 
ENDBRANCH  25  28
ENDBRANCH   7  22
BRANCH  10  31
HETATM   31  C   UNL     1       6.177  25.734  55.583  1.00  0.00     0.294 C 
HETATM   32  O   UNL     1       5.404  25.534  56.491  1.00  0.00    -0.259 OA
BRANCH  31  33
HETATM   33  O   UNL     1       7.439  25.272  55.418  1.00  0.00    -0.313 OA
BRANCH  33  34
HETATM   34  C   UNL     1       7.803  24.113  56.185  1.00  0.00     0.217 C 
BRANCH  34  35
HETATM   35  C   UNL     1       7.854  22.949  55.218  1.00  0.00    -0.034 A 
HETATM   36  C   UNL     1       8.027  23.164  53.840  1.00  0.00     0.009 A 
HETATM   37  C   UNL     1       8.103  22.095  52.944  1.00  0.00     0.001 A 
HETATM   38  C   UNL     1       8.019  20.790  53.417  1.00  0.00     0.000 A 
HETATM   39  C   UNL     1       7.864  20.557  54.782  1.00  0.00     0.001 A 
HETATM   40  C   UNL     1       7.786  21.628  55.678  1.00  0.00     0.009 A 
ENDBRANCH  34  35
ENDBRANCH  33  34
ENDBRANCH  31  33
ENDBRANCH  10  31
TORSDOF 11
ENDMDL
MODEL 2
REMARK VINA RESULT:      -8.8      2.955      8.004
REMARK  11 active torsions:
REMARK  status: ('A' for Active; 'I' for Inactive)
REMARK    1  A    between atoms: C_6  and  C_7 
REMARK    2  A    between atoms: C_7  and  C_8 
REMARK       I    between atoms: C_8  and  N_9 
REMARK    3  A    between atoms: N_9  and  C_10 
REMARK    4  A    between atoms: C_10  and  C_11 
REMARK    5  A    between atoms: C_11  and  N_12 
REMARK    6  A    between atoms: C_17  and  C_18 
REMARK    7  A    between atoms: C_21  and  C_22 
REMARK    8  A    between atoms: C_29  and  C_30 
REMARK    9  A    between atoms: C_30  and  O_31 
REMARK   10  A    between atoms: O_31  and  C_32 
REMARK   11  A    between atoms: C_32  and  C_33 
ROOT
HETATM    1  C   UNL     1       3.194  30.619  56.629  1.00  0.00     0.071 C 
HETATM    2  C   UNL     1       3.588  29.952  55.328  1.00  0.00     0.048 C 
HETATM    3  N   UNL     1       3.234  30.678  54.211  1.00  0.00    -0.229 NA
HETATM    4  C   UNL     1       3.845  30.413  53.109  1.00  0.00     0.170 C 
HETATM    5  N   UNL     1       4.741  29.142  52.849  1.00  0.00    -0.319 N 
HETATM    6  C   UNL     1       5.289  29.219  51.674  1.00  0.00     0.011 C 
HETATM    7  C   UNL     1       4.506  28.134  53.918  1.00  0.00     0.166 C 
HETATM    8  S   UNL     1       3.766  31.441  51.719  1.00  0.00    -0.086 SA
HETATM    9  C   UNL     1       5.179  30.571  50.996  1.00  0.00     0.135 C 
HETATM   10  C   UNL     1       4.327  28.823  55.233  1.00  0.00     0.069 C 
ENDROOT
BRANCH   6  11
HETATM   11  C   UNL     1       5.973  28.081  50.975  1.00  0.00     0.156 C 
BRANCH  11  12
HETATM   12  C   UNL     1       5.172  27.406  49.880  1.00  0.00     0.223 C 
HETATM   13  N   UNL     1       5.440  27.896  48.623  1.00  0.00    -0.359 N 
HETATM   14  H   UNL     1       6.016  28.733  48.567  1.00  0.00     0.162 HD
HETATM   15  O   UNL     1       4.370  26.504  50.095  1.00  0.00    -0.273 OA
BRANCH  13  16
HETATM   16  C   UNL     1       4.670  27.613  47.411  1.00  0.00     0.150 C 
BRANCH  16  17
HETATM   17  C   UNL     1       3.201  28.087  47.385  1.00  0.00     0.253 C 
BRANCH  17  18
HETATM   18  N   UNL     1       2.215  26.971  47.675  1.00  0.00    -0.077 N 
HETATM   19  H   UNL     1       2.154  26.896  48.710  1.00  0.00     0.279 HD
HETATM   20  C   UNL     1       0.829  27.231  47.152  1.00  0.00     0.269 C 
HETATM   21  C   UNL     1       2.724  25.644  47.177  1.00  0.00     0.269 C 
ENDBRANCH  17  18
ENDBRANCH  16  17
ENDBRANCH  13  16
ENDBRANCH  11  12
ENDBRANCH   6  11
BRANCH   7  22
HETATM   22  C   UNL     1       5.386  26.901  53.861  1.00  0.00    -0.030 A 
HETATM   23  C   UNL     1       4.913  25.620  53.546  1.00  0.00     0.010 A 
HETATM   24  C   UNL     1       5.766  24.509  53.615  1.00  0.00     0.008 A 
HETATM   25  C   UNL     1       7.107  24.645  54.000  1.00  0.00    -0.055 A 
HETATM   26  C   UNL     1       7.597  25.932  54.243  1.00  0.00     0.008 A 
HETATM   27  C   UNL     1       6.753  27.040  54.171  1.00  0.00     0.010 A 
BRANCH  25  28
HETATM   28  C   UNL     1       8.008  23.424  54.104  1.00  0.00     0.010 C 
HETATM   29  C   UNL     1       7.638  22.566  55.313  1.00  0.00     0.015 C 
HETATM   30  C   UNL     1       8.002  22.580  52.822  1.00  0.00     0.015 C 
ENDBRANCH  25  28
ENDBRANCH   7  22
BRANCH  10  31
HETATM   31  C   UNL     1       5.182  28.509  56.388  1.00  0.00     0.294 C 
HETATM   32  O   UNL     1       5.009  27.622  57.191  1.00  0.00    -0.259 OA
BRANCH  31  33
HETATM   33  O   UNL     1       6.110  29.495  56.391  1.00  0.00    -0.313 OA
BRANCH  33  34
HETATM   34  C   UNL     1       6.656  29.858  57.670  1.00  0.00     0.217 C 
BRANCH  34  35
HETATM   35  C   UNL     1       8.158  29.945  57.494  1.00  0.00    -0.034 A 
HETATM   36  C   UNL     1       8.786  29.376  56.373  1.00  0.00     0.009 A 
HETATM   37  C   UNL     1      10.166  29.476  56.188  1.00  0.00     0.001 A 
HETATM   38  C   UNL     1      10.941  30.158  57.121  1.00  0.00     0.000 A 
HETATM   39  C   UNL     1      10.333  30.743  58.230  1.00  0.00     0.001 A 
HETATM   40  C   UNL     1       8.950  30.641  58.415  1.00  0.00     0.009 A 
ENDBRANCH  34  35
ENDBRANCH  33  34
ENDBRANCH  31  33
ENDBRANCH  10  31
TORSDOF 11
ENDMDL
MODEL 3
REMARK VINA RESULT:      -8.6      2.026      3.217
REMARK  11 active torsions:
REMARK  status: ('A' for Active; 'I' for Inactive)
REMARK    1  A    between atoms: C_6  and  C_7 
REMARK    2  A    between atoms: C_7  and  C_8 
REMARK       I    between atoms: C_8  and  N_9 
REMARK    3  A    between atoms: N_9  and  C_10 
REMARK    4  A    between atoms: C_10  and  C_11 
REMARK    5  A    between atoms: C_11  and  N_12 
REMARK    6  A    between atoms: C_17  and  C_18 
REMARK    7  A    between atoms: C_21  and  C_22 
REMARK    8  A    between atoms: C_29  and  C_30 
REMARK    9  A    between atoms: C_30  and  O_31 
REMARK   10  A    between atoms: O_31  and  C_32 
REMARK   11  A    between atoms: C_32  and  C_33 
ROOT
HETATM    1  C   UNL     1       5.939  24.280  53.274  1.00  0.00     0.071 C 
HETATM    2  C   UNL     1       5.962  25.764  53.577  1.00  0.00     0.048 C 
HETATM    3  N   UNL     1       5.104  26.498  52.787  1.00  0.00    -0.229 NA
HETATM    4  C   UNL     1       4.759  27.666  53.206  1.00  0.00     0.170 C 
HETATM    5  N   UNL     1       5.457  28.452  54.381  1.00  0.00    -0.319 N 
HETATM    6  C   UNL     1       4.813  29.555  54.619  1.00  0.00     0.011 C 
HETATM    7  C   UNL     1       6.763  27.818  54.706  1.00  0.00     0.166 C 
HETATM    8  S   UNL     1       3.449  28.563  52.518  1.00  0.00    -0.086 SA
HETATM    9  C   UNL     1       3.457  29.671  53.949  1.00  0.00     0.135 C 
HETATM   10  C   UNL     1       6.645  26.331  54.597  1.00  0.00     0.069 C 
ENDROOT
BRANCH   6  11
HETATM   11  C   UNL     1       5.332  30.680  55.465  1.00  0.00     0.156 C 
BRANCH  11  12
HETATM   12  C   UNL     1       4.644  32.018  55.274  1.00  0.00     0.223 C 
HETATM   13  N   UNL     1       5.103  32.719  54.183  1.00  0.00    -0.359 N 
HETATM   14  H   UNL     1       5.930  32.356  53.715  1.00  0.00     0.162 HD
HETATM   15  O   UNL     1       3.758  32.428  56.016  1.00  0.00    -0.273 OA
BRANCH  13  16
HETATM   16  C   UNL     1       4.804  34.119  53.878  1.00  0.00     0.150 C 
BRANCH  16  17
HETATM   17  C   UNL     1       5.835  35.174  54.333  1.00  0.00     0.253 C 
BRANCH  17  18
HETATM   18  N   UNL     1       6.902  35.446  53.289  1.00  0.00    -0.077 N 
HETATM   19  H   UNL     1       7.614  34.697  53.396  1.00  0.00     0.279 HD
HETATM   20  C   UNL     1       6.395  35.397  51.873  1.00  0.00     0.269 C 
HETATM   21  C   UNL     1       7.607  36.751  53.550  1.00  0.00     0.269 C 
ENDBRANCH  17  18
ENDBRANCH  16  17
ENDBRANCH  13  16
ENDBRANCH  11  12
ENDBRANCH   6  11
BRANCH   7  22
HETATM   22  C   UNL     1       7.496  28.402  55.897  1.00  0.00    -0.030 A 
HETATM   23  C   UNL     1       7.027  28.325  57.215  1.00  0.00     0.010 A 
HETATM   24  C   UNL     1       7.708  28.979  58.252  1.00  0.00     0.008 A 
HETATM   25  C   UNL     1       8.869  29.725  58.003  1.00  0.00    -0.055 A 
HETATM   26  C   UNL     1       9.377  29.741  56.701  1.00  0.00     0.008 A 
HETATM   27  C   UNL     1       8.705  29.088  55.667  1.00  0.00     0.010 A 
BRANCH  25  28
HETATM   28  C   UNL     1       9.574  30.457  59.135  1.00  0.00     0.010 C 
HETATM   29  C   UNL     1      10.127  31.801  58.662  1.00  0.00     0.015 C 
HETATM   30  C   UNL     1       8.672  30.646  60.362  1.00  0.00     0.015 C 
ENDBRANCH  25  28
ENDBRANCH   7  22
BRANCH  10  31
HETATM   31  C   UNL     1       6.970  25.451  55.729  1.00  0.00     0.294 C 
HETATM   32  O   UNL     1       6.239  25.158  56.646  1.00  0.00    -0.259 OA
BRANCH  31  33
HETATM   33  O   UNL     1       8.280  25.156  55.554  1.00  0.00    -0.313 OA
BRANCH  33  34
HETATM   34  C   UNL     1       8.808  24.084  56.352  1.00  0.00     0.217 C 
BRANCH  34  35
HETATM   35  C   UNL     1       8.612  22.811  55.555  1.00  0.00    -0.034 A 
HETATM   36  C   UNL     1       8.035  21.673  56.146  1.00  0.00     0.009 A 
HETATM   37  C   UNL     1       7.824  20.504  55.411  1.00  0.00     0.001 A 
HETATM   38  C   UNL     1       8.180  20.459  54.067  1.00  0.00     0.000 A 
HETATM   39  C   UNL     1       8.738  21.583  53.461  1.00  0.00     0.001 A 
HETATM   40  C   UNL     1       8.950  22.753  54.198  1.00  0.00     0.009 A 
ENDBRANCH  34  35
ENDBRANCH  33  34
ENDBRANCH  31  33
ENDBRANCH  10  31
TORSDOF 11
ENDMDL
MODEL 4
REMARK VINA RESULT:      -8.6      3.451      7.707
REMARK  11 active torsions:
REMARK  status: ('A' for Active; 'I' for Inactive)
REMARK    1  A    between atoms: C_6  and  C_7 
REMARK    2  A    between atoms: C_7  and  C_8 
REMARK       I    between atoms: C_8  and  N_9 
REMARK    3  A    between atoms: N_9  and  C_10 
REMARK    4  A    between atoms: C_10  and  C_11 
REMARK    5  A    between atoms: C_11  and  N_12 
REMARK    6  A    between atoms: C_17  and  C_18 
REMARK    7  A    between atoms: C_21  and  C_22 
REMARK    8  A    between atoms: C_29  and  C_30 
REMARK    9  A    between atoms: C_30  and  O_31 
REMARK   10  A    between atoms: O_31  and  C_32 
REMARK   11  A    between atoms: C_32  and  C_33 
ROOT
HETATM    1  C   UNL     1       4.803  30.691  56.072  1.00  0.00     0.071 C 
HETATM    2  C   UNL     1       4.697  29.895  54.787  1.00  0.00     0.048 C 
HETATM    3  N   UNL     1       4.022  30.561  53.786  1.00  0.00    -0.229 NA
HETATM    4  C   UNL     1       4.209  30.162  52.575  1.00  0.00     0.170 C 
HETATM    5  N   UNL     1       4.895  28.805  52.161  1.00  0.00    -0.319 N 
HETATM    6  C   UNL     1       5.015  28.746  50.868  1.00  0.00     0.011 C 
HETATM    7  C   UNL     1       4.986  27.905  53.341  1.00  0.00     0.166 C 
HETATM    8  S   UNL     1       3.715  31.083  51.196  1.00  0.00    -0.086 SA
HETATM    9  C   UNL     1       4.751  30.047  50.134  1.00  0.00     0.135 C 
HETATM   10  C   UNL     1       5.300  28.706  54.565  1.00  0.00     0.069 C 
ENDROOT
BRANCH   6  11
HETATM   11  C   UNL     1       5.362  27.506  50.099  1.00  0.00     0.156 C 
BRANCH  11  12
HETATM   12  C   UNL     1       4.595  27.298  48.808  1.00  0.00     0.223 C 
HETATM   13  N   UNL     1       3.407  26.626  48.977  1.00  0.00    -0.359 N 
HETATM   14  H   UNL     1       3.234  26.218  49.893  1.00  0.00     0.162 HD
HETATM   15  O   UNL     1       4.994  27.699  47.720  1.00  0.00    -0.273 OA
BRANCH  13  16
HETATM   16  C   UNL     1       2.572  26.079  47.906  1.00  0.00     0.150 C 
BRANCH  16  17
HETATM   17  C   UNL     1       1.200  26.746  47.675  1.00  0.00     0.253 C 
BRANCH  17  18
HETATM   18  N   UNL     1       1.168  27.618  46.435  1.00  0.00    -0.077 N 
HETATM   19  H   UNL     1       1.861  27.213  45.774  1.00  0.00     0.279 HD
HETATM   20  C   UNL     1      -0.167  27.642  45.741  1.00  0.00     0.269 C 
HETATM   21  C   UNL     1       1.629  29.020  46.736  1.00  0.00     0.269 C 
ENDBRANCH  17  18
ENDBRANCH  16  17
ENDBRANCH  13  16
ENDBRANCH  11  12
ENDBRANCH   6  11
BRANCH   7  22
HETATM   22  C   UNL     1       5.729  26.603  53.118  1.00  0.00    -0.030 A 
HETATM   23  C   UNL     1       5.106  25.349  53.068  1.00  0.00     0.010 A 
HETATM   24  C   UNL     1       5.871  24.178  52.963  1.00  0.00     0.008 A 
HETATM   25  C   UNL     1       7.271  24.227  52.906  1.00  0.00    -0.055 A 
HETATM   26  C   UNL     1       7.888  25.480  52.882  1.00  0.00     0.008 A 
HETATM   27  C   UNL     1       7.131  26.648  52.982  1.00  0.00     0.010 A 
BRANCH  25  28
HETATM   28  C   UNL     1       8.085  22.944  52.827  1.00  0.00     0.010 C 
HETATM   29  C   UNL     1       9.370  23.055  53.647  1.00  0.00     0.015 C 
HETATM   30  C   UNL     1       7.278  21.710  53.255  1.00  0.00     0.015 C 
ENDBRANCH  25  28
ENDBRANCH   7  22
BRANCH  10  31
HETATM   31  C   UNL     1       6.480  28.412  55.394  1.00  0.00     0.294 C 
HETATM   32  O   UNL     1       7.611  28.786  55.192  1.00  0.00    -0.259 OA
BRANCH  31  33
HETATM   33  O   UNL     1       6.018  27.556  56.336  1.00  0.00    -0.313 OA
BRANCH  33  34
HETATM   34  C   UNL     1       6.913  27.249  57.417  1.00  0.00     0.217 C 
BRANCH  34  35
HETATM   35  C   UNL     1       7.381  25.825  57.204  1.00  0.00    -0.034 A 
HETATM   36  C   UNL     1       6.508  24.848  56.695  1.00  0.00     0.009 A 
HETATM   37  C   UNL     1       6.940  23.539  56.469  1.00  0.00     0.001 A 
HETATM   38  C   UNL     1       8.259  23.189  56.740  1.00  0.00     0.000 A 
HETATM   39  C   UNL     1       9.142  24.149  57.229  1.00  0.00     0.001 A 
HETATM   40  C   UNL     1       8.709  25.460  57.457  1.00  0.00     0.009 A 
ENDBRANCH  34  35
ENDBRANCH  33  34
ENDBRANCH  31  33
ENDBRANCH  10  31
TORSDOF 11
ENDMDL
MODEL 5
REMARK VINA RESULT:      -8.2      3.221      6.856
REMARK  11 active torsions:
REMARK  status: ('A' for Active; 'I' for Inactive)
REMARK    1  A    between atoms: C_6  and  C_7 
REMARK    2  A    between atoms: C_7  and  C_8 
REMARK       I    between atoms: C_8  and  N_9 
REMARK    3  A    between atoms: N_9  and  C_10 
REMARK    4  A    between atoms: C_10  and  C_11 
REMARK    5  A    between atoms: C_11  and  N_12 
REMARK    6  A    between atoms: C_17  and  C_18 
REMARK    7  A    between atoms: C_21  and  C_22 
REMARK    8  A    between atoms: C_29  and  C_30 
REMARK    9  A    between atoms: C_30  and  O_31 
REMARK   10  A    between atoms: O_31  and  C_32 
REMARK   11  A    between atoms: C_32  and  C_33 
ROOT
HETATM    1  C   UNL     1       7.406  27.238  57.384  1.00  0.00     0.071 C 
HETATM    2  C   UNL     1       6.286  27.614  56.436  1.00  0.00     0.048 C 
HETATM    3  N   UNL     1       5.331  28.426  57.011  1.00  0.00    -0.229 NA
HETATM    4  C   UNL     1       4.574  29.105  56.221  1.00  0.00     0.170 C 
HETATM    5  N   UNL     1       4.435  28.870  54.669  1.00  0.00    -0.319 N 
HETATM    6  C   UNL     1       3.667  29.780  54.150  1.00  0.00     0.011 C 
HETATM    7  C   UNL     1       5.028  27.556  54.304  1.00  0.00     0.166 C 
HETATM    8  S   UNL     1       3.571  30.405  56.769  1.00  0.00    -0.086 SA
HETATM    9  C   UNL     1       3.347  30.953  55.059  1.00  0.00     0.135 C 
HETATM   10  C   UNL     1       6.257  27.311  55.119  1.00  0.00     0.069 C 
ENDROOT
BRANCH   6  11
HETATM   11  C   UNL     1       3.087  29.721  52.767  1.00  0.00     0.156 C 
BRANCH  11  12
HETATM   12  C   UNL     1       3.177  31.002  51.962  1.00  0.00     0.223 C 
HETATM   13  N   UNL     1       2.019  31.308  51.286  1.00  0.00    -0.359 N 
HETATM   14  H   UNL     1       1.291  30.596  51.272  1.00  0.00     0.162 HD
HETATM   15  O   UNL     1       4.184  31.702  51.926  1.00  0.00    -0.273 OA
BRANCH  13  16
HETATM   16  C   UNL     1       1.874  32.338  50.257  1.00  0.00     0.150 C 
BRANCH  16  17
HETATM   17  C   UNL     1       2.460  32.027  48.863  1.00  0.00     0.253 C 
BRANCH  17  18
HETATM   18  N   UNL     1       3.942  32.334  48.764  1.00  0.00    -0.077 N 
HETATM   19  H   UNL     1       4.215  32.758  49.673  1.00  0.00     0.279 HD
HETATM   20  C   UNL     1       4.802  31.120  48.548  1.00  0.00     0.269 C 
HETATM   21  C   UNL     1       4.220  33.370  47.706  1.00  0.00     0.269 C 
ENDBRANCH  17  18
ENDBRANCH  16  17
ENDBRANCH  13  16
ENDBRANCH  11  12
ENDBRANCH   6  11
BRANCH   7  22
HETATM   22  C   UNL     1       5.068  27.244  52.821  1.00  0.00    -0.030 A 
HETATM   23  C   UNL     1       5.453  28.168  51.840  1.00  0.00     0.010 A 
HETATM   24  C   UNL     1       5.365  27.840  50.479  1.00  0.00     0.008 A 
HETATM   25  C   UNL     1       4.892  26.588  50.062  1.00  0.00    -0.055 A 
HETATM   26  C   UNL     1       4.577  25.642  51.041  1.00  0.00     0.008 A 
HETATM   27  C   UNL     1       4.667  25.962  52.396  1.00  0.00     0.010 A 
BRANCH  25  28
HETATM   28  C   UNL     1       4.770  26.264  48.581  1.00  0.00     0.010 C 
HETATM   29  C   UNL     1       3.414  25.635  48.264  1.00  0.00     0.015 C 
HETATM   30  C   UNL     1       5.018  27.488  47.690  1.00  0.00     0.015 C 
ENDBRANCH  25  28
ENDBRANCH   7  22
BRANCH  10  31
HETATM   31  C   UNL     1       7.558  27.045  54.486  1.00  0.00     0.294 C 
HETATM   32  O   UNL     1       8.246  27.844  53.894  1.00  0.00    -0.259 OA
BRANCH  31  33
HETATM   33  O   UNL     1       7.730  25.710  54.627  1.00  0.00    -0.313 OA
BRANCH  33  34
HETATM   34  C   UNL     1       7.907  24.955  53.418  1.00  0.00     0.217 C 
BRANCH  34  35
HETATM   35  C   UNL     1       7.866  23.492  53.808  1.00  0.00    -0.034 A 
HETATM   36  C   UNL     1       7.948  22.483  52.832  1.00  0.00     0.009 A 
HETATM   37  C   UNL     1       7.940  21.132  53.185  1.00  0.00     0.001 A 
HETATM   38  C   UNL     1       7.860  20.768  54.525  1.00  0.00     0.000 A 
HETATM   39  C   UNL     1       7.795  21.755  55.507  1.00  0.00     0.001 A 
HETATM   40  C   UNL     1       7.801  23.108  55.153  1.00  0.00     0.009 A 
ENDBRANCH  34  35
ENDBRANCH  33  34
ENDBRANCH  31  33
ENDBRANCH  10  31
TORSDOF 11
ENDMDL
MODEL 6
REMARK VINA RESULT:      -8.1      3.076      5.939
REMARK  11 active torsions:
REMARK  status: ('A' for Active; 'I' for Inactive)
REMARK    1  A    between atoms: C_6  and  C_7 
REMARK    2  A    between atoms: C_7  and  C_8 
REMARK       I    between atoms: C_8  and  N_9 
REMARK    3  A    between atoms: N_9  and  C_10 
REMARK    4  A    between atoms: C_10  and  C_11 
REMARK    5  A    between atoms: C_11  and  N_12 
REMARK    6  A    between atoms: C_17  and  C_18 
REMARK    7  A    between atoms: C_21  and  C_22 
REMARK    8  A    between atoms: C_29  and  C_30 
REMARK    9  A    between atoms: C_30  and  O_31 
REMARK   10  A    between atoms: O_31  and  C_32 
REMARK   11  A    between atoms: C_32  and  C_33 
ROOT
HETATM    1  C   UNL     1       7.235  27.281  57.406  1.00  0.00     0.071 C 
HETATM    2  C   UNL     1       6.157  27.693  56.426  1.00  0.00     0.048 C 
HETATM    3  N   UNL     1       5.189  28.501  56.984  1.00  0.00    -0.229 NA
HETATM    4  C   UNL     1       4.470  29.209  56.183  1.00  0.00     0.170 C 
HETATM    5  N   UNL     1       4.391  29.015  54.621  1.00  0.00    -0.319 N 
HETATM    6  C   UNL     1       3.653  29.947  54.096  1.00  0.00     0.011 C 
HETATM    7  C   UNL     1       4.983  27.704  54.245  1.00  0.00     0.166 C 
HETATM    8  S   UNL     1       3.460  30.505  56.725  1.00  0.00    -0.086 SA
HETATM    9  C   UNL     1       3.309  31.099  55.022  1.00  0.00     0.135 C 
HETATM   10  C   UNL     1       6.177  27.424  55.101  1.00  0.00     0.069 C 
ENDROOT
BRANCH   6  11
HETATM   11  C   UNL     1       3.127  29.930  52.691  1.00  0.00     0.156 C 
BRANCH  11  12
HETATM   12  C   UNL     1       3.229  31.240  51.936  1.00  0.00     0.223 C 
HETATM   13  N   UNL     1       4.520  31.690  51.789  1.00  0.00    -0.359 N 
HETATM   14  H   UNL     1       5.243  31.198  52.310  1.00  0.00     0.162 HD
HETATM   15  O   UNL     1       2.252  31.835  51.492  1.00  0.00    -0.273 OA
BRANCH  13  16
HETATM   16  C   UNL     1       4.916  33.018  51.319  1.00  0.00     0.150 C 
BRANCH  16  17
HETATM   17  C   UNL     1       5.442  34.011  52.377  1.00  0.00     0.253 C 
BRANCH  17  18
HETATM   18  N   UNL     1       4.550  34.096  53.601  1.00  0.00    -0.077 N 
HETATM   19  H   UNL     1       4.269  33.121  53.828  1.00  0.00     0.279 HD
HETATM   20  C   UNL     1       5.232  34.669  54.813  1.00  0.00     0.269 C 
HETATM   21  C   UNL     1       3.281  34.851  53.306  1.00  0.00     0.269 C 
ENDBRANCH  17  18
ENDBRANCH  16  17
ENDBRANCH  13  16
ENDBRANCH  11  12
ENDBRANCH   6  11
BRANCH   7  22
HETATM   22  C   UNL     1       5.079  27.430  52.757  1.00  0.00    -0.030 A 
HETATM   23  C   UNL     1       5.527  28.370  51.819  1.00  0.00     0.010 A 
HETATM   24  C   UNL     1       5.488  28.080  50.447  1.00  0.00     0.008 A 
HETATM   25  C   UNL     1       5.004  26.851  49.977  1.00  0.00    -0.055 A 
HETATM   26  C   UNL     1       4.625  25.887  50.916  1.00  0.00     0.008 A 
HETATM   27  C   UNL     1       4.665  26.170  52.281  1.00  0.00     0.010 A 
BRANCH  25  28
HETATM   28  C   UNL     1       4.936  26.568  48.484  1.00  0.00     0.010 C 
HETATM   29  C   UNL     1       3.615  25.899  48.108  1.00  0.00     0.015 C 
HETATM   30  C   UNL     1       5.162  27.828  47.638  1.00  0.00     0.015 C 
ENDBRANCH  25  28
ENDBRANCH   7  22
BRANCH  10  31
HETATM   31  C   UNL     1       7.500  27.161  54.512  1.00  0.00     0.294 C 
HETATM   32  O   UNL     1       8.213  27.964  53.958  1.00  0.00    -0.259 OA
BRANCH  31  33
HETATM   33  O   UNL     1       7.658  25.822  54.639  1.00  0.00    -0.313 OA
BRANCH  33  34
HETATM   34  C   UNL     1       7.783  25.073  53.420  1.00  0.00     0.217 C 
BRANCH  34  35
HETATM   35  C   UNL     1       7.780  23.608  53.806  1.00  0.00    -0.034 A 
HETATM   36  C   UNL     1       7.970  22.608  52.837  1.00  0.00     0.009 A 
HETATM   37  C   UNL     1       7.997  21.256  53.188  1.00  0.00     0.001 A 
HETATM   38  C   UNL     1       7.844  20.885  54.520  1.00  0.00     0.000 A 
HETATM   39  C   UNL     1       7.671  21.864  55.496  1.00  0.00     0.001 A 
HETATM   40  C   UNL     1       7.643  23.218  55.143  1.00  0.00     0.009 A 
ENDBRANCH  34  35
ENDBRANCH  33  34
ENDBRANCH  31  33
ENDBRANCH  10  31
TORSDOF 11
ENDMDL
MODEL 7
REMARK VINA RESULT:      -7.5      3.490     10.024
REMARK  11 active torsions:
REMARK  status: ('A' for Active; 'I' for Inactive)
REMARK    1  A    between atoms: C_6  and  C_7 
REMARK    2  A    between atoms: C_7  and  C_8 
REMARK       I    between atoms: C_8  and  N_9 
REMARK    3  A    between atoms: N_9  and  C_10 
REMARK    4  A    between atoms: C_10  and  C_11 
REMARK    5  A    between atoms: C_11  and  N_12 
REMARK    6  A    between atoms: C_17  and  C_18 
REMARK    7  A    between atoms: C_21  and  C_22 
REMARK    8  A    between atoms: C_29  and  C_30 
REMARK    9  A    between atoms: C_30  and  O_31 
REMARK   10  A    between atoms: O_31  and  C_32 
REMARK   11  A    between atoms: C_32  and  C_33 
ROOT
HETATM    1  C   UNL     1       5.745  33.897  63.967  1.00  0.00     0.071 C 
HETATM    2  C   UNL     1       6.200  33.422  62.603  1.00  0.00     0.048 C 
HETATM    3  N   UNL     1       7.535  33.081  62.560  1.00  0.00    -0.229 NA
HETATM    4  C   UNL     1       7.924  32.318  61.597  1.00  0.00     0.170 C 
HETATM    5  N   UNL     1       7.084  31.986  60.305  1.00  0.00    -0.319 N 
HETATM    6  C   UNL     1       7.717  31.115  59.577  1.00  0.00     0.011 C 
HETATM    7  C   UNL     1       5.942  32.931  60.189  1.00  0.00     0.166 C 
HETATM    8  S   UNL     1       9.465  31.532  61.585  1.00  0.00    -0.086 SA
HETATM    9  C   UNL     1       8.901  30.447  60.251  1.00  0.00     0.135 C 
HETATM   10  C   UNL     1       5.382  33.218  61.546  1.00  0.00     0.069 C 
ENDROOT
BRANCH   6  11
HETATM   11  C   UNL     1       7.367  30.772  58.160  1.00  0.00     0.156 C 
BRANCH  11  12
HETATM   12  C   UNL     1       8.051  29.543  57.593  1.00  0.00     0.223 C 
HETATM   13  N   UNL     1       7.294  28.399  57.693  1.00  0.00    -0.359 N 
HETATM   14  H   UNL     1       6.444  28.454  58.249  1.00  0.00     0.162 HD
HETATM   15  O   UNL     1       9.168  29.571  57.088  1.00  0.00    -0.273 OA
BRANCH  13  16
HETATM   16  C   UNL     1       7.768  27.035  57.452  1.00  0.00     0.150 C 
BRANCH  16  17
HETATM   17  C   UNL     1       7.421  26.401  56.088  1.00  0.00     0.253 C 
BRANCH  17  18
HETATM   18  N   UNL     1       6.769  27.380  55.130  1.00  0.00    -0.077 N 
HETATM   19  H   UNL     1       6.459  28.189  55.705  1.00  0.00     0.279 HD
HETATM   20  C   UNL     1       7.697  27.902  54.068  1.00  0.00     0.269 C 
HETATM   21  C   UNL     1       5.529  26.796  54.505  1.00  0.00     0.269 C 
ENDBRANCH  17  18
ENDBRANCH  16  17
ENDBRANCH  13  16
ENDBRANCH  11  12
ENDBRANCH   6  11
BRANCH   7  22
HETATM   22  C   UNL     1       4.979  32.660  59.051  1.00  0.00    -0.030 A 
HETATM   23  C   UNL     1       4.130  31.546  58.997  1.00  0.00     0.010 A 
HETATM   24  C   UNL     1       3.341  31.307  57.862  1.00  0.00     0.008 A 
HETATM   25  C   UNL     1       3.380  32.167  56.756  1.00  0.00    -0.055 A 
HETATM   26  C   UNL     1       4.171  33.316  56.839  1.00  0.00     0.008 A 
HETATM   27  C   UNL     1       4.954  33.560  57.967  1.00  0.00     0.010 A 
BRANCH  25  28
HETATM   28  C   UNL     1       2.544  31.871  55.519  1.00  0.00     0.010 C 
HETATM   29  C   UNL     1       1.804  33.120  55.041  1.00  0.00     0.015 C 
HETATM   30  C   UNL     1       3.376  31.268  54.380  1.00  0.00     0.015 C 
ENDBRANCH  25  28
ENDBRANCH   7  22
BRANCH  10  31
HETATM   31  C   UNL     1       3.966  32.973  61.860  1.00  0.00     0.294 C 
HETATM   32  O   UNL     1       3.462  31.908  62.126  1.00  0.00    -0.259 OA
BRANCH  31  33
HETATM   33  O   UNL     1       3.372  34.175  61.669  1.00  0.00    -0.313 OA
BRANCH  33  34
HETATM   34  C   UNL     1       2.185  34.182  60.859  1.00  0.00     0.217 C 
BRANCH  34  35
HETATM   35  C   UNL     1       2.405  35.214  59.772  1.00  0.00    -0.034 A 
HETATM   36  C   UNL     1       3.460  36.138  59.859  1.00  0.00     0.009 A 
HETATM   37  C   UNL     1       3.688  37.074  58.848  1.00  0.00     0.001 A 
HETATM   38  C   UNL     1       2.866  37.093  57.726  1.00  0.00     0.000 A 
HETATM   39  C   UNL     1       1.825  36.173  57.615  1.00  0.00     0.001 A 
HETATM   40  C   UNL     1       1.597  35.237  58.629  1.00  0.00     0.009 A 
ENDBRANCH  34  35
ENDBRANCH  33  34
ENDBRANCH  31  33
ENDBRANCH  10  31
TORSDOF 11
ENDMDL
MODEL 8
REMARK VINA RESULT:      -7.4      3.463      6.223
REMARK  11 active torsions:
REMARK  status: ('A' for Active; 'I' for Inactive)
REMARK    1  A    between atoms: C_6  and  C_7 
REMARK    2  A    between atoms: C_7  and  C_8 
REMARK       I    between atoms: C_8  and  N_9 
REMARK    3  A    between atoms: N_9  and  C_10 
REMARK    4  A    between atoms: C_10  and  C_11 
REMARK    5  A    between atoms: C_11  and  N_12 
REMARK    6  A    between atoms: C_17  and  C_18 
REMARK    7  A    between atoms: C_21  and  C_22 
REMARK    8  A    between atoms: C_29  and  C_30 
REMARK    9  A    between atoms: C_30  and  O_31 
REMARK   10  A    between atoms: O_31  and  C_32 
REMARK   11  A    between atoms: C_32  and  C_33 
ROOT
HETATM    1  C   UNL     1       6.918  27.278  56.999  1.00  0.00     0.071 C 
HETATM    2  C   UNL     1       5.982  28.221  56.273  1.00  0.00     0.048 C 
HETATM    3  N   UNL     1       5.447  29.196  57.088  1.00  0.00    -0.229 NA
HETATM    4  C   UNL     1       4.970  30.250  56.521  1.00  0.00     0.170 C 
HETATM    5  N   UNL     1       4.669  30.396  54.980  1.00  0.00    -0.319 N 
HETATM    6  C   UNL     1       4.286  31.609  54.717  1.00  0.00     0.011 C 
HETATM    7  C   UNL     1       4.688  29.057  54.333  1.00  0.00     0.166 C 
HETATM    8  S   UNL     1       4.577  31.690  57.394  1.00  0.00    -0.086 SA
HETATM    9  C   UNL     1       4.492  32.611  55.838  1.00  0.00     0.135 C 
HETATM   10  C   UNL     1       5.769  28.218  54.938  1.00  0.00     0.069 C 
ENDROOT
BRANCH   6  11
HETATM   11  C   UNL     1       3.656  32.045  53.427  1.00  0.00     0.156 C 
BRANCH  11  12
HETATM   12  C   UNL     1       2.630  33.155  53.539  1.00  0.00     0.223 C 
HETATM   13  N   UNL     1       1.386  32.716  53.926  1.00  0.00    -0.359 N 
HETATM   14  H   UNL     1       1.239  31.709  53.954  1.00  0.00     0.162 HD
HETATM   15  O   UNL     1       2.890  34.333  53.314  1.00  0.00    -0.273 OA
BRANCH  13  16
HETATM   16  C   UNL     1       0.151  33.503  53.896  1.00  0.00     0.150 C 
BRANCH  16  17
HETATM   17  C   UNL     1      -0.786  33.387  55.116  1.00  0.00     0.253 C 
BRANCH  17  18
HETATM   18  N   UNL     1      -2.024  32.557  54.834  1.00  0.00    -0.077 N 
HETATM   19  H   UNL     1      -1.737  31.562  54.929  1.00  0.00     0.279 HD
HETATM   20  C   UNL     1      -3.154  32.802  55.795  1.00  0.00     0.269 C 
HETATM   21  C   UNL     1      -2.493  32.734  53.414  1.00  0.00     0.269 C 
ENDBRANCH  17  18
ENDBRANCH  16  17
ENDBRANCH  13  16
ENDBRANCH  11  12
ENDBRANCH   6  11
BRANCH   7  22
HETATM   22  C   UNL     1       4.527  29.054  52.826  1.00  0.00    -0.030 A 
HETATM   23  C   UNL     1       5.545  29.414  51.933  1.00  0.00     0.010 A 
HETATM   24  C   UNL     1       5.290  29.488  50.556  1.00  0.00     0.008 A 
HETATM   25  C   UNL     1       4.018  29.208  50.036  1.00  0.00    -0.055 A 
HETATM   26  C   UNL     1       3.023  28.780  50.919  1.00  0.00     0.008 A 
HETATM   27  C   UNL     1       3.273  28.700  52.289  1.00  0.00     0.010 A 
BRANCH  25  28
HETATM   28  C   UNL     1       3.751  29.329  48.543  1.00  0.00     0.010 C 
HETATM   29  C   UNL     1       2.372  28.778  48.183  1.00  0.00     0.015 C 
HETATM   30  C   UNL     1       3.908  30.768  48.034  1.00  0.00     0.015 C 
ENDBRANCH  25  28
ENDBRANCH   7  22
BRANCH  10  31
HETATM   31  C   UNL     1       6.832  27.624  54.113  1.00  0.00     0.294 C 
HETATM   32  O   UNL     1       7.880  28.142  53.807  1.00  0.00    -0.259 OA
BRANCH  31  33
HETATM   33  O   UNL     1       6.311  26.443  53.702  1.00  0.00    -0.313 OA
BRANCH  33  34
HETATM   34  C   UNL     1       7.112  25.671  52.793  1.00  0.00     0.217 C 
BRANCH  34  35
HETATM   35  C   UNL     1       7.345  24.327  53.451  1.00  0.00    -0.034 A 
HETATM   36  C   UNL     1       7.838  23.238  52.711  1.00  0.00     0.009 A 
HETATM   37  C   UNL     1       8.082  22.004  53.316  1.00  0.00     0.001 A 
HETATM   38  C   UNL     1       7.846  21.842  54.678  1.00  0.00     0.000 A 
HETATM   39  C   UNL     1       7.373  22.915  55.430  1.00  0.00     0.001 A 
HETATM   40  C   UNL     1       7.127  24.151  54.823  1.00  0.00     0.009 A 
ENDBRANCH  34  35
ENDBRANCH  33  34
ENDBRANCH  31  33
ENDBRANCH  10  31
TORSDOF 11
ENDMDL
MODEL 9
REMARK VINA RESULT:      -7.3      4.364      9.677
REMARK  11 active torsions:
REMARK  status: ('A' for Active; 'I' for Inactive)
REMARK    1  A    between atoms: C_6  and  C_7 
REMARK    2  A    between atoms: C_7  and  C_8 
REMARK       I    between atoms: C_8  and  N_9 
REMARK    3  A    between atoms: N_9  and  C_10 
REMARK    4  A    between atoms: C_10  and  C_11 
REMARK    5  A    between atoms: C_11  and  N_12 
REMARK    6  A    between atoms: C_17  and  C_18 
REMARK    7  A    between atoms: C_21  and  C_22 
REMARK    8  A    between atoms: C_29  and  C_30 
REMARK    9  A    between atoms: C_30  and  O_31 
REMARK   10  A    between atoms: O_31  and  C_32 
REMARK   11  A    between atoms: C_32  and  C_33 
ROOT
HETATM    1  C   UNL     1       3.655  34.926  53.197  1.00  0.00     0.071 C 
HETATM    2  C   UNL     1       3.928  33.436  53.214  1.00  0.00     0.048 C 
HETATM    3  N   UNL     1       4.518  33.001  54.382  1.00  0.00    -0.229 NA
HETATM    4  C   UNL     1       4.435  31.746  54.658  1.00  0.00     0.170 C 
HETATM    5  N   UNL     1       3.988  30.620  53.650  1.00  0.00    -0.319 N 
HETATM    6  C   UNL     1       3.919  29.477  54.264  1.00  0.00     0.011 C 
HETATM    7  C   UNL     1       4.006  31.152  52.261  1.00  0.00     0.166 C 
HETATM    8  S   UNL     1       4.816  31.100  56.218  1.00  0.00    -0.086 SA
HETATM    9  C   UNL     1       3.993  29.550  55.777  1.00  0.00     0.135 C 
HETATM   10  C   UNL     1       3.530  32.570  52.256  1.00  0.00     0.069 C 
ENDROOT
BRANCH   6  11
HETATM   11  C   UNL     1       3.800  28.147  53.580  1.00  0.00     0.156 C 
BRANCH  11  12
HETATM   12  C   UNL     1       5.075  27.330  53.505  1.00  0.00     0.223 C 
HETATM   13  N   UNL     1       5.023  26.162  54.228  1.00  0.00    -0.359 N 
HETATM   14  H   UNL     1       4.220  26.034  54.841  1.00  0.00     0.162 HD
HETATM   15  O   UNL     1       6.054  27.677  52.853  1.00  0.00    -0.273 OA
BRANCH  13  16
HETATM   16  C   UNL     1       6.159  25.292  54.535  1.00  0.00     0.150 C 
BRANCH  16  17
HETATM   17  C   UNL     1       6.443  24.134  53.554  1.00  0.00     0.253 C 
BRANCH  17  18
HETATM   18  N   UNL     1       7.325  23.055  54.153  1.00  0.00    -0.077 N 
HETATM   19  H   UNL     1       6.705  22.466  54.744  1.00  0.00     0.279 HD
HETATM   20  C   UNL     1       7.972  22.161  53.132  1.00  0.00     0.269 C 
HETATM   21  C   UNL     1       8.364  23.641  55.072  1.00  0.00     0.269 C 
ENDBRANCH  17  18
ENDBRANCH  16  17
ENDBRANCH  13  16
ENDBRANCH  11  12
ENDBRANCH   6  11
BRANCH   7  22
HETATM   22  C   UNL     1       3.489  30.210  51.191  1.00  0.00    -0.030 A 
HETATM   23  C   UNL     1       2.133  29.903  51.013  1.00  0.00     0.010 A 
HETATM   24  C   UNL     1       1.739  28.943  50.070  1.00  0.00     0.008 A 
HETATM   25  C   UNL     1       2.682  28.265  49.285  1.00  0.00    -0.055 A 
HETATM   26  C   UNL     1       4.027  28.623  49.412  1.00  0.00     0.008 A 
HETATM   27  C   UNL     1       4.423  29.581  50.345  1.00  0.00     0.010 A 
BRANCH  25  28
HETATM   28  C   UNL     1       2.239  27.201  48.293  1.00  0.00     0.010 C 
HETATM   29  C   UNL     1       0.877  27.543  47.688  1.00  0.00     0.015 C 
HETATM   30  C   UNL     1       3.275  26.962  47.186  1.00  0.00     0.015 C 
ENDBRANCH  25  28
ENDBRANCH   7  22
BRANCH  10  31
HETATM   31  C   UNL     1       2.388  32.993  51.431  1.00  0.00     0.294 C 
HETATM   32  O   UNL     1       1.220  32.933  51.735  1.00  0.00    -0.259 OA
BRANCH  31  33
HETATM   33  O   UNL     1       2.946  33.345  50.248  1.00  0.00    -0.313 OA
BRANCH  33  34
HETATM   34  C   UNL     1       2.100  33.259  49.090  1.00  0.00     0.217 C 
BRANCH  34  35
HETATM   35  C   UNL     1       2.774  32.302  48.128  1.00  0.00    -0.034 A 
HETATM   36  C   UNL     1       2.014  31.441  47.318  1.00  0.00     0.009 A 
HETATM   37  C   UNL     1       2.626  30.576  46.409  1.00  0.00     0.001 A 
HETATM   38  C   UNL     1       4.012  30.565  46.289  1.00  0.00     0.000 A 
HETATM   39  C   UNL     1       4.780  31.424  47.073  1.00  0.00     0.001 A 
HETATM   40  C   UNL     1       4.167  32.289  47.985  1.00  0.00     0.009 A 
ENDBRANCH  34  35
ENDBRANCH  33  34
ENDBRANCH  31  33
ENDBRANCH  10  31
TORSDOF 11
ENDMDL
MODEL 10
REMARK VINA RESULT:      -7.2      3.086      9.245
REMARK  11 active torsions:
REMARK  status: ('A' for Active; 'I' for Inactive)
REMARK    1  A    between atoms: C_6  and  C_7 
REMARK    2  A    between atoms: C_7  and  C_8 
REMARK       I    between atoms: C_8  and  N_9 
REMARK    3  A    between atoms: N_9  and  C_10 
REMARK    4  A    between atoms: C_10  and  C_11 
REMARK    5  A    between atoms: C_11  and  N_12 
REMARK    6  A    between atoms: C_17  and  C_18 
REMARK    7  A    between atoms: C_21  and  C_22 
REMARK    8  A    between atoms: C_29  and  C_30 
REMARK    9  A    between atoms: C_30  and  O_31 
REMARK   10  A    between atoms: O_31  and  C_32 
REMARK   11  A    between atoms: C_32  and  C_33 
ROOT
HETATM    1  C   UNL     1       7.445  31.787  59.753  1.00  0.00     0.071 C 
HETATM    2  C   UNL     1       6.912  31.106  58.510  1.00  0.00     0.048 C 
HETATM    3  N   UNL     1       7.460  29.860  58.290  1.00  0.00    -0.229 NA
HETATM    4  C   UNL     1       6.817  29.054  57.518  1.00  0.00     0.170 C 
HETATM    5  N   UNL     1       5.626  29.461  56.568  1.00  0.00    -0.319 N 
HETATM    6  C   UNL     1       5.135  28.403  55.996  1.00  0.00     0.011 C 
HETATM    7  C   UNL     1       5.575  30.941  56.431  1.00  0.00     0.166 C 
HETATM    8  S   UNL     1       7.182  27.366  57.408  1.00  0.00    -0.086 SA
HETATM    9  C   UNL     1       5.603  27.079  56.571  1.00  0.00     0.135 C 
HETATM   10  C   UNL     1       5.907  31.582  57.741  1.00  0.00     0.069 C 
ENDROOT
BRANCH   6  11
HETATM   11  C   UNL     1       4.189  28.424  54.831  1.00  0.00     0.156 C 
BRANCH  11  12
HETATM   12  C   UNL     1       4.721  27.828  53.543  1.00  0.00     0.223 C 
HETATM   13  N   UNL     1       4.237  26.568  53.280  1.00  0.00    -0.359 N 
HETATM   14  H   UNL     1       3.706  26.114  54.020  1.00  0.00     0.162 HD
HETATM   15  O   UNL     1       5.501  28.419  52.803  1.00  0.00    -0.273 OA
BRANCH  13  16
HETATM   16  C   UNL     1       4.736  25.655  52.251  1.00  0.00     0.150 C 
BRANCH  16  17
HETATM   17  C   UNL     1       5.665  24.513  52.714  1.00  0.00     0.253 C 
BRANCH  17  18
HETATM   18  N   UNL     1       6.638  24.944  53.795  1.00  0.00    -0.077 N 
HETATM   19  H   UNL     1       6.130  25.630  54.389  1.00  0.00     0.279 HD
HETATM   20  C   UNL     1       7.098  23.822  54.684  1.00  0.00     0.269 C 
HETATM   21  C   UNL     1       7.820  25.673  53.214  1.00  0.00     0.269 C 
ENDBRANCH  17  18
ENDBRANCH  16  17
ENDBRANCH  13  16
ENDBRANCH  11  12
ENDBRANCH   6  11
BRANCH   7  22
HETATM   22  C   UNL     1       4.406  31.485  55.634  1.00  0.00    -0.030 A 
HETATM   23  C   UNL     1       4.534  32.090  54.376  1.00  0.00     0.010 A 
HETATM   24  C   UNL     1       3.421  32.664  53.746  1.00  0.00     0.008 A 
HETATM   25  C   UNL     1       2.156  32.652  54.350  1.00  0.00    -0.055 A 
HETATM   26  C   UNL     1       2.014  31.986  55.571  1.00  0.00     0.008 A 
HETATM   27  C   UNL     1       3.117  31.410  56.200  1.00  0.00     0.010 A 
BRANCH  25  28
HETATM   28  C   UNL     1       0.968  33.311  53.667  1.00  0.00     0.010 C 
HETATM   29  C   UNL     1       0.116  34.089  54.670  1.00  0.00     0.015 C 
HETATM   30  C   UNL     1       1.390  34.216  52.502  1.00  0.00     0.015 C 
ENDBRANCH  25  28
ENDBRANCH   7  22
BRANCH  10  31
HETATM   31  C   UNL     1       4.981  32.522  58.392  1.00  0.00     0.294 C 
HETATM   32  O   UNL     1       4.103  32.241  59.173  1.00  0.00    -0.259 OA
BRANCH  31  33
HETATM   33  O   UNL     1       5.275  33.719  57.831  1.00  0.00    -0.313 OA
BRANCH  33  34
HETATM   34  C   UNL     1       4.246  34.721  57.883  1.00  0.00     0.217 C 
BRANCH  34  35
HETATM   35  C   UNL     1       4.180  35.350  56.507  1.00  0.00    -0.034 A 
HETATM   36  C   UNL     1       5.283  35.297  55.637  1.00  0.00     0.009 A 
HETATM   37  C   UNL     1       5.222  35.850  54.356  1.00  0.00     0.001 A 
HETATM   38  C   UNL     1       4.049  36.457  53.921  1.00  0.00     0.000 A 
HETATM   39  C   UNL     1       2.940  36.504  54.763  1.00  0.00     0.001 A 
HETATM   40  C   UNL     1       3.003  35.952  56.047  1.00  0.00     0.009 A 
ENDBRANCH  34  35
ENDBRANCH  33  34
ENDBRANCH  31  33
ENDBRANCH  10  31
TORSDOF 11
ENDMDL
