MODEL 1
REMARK VINA RESULT:      -8.4      0.000      0.000
REMARK  3 active torsions:
REMARK  status: ('A' for Active; 'I' for Inactive)
REMARK    1  A    between atoms: C_8  and  N_9 
REMARK       I    between atoms: N_9  and  C_10 
REMARK       I    between atoms: C_10  and  N_11 
REMARK    2  A    between atoms: N_11  and  C_12 
REMARK    3  A    between atoms: C_16  and  O_17 
ROOT
HETATM    1  N   UNL     1       5.879  26.619  51.002  1.00  0.00    -0.305 N 
HETATM    2  C   UNL     1       5.900  25.486  51.797  1.00  0.00     0.325 C 
HETATM    3  N   UNL     1       7.209  25.182  52.151  1.00  0.00    -0.309 N 
HETATM    4  O   UNL     1       4.919  24.854  52.161  1.00  0.00    -0.247 OA
HETATM    5  H   UNL     1       6.714  27.182  51.002  1.00  0.00     0.171 HD
HETATM    6  H   UNL     1       7.925  25.634  51.602  1.00  0.00     0.170 HD
ENDROOT
BRANCH   1   7
HETATM    7  C   UNL     1       4.775  27.213  50.414  1.00  0.00     0.086 A 
HETATM    8  C   UNL     1       3.968  28.089  51.118  1.00  0.00     0.052 A 
HETATM    9  C   UNL     1       4.011  28.590  52.512  1.00  0.00     0.072 C 
HETATM   10  N   UNL     1       2.984  28.470  50.251  1.00  0.00    -0.280 N 
HETATM   11  H   UNL     1       2.205  29.096  50.422  1.00  0.00     0.189 HD
HETATM   12  N   UNL     1       3.100  27.934  49.035  1.00  0.00    -0.177 NA
HETATM   13  C   UNL     1       4.194  27.161  49.112  1.00  0.00     0.079 A 
HETATM   14  C   UNL     1       4.621  26.434  47.890  1.00  0.00     0.075 C 
ENDBRANCH   1   7
BRANCH   3  15
HETATM   15  C   UNL     1       7.655  24.252  53.115  1.00  0.00     0.039 A 
HETATM   16  C   UNL     1       7.977  24.582  54.432  1.00  0.00     0.056 A 
HETATM   17  C   UNL     1       8.471  23.604  55.306  1.00  0.00     0.071 A 
HETATM   18 CL   UNL     1       8.866  24.073  56.922  1.00  0.00    -0.081 Cl
HETATM   19  C   UNL     1       8.644  22.284  54.876  1.00  0.00     0.111 A 
HETATM   20  C   UNL     1       8.330  21.956  53.555  1.00  0.00     0.071 A 
HETATM   21 CL   UNL     1       8.577  20.366  52.924  1.00  0.00    -0.081 Cl
HETATM   22  C   UNL     1       7.827  22.930  52.686  1.00  0.00     0.056 A 
BRANCH  19  23
HETATM   23  O   UNL     1       9.210  21.368  55.725  1.00  0.00    -0.352 OA
HETATM   24  C   UNL     1       8.222  20.615  56.430  1.00  0.00     0.210 C 
ENDBRANCH  19  23
ENDBRANCH   3  15
TORSDOF 3
ENDMDL
MODEL 2
REMARK VINA RESULT:      -8.2      0.266      1.994
REMARK  3 active torsions:
REMARK  status: ('A' for Active; 'I' for Inactive)
REMARK    1  A    between atoms: C_8  and  N_9 
REMARK       I    between atoms: N_9  and  C_10 
REMARK       I    between atoms: C_10  and  N_11 
REMARK    2  A    between atoms: N_11  and  C_12 
REMARK    3  A    between atoms: C_16  and  O_17 
ROOT
HETATM    1  N   UNL     1       5.872  26.585  50.817  1.00  0.00    -0.305 N 
HETATM    2  C   UNL     1       5.937  25.466  51.628  1.00  0.00     0.325 C 
HETATM    3  N   UNL     1       7.266  25.136  51.872  1.00  0.00    -0.309 N 
HETATM    4  O   UNL     1       4.979  24.863  52.089  1.00  0.00    -0.247 OA
HETATM    5  H   UNL     1       6.715  27.129  50.733  1.00  0.00     0.171 HD
HETATM    6  H   UNL     1       7.940  25.562  51.253  1.00  0.00     0.170 HD
ENDROOT
BRANCH   1   7
HETATM    7  C   UNL     1       4.733  27.195  50.318  1.00  0.00     0.086 A 
HETATM    8  C   UNL     1       4.020  28.113  51.068  1.00  0.00     0.052 A 
HETATM    9  C   UNL     1       4.207  28.650  52.437  1.00  0.00     0.072 C 
HETATM   10  N   UNL     1       2.968  28.500  50.287  1.00  0.00    -0.280 N 
HETATM   11  H   UNL     1       2.226  29.153  50.511  1.00  0.00     0.189 HD
HETATM   12  N   UNL     1       2.955  27.928  49.081  1.00  0.00    -0.177 NA
HETATM   13  C   UNL     1       4.031  27.126  49.078  1.00  0.00     0.079 A 
HETATM   14  C   UNL     1       4.321  26.354  47.844  1.00  0.00     0.075 C 
ENDBRANCH   1   7
BRANCH   3  15
HETATM   15  C   UNL     1       7.774  24.212  52.809  1.00  0.00     0.039 A 
HETATM   16  C   UNL     1       8.051  22.875  52.521  1.00  0.00     0.056 A 
HETATM   17  C   UNL     1       8.496  22.010  53.530  1.00  0.00     0.071 A 
HETATM   18 CL   UNL     1       8.810  20.362  53.118  1.00  0.00    -0.081 Cl
HETATM   19  C   UNL     1       8.675  22.474  54.838  1.00  0.00     0.111 A 
HETATM   20  C   UNL     1       8.390  23.810  55.129  1.00  0.00     0.071 A 
HETATM   21 CL   UNL     1       8.520  24.446  56.730  1.00  0.00    -0.081 Cl
HETATM   22  C   UNL     1       7.955  24.675  54.118  1.00  0.00     0.056 A 
BRANCH  19  23
HETATM   23  O   UNL     1       9.028  21.587  55.823  1.00  0.00    -0.352 OA
HETATM   24  C   UNL     1       7.899  20.867  56.320  1.00  0.00     0.210 C 
ENDBRANCH  19  23
ENDBRANCH   3  15
TORSDOF 3
ENDMDL
MODEL 3
REMARK VINA RESULT:      -8.1      0.218      1.784
REMARK  3 active torsions:
REMARK  status: ('A' for Active; 'I' for Inactive)
REMARK    1  A    between atoms: C_8  and  N_9 
REMARK       I    between atoms: N_9  and  C_10 
REMARK       I    between atoms: C_10  and  N_11 
REMARK    2  A    between atoms: N_11  and  C_12 
REMARK    3  A    between atoms: C_16  and  O_17 
ROOT
HETATM    1  N   UNL     1       5.838  26.655  50.878  1.00  0.00    -0.305 N 
HETATM    2  C   UNL     1       5.830  25.639  51.817  1.00  0.00     0.325 C 
HETATM    3  N   UNL     1       7.114  25.125  51.967  1.00  0.00    -0.309 N 
HETATM    4  O   UNL     1       4.854  25.259  52.446  1.00  0.00    -0.247 OA
HETATM    5  H   UNL     1       6.738  27.039  50.639  1.00  0.00     0.171 HD
HETATM    6  H   UNL     1       7.765  25.362  51.234  1.00  0.00     0.170 HD
ENDROOT
BRANCH   1   7
HETATM    7  C   UNL     1       4.753  27.385  50.420  1.00  0.00     0.086 A 
HETATM    8  C   UNL     1       4.298  27.257  49.119  1.00  0.00     0.052 A 
HETATM    9  C   UNL     1       4.756  26.436  47.973  1.00  0.00     0.072 C 
HETATM   10  N   UNL     1       3.240  28.114  49.007  1.00  0.00    -0.280 N 
HETATM   11  H   UNL     1       2.665  28.299  48.192  1.00  0.00     0.189 HD
HETATM   12  N   UNL     1       2.955  28.768  50.135  1.00  0.00    -0.177 NA
HETATM   13  C   UNL     1       3.870  28.333  51.015  1.00  0.00     0.079 A 
HETATM   14  C   UNL     1       3.807  28.858  52.403  1.00  0.00     0.075 C 
ENDBRANCH   1   7
BRANCH   3  15
HETATM   15  C   UNL     1       7.585  24.242  52.961  1.00  0.00     0.039 A 
HETATM   16  C   UNL     1       7.920  24.630  54.259  1.00  0.00     0.056 A 
HETATM   17  C   UNL     1       8.439  23.695  55.166  1.00  0.00     0.071 A 
HETATM   18 CL   UNL     1       8.849  24.236  56.755  1.00  0.00    -0.081 Cl
HETATM   19  C   UNL     1       8.625  22.361  54.787  1.00  0.00     0.111 A 
HETATM   20  C   UNL     1       8.298  21.975  53.485  1.00  0.00     0.071 A 
HETATM   21 CL   UNL     1       8.559  20.364  52.916  1.00  0.00    -0.081 Cl
HETATM   22  C   UNL     1       7.770  22.906  52.584  1.00  0.00     0.056 A 
BRANCH  19  23
HETATM   23  O   UNL     1       9.215  21.489  55.665  1.00  0.00    -0.352 OA
HETATM   24  C   UNL     1       8.248  20.741  56.404  1.00  0.00     0.210 C 
ENDBRANCH  19  23
ENDBRANCH   3  15
TORSDOF 3
ENDMDL
MODEL 4
REMARK VINA RESULT:      -8.0      0.597      2.769
REMARK  3 active torsions:
REMARK  status: ('A' for Active; 'I' for Inactive)
REMARK    1  A    between atoms: C_8  and  N_9 
REMARK       I    between atoms: N_9  and  C_10 
REMARK       I    between atoms: C_10  and  N_11 
REMARK    2  A    between atoms: N_11  and  C_12 
REMARK    3  A    between atoms: C_16  and  O_17 
ROOT
HETATM    1  N   UNL     1       5.848  26.945  51.849  1.00  0.00    -0.305 N 
HETATM    2  C   UNL     1       5.923  25.695  52.437  1.00  0.00     0.325 C 
HETATM    3  N   UNL     1       7.255  25.328  52.597  1.00  0.00    -0.309 N 
HETATM    4  O   UNL     1       4.971  25.016  52.790  1.00  0.00    -0.247 OA
HETATM    5  H   UNL     1       6.691  27.496  51.855  1.00  0.00     0.171 HD
HETATM    6  H   UNL     1       7.921  25.862  52.059  1.00  0.00     0.170 HD
ENDROOT
BRANCH   1   7
HETATM    7  C   UNL     1       4.703  27.636  51.487  1.00  0.00     0.086 A 
HETATM    8  C   UNL     1       4.173  27.532  50.213  1.00  0.00     0.052 A 
HETATM    9  C   UNL     1       4.595  26.776  49.010  1.00  0.00     0.072 C 
HETATM   10  N   UNL     1       3.071  28.339  50.199  1.00  0.00    -0.280 N 
HETATM   11  H   UNL     1       2.438  28.524  49.429  1.00  0.00     0.189 HD
HETATM   12  N   UNL     1       2.827  28.938  51.367  1.00  0.00    -0.177 NA
HETATM   13  C   UNL     1       3.816  28.518  52.171  1.00  0.00     0.079 A 
HETATM   14  C   UNL     1       3.816  28.989  53.579  1.00  0.00     0.075 C 
ENDBRANCH   1   7
BRANCH   3  15
HETATM   15  C   UNL     1       7.775  24.247  53.339  1.00  0.00     0.039 A 
HETATM   16  C   UNL     1       8.004  22.974  52.815  1.00  0.00     0.056 A 
HETATM   17  C   UNL     1       8.465  21.940  53.641  1.00  0.00     0.071 A 
HETATM   18 CL   UNL     1       8.718  20.381  52.939  1.00  0.00    -0.081 Cl
HETATM   19  C   UNL     1       8.709  22.168  55.000  1.00  0.00     0.111 A 
HETATM   20  C   UNL     1       8.471  23.439  55.527  1.00  0.00     0.071 A 
HETATM   21 CL   UNL     1       8.681  23.787  57.206  1.00  0.00    -0.081 Cl
HETATM   22  C   UNL     1       8.020  24.473  54.699  1.00  0.00     0.056 A 
BRANCH  19  23
HETATM   23  O   UNL     1       9.076  21.118  55.803  1.00  0.00    -0.352 OA
HETATM   24  C   UNL     1       7.942  20.413  56.310  1.00  0.00     0.210 C 
ENDBRANCH  19  23
ENDBRANCH   3  15
TORSDOF 3
ENDMDL
MODEL 5
REMARK VINA RESULT:      -7.3      3.786      7.762
REMARK  3 active torsions:
REMARK  status: ('A' for Active; 'I' for Inactive)
REMARK    1  A    between atoms: C_8  and  N_9 
REMARK       I    between atoms: N_9  and  C_10 
REMARK       I    between atoms: C_10  and  N_11 
REMARK    2  A    between atoms: N_11  and  C_12 
REMARK    3  A    between atoms: C_16  and  O_17 
ROOT
HETATM    1  N   UNL     1       6.444  24.108  53.720  1.00  0.00    -0.305 N 
HETATM    2  C   UNL     1       6.634  24.785  52.528  1.00  0.00     0.325 C 
HETATM    3  N   UNL     1       5.441  25.377  52.126  1.00  0.00    -0.309 N 
HETATM    4  O   UNL     1       7.691  24.879  51.924  1.00  0.00    -0.247 OA
HETATM    5  H   UNL     1       5.608  24.331  54.236  1.00  0.00     0.171 HD
HETATM    6  H   UNL     1       4.610  25.031  52.581  1.00  0.00     0.170 HD
ENDROOT
BRANCH   1   7
HETATM    7  C   UNL     1       7.376  23.357  54.418  1.00  0.00     0.086 A 
HETATM    8  C   UNL     1       7.824  23.747  55.668  1.00  0.00     0.052 A 
HETATM    9  C   UNL     1       7.509  24.913  56.526  1.00  0.00     0.072 C 
HETATM   10  N   UNL     1       8.729  22.799  56.053  1.00  0.00    -0.280 N 
HETATM   11  H   UNL     1       9.272  22.761  56.909  1.00  0.00     0.189 HD
HETATM   12  N   UNL     1       8.886  21.813  55.168  1.00  0.00    -0.177 NA
HETATM   13  C   UNL     1       8.063  22.135  54.158  1.00  0.00     0.079 A 
HETATM   14  C   UNL     1       7.980  21.205  53.003  1.00  0.00     0.075 C 
ENDBRANCH   1   7
BRANCH   3  15
HETATM   15  C   UNL     1       5.245  26.325  51.100  1.00  0.00     0.039 A 
HETATM   16  C   UNL     1       5.553  27.681  51.217  1.00  0.00     0.056 A 
HETATM   17  C   UNL     1       5.267  28.565  50.168  1.00  0.00     0.071 A 
HETATM   18 CL   UNL     1       5.657  30.236  50.374  1.00  0.00    -0.081 Cl
HETATM   19  C   UNL     1       4.676  28.103  48.987  1.00  0.00     0.111 A 
HETATM   20  C   UNL     1       4.359  26.747  48.873  1.00  0.00     0.071 A 
HETATM   21 CL   UNL     1       3.568  26.106  47.478  1.00  0.00    -0.081 Cl
HETATM   22  C   UNL     1       4.654  25.864  49.918  1.00  0.00     0.056 A 
BRANCH  19  23
HETATM   23  O   UNL     1       4.328  29.003  48.012  1.00  0.00    -0.352 OA
HETATM   24  C   UNL     1       3.019  29.535  48.220  1.00  0.00     0.210 C 
ENDBRANCH  19  23
ENDBRANCH   3  15
TORSDOF 3
ENDMDL
MODEL 6
REMARK VINA RESULT:      -7.3      3.769      7.999
REMARK  3 active torsions:
REMARK  status: ('A' for Active; 'I' for Inactive)
REMARK    1  A    between atoms: C_8  and  N_9 
REMARK       I    between atoms: N_9  and  C_10 
REMARK       I    between atoms: C_10  and  N_11 
REMARK    2  A    between atoms: N_11  and  C_12 
REMARK    3  A    between atoms: C_16  and  O_17 
ROOT
HETATM    1  N   UNL     1       6.479  24.142  53.568  1.00  0.00    -0.305 N 
HETATM    2  C   UNL     1       6.595  24.847  52.383  1.00  0.00     0.325 C 
HETATM    3  N   UNL     1       5.345  25.302  51.980  1.00  0.00    -0.309 N 
HETATM    4  O   UNL     1       7.638  25.066  51.785  1.00  0.00    -0.247 OA
HETATM    5  H   UNL     1       5.621  24.264  54.082  1.00  0.00     0.171 HD
HETATM    6  H   UNL     1       4.556  24.860  52.428  1.00  0.00     0.170 HD
ENDROOT
BRANCH   1   7
HETATM    7  C   UNL     1       7.488  23.497  54.265  1.00  0.00     0.086 A 
HETATM    8  C   UNL     1       8.026  24.038  55.419  1.00  0.00     0.052 A 
HETATM    9  C   UNL     1       7.749  25.290  56.162  1.00  0.00     0.072 C 
HETATM   10  N   UNL     1       8.988  23.161  55.831  1.00  0.00    -0.280 N 
HETATM   11  H   UNL     1       9.602  23.234  56.635  1.00  0.00     0.189 HD
HETATM   12  N   UNL     1       9.101  22.081  55.054  1.00  0.00    -0.177 NA
HETATM   13  C   UNL     1       8.187  22.266  54.088  1.00  0.00     0.079 A 
HETATM   14  C   UNL     1       8.036  21.207  53.059  1.00  0.00     0.075 C 
ENDBRANCH   1   7
BRANCH   3  15
HETATM   15  C   UNL     1       5.045  26.231  50.961  1.00  0.00     0.039 A 
HETATM   16  C   UNL     1       4.458  25.893  49.741  1.00  0.00     0.056 A 
HETATM   17  C   UNL     1       4.253  26.872  48.759  1.00  0.00     0.071 A 
HETATM   18 CL   UNL     1       3.535  26.393  47.262  1.00  0.00    -0.081 Cl
HETATM   19  C   UNL     1       4.625  28.201  48.988  1.00  0.00     0.111 A 
HETATM   20  C   UNL     1       5.221  28.538  50.206  1.00  0.00     0.071 A 
HETATM   21 CL   UNL     1       5.771  30.140  50.543  1.00  0.00    -0.081 Cl
HETATM   22  C   UNL     1       5.416  27.561  51.189  1.00  0.00     0.056 A 
BRANCH  19  23
HETATM   23  O   UNL     1       4.492  29.120  47.979  1.00  0.00    -0.352 OA
HETATM   24  C   UNL     1       3.250  29.822  48.058  1.00  0.00     0.210 C 
ENDBRANCH  19  23
ENDBRANCH   3  15
TORSDOF 3
ENDMDL
MODEL 7
REMARK VINA RESULT:      -7.2      2.058      3.391
REMARK  3 active torsions:
REMARK  status: ('A' for Active; 'I' for Inactive)
REMARK    1  A    between atoms: C_8  and  N_9 
REMARK       I    between atoms: N_9  and  C_10 
REMARK       I    between atoms: C_10  and  N_11 
REMARK    2  A    between atoms: N_11  and  C_12 
REMARK    3  A    between atoms: C_16  and  O_17 
ROOT
HETATM    1  N   UNL     1       3.995  26.967  50.446  1.00  0.00    -0.305 N 
HETATM    2  C   UNL     1       5.037  26.775  51.335  1.00  0.00     0.325 C 
HETATM    3  N   UNL     1       4.683  25.815  52.276  1.00  0.00    -0.309 N 
HETATM    4  O   UNL     1       6.120  27.340  51.295  1.00  0.00    -0.247 OA
HETATM    5  H   UNL     1       3.278  26.259  50.433  1.00  0.00     0.171 HD
HETATM    6  H   UNL     1       3.698  25.606  52.336  1.00  0.00     0.170 HD
ENDROOT
BRANCH   1   7
HETATM    7  C   UNL     1       3.942  27.868  49.395  1.00  0.00     0.086 A 
HETATM    8  C   UNL     1       3.733  27.445  48.094  1.00  0.00     0.052 A 
HETATM    9  C   UNL     1       3.539  26.103  47.495  1.00  0.00     0.072 C 
HETATM   10  N   UNL     1       3.750  28.574  47.325  1.00  0.00    -0.280 N 
HETATM   11  H   UNL     1       3.643  28.651  46.320  1.00  0.00     0.189 HD
HETATM   12  N   UNL     1       3.926  29.698  48.024  1.00  0.00    -0.177 NA
HETATM   13  C   UNL     1       4.043  29.287  49.296  1.00  0.00     0.079 A 
HETATM   14  C   UNL     1       4.224  30.320  50.348  1.00  0.00     0.075 C 
ENDBRANCH   1   7
BRANCH   3  15
HETATM   15  C   UNL     1       5.516  25.171  53.216  1.00  0.00     0.039 A 
HETATM   16  C   UNL     1       6.463  24.199  52.887  1.00  0.00     0.056 A 
HETATM   17  C   UNL     1       7.206  23.566  53.893  1.00  0.00     0.071 A 
HETATM   18 CL   UNL     1       8.354  22.361  53.429  1.00  0.00    -0.081 Cl
HETATM   19  C   UNL     1       7.016  23.901  55.238  1.00  0.00     0.111 A 
HETATM   20  C   UNL     1       6.062  24.867  55.568  1.00  0.00     0.071 A 
HETATM   21 CL   UNL     1       5.718  25.291  57.207  1.00  0.00    -0.081 Cl
HETATM   22  C   UNL     1       5.328  25.506  54.562  1.00  0.00     0.056 A 
BRANCH  19  23
HETATM   23  O   UNL     1       7.694  23.206  56.207  1.00  0.00    -0.352 OA
HETATM   24  C   UNL     1       8.877  23.888  56.623  1.00  0.00     0.210 C 
ENDBRANCH  19  23
ENDBRANCH   3  15
TORSDOF 3
ENDMDL
MODEL 8
REMARK VINA RESULT:      -7.2      3.576      7.843
REMARK  3 active torsions:
REMARK  status: ('A' for Active; 'I' for Inactive)
REMARK    1  A    between atoms: C_8  and  N_9 
REMARK       I    between atoms: N_9  and  C_10 
REMARK       I    between atoms: C_10  and  N_11 
REMARK    2  A    between atoms: N_11  and  C_12 
REMARK    3  A    between atoms: C_16  and  O_17 
ROOT
HETATM    1  N   UNL     1       7.934  23.695  53.741  1.00  0.00    -0.305 N 
HETATM    2  C   UNL     1       6.842  24.534  53.601  1.00  0.00     0.325 C 
HETATM    3  N   UNL     1       7.098  25.480  52.613  1.00  0.00    -0.309 N 
HETATM    4  O   UNL     1       5.796  24.451  54.225  1.00  0.00    -0.247 OA
HETATM    5  H   UNL     1       8.610  23.707  52.995  1.00  0.00     0.171 HD
HETATM    6  H   UNL     1       8.067  25.582  52.350  1.00  0.00     0.170 HD
ENDROOT
BRANCH   1   7
HETATM    7  C   UNL     1       8.085  22.658  54.647  1.00  0.00     0.086 A 
HETATM    8  C   UNL     1       8.106  21.338  54.233  1.00  0.00     0.052 A 
HETATM    9  C   UNL     1       7.984  20.705  52.898  1.00  0.00     0.072 C 
HETATM   10  N   UNL     1       8.256  20.592  55.366  1.00  0.00    -0.280 N 
HETATM   11  H   UNL     1       8.300  19.582  55.453  1.00  0.00     0.189 HD
HETATM   12  N   UNL     1       8.360  21.320  56.480  1.00  0.00    -0.177 NA
HETATM   13  C   UNL     1       8.260  22.590  56.061  1.00  0.00     0.079 A 
HETATM   14  C   UNL     1       8.369  23.669  57.075  1.00  0.00     0.075 C 
ENDBRANCH   1   7
BRANCH   3  15
HETATM   15  C   UNL     1       6.188  26.373  52.009  1.00  0.00     0.039 A 
HETATM   16  C   UNL     1       5.831  27.610  52.547  1.00  0.00     0.056 A 
HETATM   17  C   UNL     1       4.871  28.408  51.910  1.00  0.00     0.071 A 
HETATM   18 CL   UNL     1       4.458  29.925  52.628  1.00  0.00    -0.081 Cl
HETATM   19  C   UNL     1       4.261  27.981  50.725  1.00  0.00     0.111 A 
HETATM   20  C   UNL     1       4.611  26.739  50.192  1.00  0.00     0.071 A 
HETATM   21 CL   UNL     1       3.859  26.107  48.771  1.00  0.00    -0.081 Cl
HETATM   22  C   UNL     1       5.578  25.947  50.823  1.00  0.00     0.056 A 
BRANCH  19  23
HETATM   23  O   UNL     1       3.263  28.741  50.170  1.00  0.00    -0.352 OA
HETATM   24  C   UNL     1       3.759  29.606  49.148  1.00  0.00     0.210 C 
ENDBRANCH  19  23
ENDBRANCH   3  15
TORSDOF 3
ENDMDL
MODEL 9
REMARK VINA RESULT:      -7.1     10.285     12.448
REMARK  3 active torsions:
REMARK  status: ('A' for Active; 'I' for Inactive)
REMARK    1  A    between atoms: C_8  and  N_9 
REMARK       I    between atoms: N_9  and  C_10 
REMARK       I    between atoms: C_10  and  N_11 
REMARK    2  A    between atoms: N_11  and  C_12 
REMARK    3  A    between atoms: C_16  and  O_17 
ROOT
HETATM    1  N   UNL     1       7.637  30.115  59.270  1.00  0.00    -0.305 N 
HETATM    2  C   UNL     1       7.284  31.417  59.578  1.00  0.00     0.325 C 
HETATM    3  N   UNL     1       6.605  31.447  60.791  1.00  0.00    -0.309 N 
HETATM    4  O   UNL     1       7.546  32.404  58.907  1.00  0.00    -0.247 OA
HETATM    5  H   UNL     1       7.596  29.447  60.023  1.00  0.00     0.171 HD
HETATM    6  H   UNL     1       6.256  30.557  61.116  1.00  0.00     0.170 HD
ENDROOT
BRANCH   1   7
HETATM    7  C   UNL     1       8.284  29.668  58.130  1.00  0.00     0.086 A 
HETATM    8  C   UNL     1       7.704  28.730  57.293  1.00  0.00     0.052 A 
HETATM    9  C   UNL     1       6.410  28.008  57.343  1.00  0.00     0.072 C 
HETATM   10  N   UNL     1       8.605  28.513  56.291  1.00  0.00    -0.280 N 
HETATM   11  H   UNL     1       8.528  27.879  55.503  1.00  0.00     0.189 HD
HETATM   12  N   UNL     1       9.712  29.252  56.393  1.00  0.00    -0.177 NA
HETATM   13  C   UNL     1       9.534  29.969  57.513  1.00  0.00     0.079 A 
HETATM   14  C   UNL     1      10.596  30.932  57.900  1.00  0.00     0.075 C 
ENDBRANCH   1   7
BRANCH   3  15
HETATM   15  C   UNL     1       6.264  32.574  61.568  1.00  0.00     0.039 A 
HETATM   16  C   UNL     1       5.404  33.588  61.143  1.00  0.00     0.056 A 
HETATM   17  C   UNL     1       5.169  34.705  61.957  1.00  0.00     0.071 A 
HETATM   18 CL   UNL     1       4.106  35.936  61.373  1.00  0.00    -0.081 Cl
HETATM   19  C   UNL     1       5.786  34.818  63.208  1.00  0.00     0.111 A 
HETATM   20  C   UNL     1       6.653  33.808  63.630  1.00  0.00     0.071 A 
HETATM   21 CL   UNL     1       7.507  33.901  65.129  1.00  0.00    -0.081 Cl
HETATM   22  C   UNL     1       6.879  32.688  62.821  1.00  0.00     0.056 A 
BRANCH  19  23
HETATM   23  O   UNL     1       5.606  35.960  63.946  1.00  0.00    -0.352 OA
HETATM   24  C   UNL     1       4.524  35.833  64.868  1.00  0.00     0.210 C 
ENDBRANCH  19  23
ENDBRANCH   3  15
TORSDOF 3
ENDMDL
MODEL 10
REMARK VINA RESULT:      -7.1     10.044     12.053
REMARK  3 active torsions:
REMARK  status: ('A' for Active; 'I' for Inactive)
REMARK    1  A    between atoms: C_8  and  N_9 
REMARK       I    between atoms: N_9  and  C_10 
REMARK       I    between atoms: C_10  and  N_11 
REMARK    2  A    between atoms: N_11  and  C_12 
REMARK    3  A    between atoms: C_16  and  O_17 
ROOT
HETATM    1  N   UNL     1       8.144  30.070  59.031  1.00  0.00    -0.305 N 
HETATM    2  C   UNL     1       7.479  31.211  59.444  1.00  0.00     0.325 C 
HETATM    3  N   UNL     1       7.146  31.102  60.789  1.00  0.00    -0.309 N 
HETATM    4  O   UNL     1       7.238  32.186  58.748  1.00  0.00    -0.247 OA
HETATM    5  H   UNL     1       8.506  29.473  59.756  1.00  0.00     0.171 HD
HETATM    6  H   UNL     1       7.192  30.170  61.174  1.00  0.00     0.170 HD
ENDROOT
BRANCH   1   7
HETATM    7  C   UNL     1       8.599  29.778  57.755  1.00  0.00     0.086 A 
HETATM    8  C   UNL     1       7.768  29.209  56.807  1.00  0.00     0.052 A 
HETATM    9  C   UNL     1       6.349  28.784  56.844  1.00  0.00     0.072 C 
HETATM   10  N   UNL     1       8.533  29.049  55.686  1.00  0.00    -0.280 N 
HETATM   11  H   UNL     1       8.263  28.650  54.794  1.00  0.00     0.189 HD
HETATM   12  N   UNL     1       9.784  29.493  55.820  1.00  0.00    -0.177 NA
HETATM   13  C   UNL     1       9.845  29.947  57.082  1.00  0.00     0.079 A 
HETATM   14  C   UNL     1      11.122  30.545  57.546  1.00  0.00     0.075 C 
ENDBRANCH   1   7
BRANCH   3  15
HETATM   15  C   UNL     1       6.663  32.111  61.649  1.00  0.00     0.039 A 
HETATM   16  C   UNL     1       7.298  32.506  62.828  1.00  0.00     0.056 A 
HETATM   17  C   UNL     1       6.716  33.476  63.655  1.00  0.00     0.071 A 
HETATM   18 CL   UNL     1       7.540  33.916  65.108  1.00  0.00    -0.081 Cl
HETATM   19  C   UNL     1       5.494  34.066  63.312  1.00  0.00     0.111 A 
HETATM   20  C   UNL     1       4.854  33.664  62.137  1.00  0.00     0.071 A 
HETATM   21 CL   UNL     1       3.313  34.293  61.674  1.00  0.00    -0.081 Cl
HETATM   22  C   UNL     1       5.442  32.703  61.306  1.00  0.00     0.056 A 
BRANCH  19  23
HETATM   23  O   UNL     1       4.905  34.948  64.181  1.00  0.00    -0.352 OA
HETATM   24  C   UNL     1       5.236  36.302  63.872  1.00  0.00     0.210 C 
ENDBRANCH  19  23
ENDBRANCH   3  15
TORSDOF 3
ENDMDL
