MODEL 1
REMARK VINA RESULT:      -9.9      0.000      0.000
REMARK  5 active torsions:
REMARK  status: ('A' for Active; 'I' for Inactive)
REMARK    1  A    between atoms: C_4  and  C_5 
REMARK    2  A    between atoms: C_5  and  C_6 
REMARK    3  A    between atoms: C_6  and  N_7 
REMARK       I    between atoms: N_7  and  C_8 
REMARK       I    between atoms: C_8  and  N_9 
REMARK    4  A    between atoms: N_9  and  N_10 
REMARK       I    between atoms: N_10  and  C_11 
REMARK    5  A    between atoms: C_11  and  C_12 
ROOT
HETATM    1  N   UNL     1       6.973  26.506  53.300  1.00  0.00    -0.341 N 
HETATM    2  C   UNL     1       7.189  27.825  53.625  1.00  0.00     0.334 C 
HETATM    3  N   UNL     1       6.364  28.701  52.970  1.00  0.00    -0.249 N 
HETATM    4  O   UNL     1       8.028  28.211  54.431  1.00  0.00    -0.246 OA
HETATM    5  H   UNL     1       6.693  26.420  52.332  1.00  0.00     0.164 HD
HETATM    6  H   UNL     1       6.516  29.702  53.089  1.00  0.00     0.192 HD
ENDROOT
BRANCH   3   7
HETATM    7  N   UNL     1       5.302  28.288  52.151  1.00  0.00    -0.262 N 
HETATM    8  C   UNL     1       5.097  28.994  50.974  1.00  0.00     0.272 C 
HETATM    9  O   UNL     1       5.925  29.798  50.549  1.00  0.00    -0.266 OA
HETATM   10  H   UNL     1       4.515  27.869  52.631  1.00  0.00     0.190 HD
BRANCH   8  11
HETATM   11  C   UNL     1       3.821  28.738  50.304  1.00  0.00     0.061 A 
HETATM   12  C   UNL     1       3.583  27.770  49.265  1.00  0.00     0.008 A 
HETATM   13  C   UNL     1       2.239  27.857  48.900  1.00  0.00     0.043 A 
HETATM   14  C   UNL     1       4.392  26.826  48.596  1.00  0.00     0.015 A 
HETATM   15  C   UNL     1       1.667  27.054  47.906  1.00  0.00     0.030 A 
HETATM   16  N   UNL     1       1.671  28.832  49.682  1.00  0.00    -0.364 N 
HETATM   17  C   UNL     1       2.492  26.128  47.262  1.00  0.00     0.002 A 
HETATM   18  C   UNL     1       3.837  26.013  47.601  1.00  0.00     0.001 A 
HETATM   19  H   UNL     1       0.699  29.108  49.631  1.00  0.00     0.165 HD
HETATM   20  C   UNL     1       2.605  29.366  50.533  1.00  0.00     0.106 A 
ENDBRANCH   8  11
ENDBRANCH   3   7
BRANCH   1  21
HETATM   21  C   UNL     1       7.874  25.502  53.831  1.00  0.00     0.138 C 
BRANCH  21  22
HETATM   22  C   UNL     1       7.210  24.665  54.944  1.00  0.00     0.003 C 
HETATM   23  C   UNL     1       5.714  25.005  55.287  1.00  0.00     0.016 C 
HETATM   24  C   UNL     1       6.189  25.801  56.512  1.00  0.00     0.002 C 
HETATM   25  C   UNL     1       7.542  25.081  56.422  1.00  0.00     0.016 C 
BRANCH  22  26
HETATM   26  C   UNL     1       7.502  23.107  54.583  1.00  0.00    -0.048 A 
HETATM   27  C   UNL     1       7.594  22.117  55.585  1.00  0.00     0.008 A 
HETATM   28  C   UNL     1       7.874  20.781  55.286  1.00  0.00     0.001 A 
HETATM   29  C   UNL     1       8.073  20.390  53.968  1.00  0.00     0.000 A 
HETATM   30  C   UNL     1       7.996  21.336  52.951  1.00  0.00     0.001 A 
HETATM   31  C   UNL     1       7.716  22.671  53.258  1.00  0.00     0.008 A 
ENDBRANCH  22  26
ENDBRANCH  21  22
ENDBRANCH   1  21
TORSDOF 5
ENDMDL
MODEL 2
REMARK VINA RESULT:      -9.8      3.901      7.405
REMARK  5 active torsions:
REMARK  status: ('A' for Active; 'I' for Inactive)
REMARK    1  A    between atoms: C_4  and  C_5 
REMARK    2  A    between atoms: C_5  and  C_6 
REMARK    3  A    between atoms: C_6  and  N_7 
REMARK       I    between atoms: N_7  and  C_8 
REMARK       I    between atoms: C_8  and  N_9 
REMARK    4  A    between atoms: N_9  and  N_10 
REMARK       I    between atoms: N_10  and  C_11 
REMARK    5  A    between atoms: C_11  and  C_12 
ROOT
HETATM    1  N   UNL     1       7.713  26.363  54.096  1.00  0.00    -0.341 N 
HETATM    2  C   UNL     1       6.910  27.270  53.446  1.00  0.00     0.334 C 
HETATM    3  N   UNL     1       7.103  28.568  53.841  1.00  0.00    -0.249 N 
HETATM    4  O   UNL     1       6.092  26.976  52.582  1.00  0.00    -0.246 OA
HETATM    5  H   UNL     1       7.882  26.656  55.049  1.00  0.00     0.164 HD
HETATM    6  H   UNL     1       6.488  29.291  53.472  1.00  0.00     0.192 HD
ENDROOT
BRANCH   3   7
HETATM    7  N   UNL     1       8.123  28.956  54.723  1.00  0.00    -0.262 N 
HETATM    8  C   UNL     1       7.806  29.018  56.073  1.00  0.00     0.272 C 
HETATM    9  O   UNL     1       6.758  28.549  56.513  1.00  0.00    -0.266 OA
HETATM   10  H   UNL     1       8.819  29.585  54.340  1.00  0.00     0.190 HD
BRANCH   8  11
HETATM   11  C   UNL     1       8.784  29.707  56.916  1.00  0.00     0.061 A 
HETATM   12  C   UNL     1       8.491  30.575  58.027  1.00  0.00     0.008 A 
HETATM   13  C   UNL     1       9.704  31.027  58.547  1.00  0.00     0.043 A 
HETATM   14  C   UNL     1       7.299  31.022  58.638  1.00  0.00     0.015 A 
HETATM   15  C   UNL     1       9.786  31.899  59.640  1.00  0.00     0.030 A 
HETATM   16  N   UNL     1      10.703  30.460  57.794  1.00  0.00    -0.364 N 
HETATM   17  C   UNL     1       8.590  32.323  60.224  1.00  0.00     0.002 A 
HETATM   18  C   UNL     1       7.362  31.892  59.733  1.00  0.00     0.001 A 
HETATM   19  H   UNL     1      11.690  30.615  57.949  1.00  0.00     0.165 HD
HETATM   20  C   UNL     1      10.167  29.662  56.816  1.00  0.00     0.106 A 
ENDBRANCH   8  11
ENDBRANCH   3   7
BRANCH   1  21
HETATM   21  C   UNL     1       7.503  24.949  53.854  1.00  0.00     0.138 C 
BRANCH  21  22
HETATM   22  C   UNL     1       7.509  24.134  55.164  1.00  0.00     0.003 C 
HETATM   23  C   UNL     1       6.248  24.279  56.092  1.00  0.00     0.016 C 
HETATM   24  C   UNL     1       7.032  25.252  56.985  1.00  0.00     0.002 C 
HETATM   25  C   UNL     1       8.335  24.736  56.357  1.00  0.00     0.016 C 
BRANCH  22  26
HETATM   26  C   UNL     1       7.896  22.609  54.755  1.00  0.00    -0.048 A 
HETATM   27  C   UNL     1       8.268  21.653  55.725  1.00  0.00     0.008 A 
HETATM   28  C   UNL     1       8.631  20.348  55.380  1.00  0.00     0.001 A 
HETATM   29  C   UNL     1       8.637  19.957  54.046  1.00  0.00     0.000 A 
HETATM   30  C   UNL     1       8.282  20.871  53.060  1.00  0.00     0.001 A 
HETATM   31  C   UNL     1       7.921  22.175  53.413  1.00  0.00     0.008 A 
ENDBRANCH  22  26
ENDBRANCH  21  22
ENDBRANCH   1  21
TORSDOF 5
ENDMDL
MODEL 3
REMARK VINA RESULT:      -9.8      2.453      3.482
REMARK  5 active torsions:
REMARK  status: ('A' for Active; 'I' for Inactive)
REMARK    1  A    between atoms: C_4  and  C_5 
REMARK    2  A    between atoms: C_5  and  C_6 
REMARK    3  A    between atoms: C_6  and  N_7 
REMARK       I    between atoms: N_7  and  C_8 
REMARK       I    between atoms: C_8  and  N_9 
REMARK    4  A    between atoms: N_9  and  N_10 
REMARK       I    between atoms: N_10  and  C_11 
REMARK    5  A    between atoms: C_11  and  C_12 
ROOT
HETATM    1  N   UNL     1       6.174  25.993  55.190  1.00  0.00    -0.341 N 
HETATM    2  C   UNL     1       5.640  26.094  56.453  1.00  0.00     0.334 C 
HETATM    3  N   UNL     1       4.638  27.022  56.560  1.00  0.00    -0.249 N 
HETATM    4  O   UNL     1       6.001  25.423  57.413  1.00  0.00    -0.246 OA
HETATM    5  H   UNL     1       6.171  26.892  54.729  1.00  0.00     0.164 HD
HETATM    6  H   UNL     1       4.248  27.221  57.480  1.00  0.00     0.192 HD
ENDROOT
BRANCH   3   7
HETATM    7  N   UNL     1       4.105  27.706  55.457  1.00  0.00    -0.262 N 
HETATM    8  C   UNL     1       4.718  28.896  55.091  1.00  0.00     0.272 C 
HETATM    9  O   UNL     1       5.804  29.234  55.558  1.00  0.00    -0.266 OA
HETATM   10  H   UNL     1       3.111  27.583  55.302  1.00  0.00     0.190 HD
BRANCH   8  11
HETATM   11  C   UNL     1       3.967  29.723  54.145  1.00  0.00     0.061 A 
HETATM   12  C   UNL     1       3.815  29.480  52.734  1.00  0.00     0.008 A 
HETATM   13  C   UNL     1       3.035  30.509  52.206  1.00  0.00     0.043 A 
HETATM   14  C   UNL     1       4.273  28.475  51.854  1.00  0.00     0.015 A 
HETATM   15  C   UNL     1       2.693  30.585  50.849  1.00  0.00     0.030 A 
HETATM   16  N   UNL     1       2.716  31.348  53.244  1.00  0.00    -0.364 N 
HETATM   17  C   UNL     1       3.161  29.577  50.003  1.00  0.00     0.002 A 
HETATM   18  C   UNL     1       3.940  28.534  50.496  1.00  0.00     0.001 A 
HETATM   19  H   UNL     1       2.155  32.184  53.149  1.00  0.00     0.165 HD
HETATM   20  C   UNL     1       3.263  30.887  54.415  1.00  0.00     0.106 A 
ENDBRANCH   8  11
ENDBRANCH   3   7
BRANCH   1  21
HETATM   21  C   UNL     1       7.329  25.139  54.989  1.00  0.00     0.138 C 
BRANCH  21  22
HETATM   22  C   UNL     1       7.235  24.346  53.670  1.00  0.00     0.003 C 
HETATM   23  C   UNL     1       8.009  24.936  52.434  1.00  0.00     0.016 C 
HETATM   24  C   UNL     1       6.688  25.507  51.896  1.00  0.00     0.002 C 
HETATM   25  C   UNL     1       5.927  24.550  52.824  1.00  0.00     0.016 C 
BRANCH  22  26
HETATM   26  C   UNL     1       7.588  22.801  54.035  1.00  0.00    -0.048 A 
HETATM   27  C   UNL     1       7.566  22.330  55.365  1.00  0.00     0.008 A 
HETATM   28  C   UNL     1       7.897  21.012  55.691  1.00  0.00     0.001 A 
HETATM   29  C   UNL     1       8.265  20.119  54.692  1.00  0.00     0.000 A 
HETATM   30  C   UNL     1       8.304  20.546  53.369  1.00  0.00     0.001 A 
HETATM   31  C   UNL     1       7.973  21.867  53.050  1.00  0.00     0.008 A 
ENDBRANCH  22  26
ENDBRANCH  21  22
ENDBRANCH   1  21
TORSDOF 5
ENDMDL
MODEL 4
REMARK VINA RESULT:      -9.8      4.024      7.719
REMARK  5 active torsions:
REMARK  status: ('A' for Active; 'I' for Inactive)
REMARK    1  A    between atoms: C_4  and  C_5 
REMARK    2  A    between atoms: C_5  and  C_6 
REMARK    3  A    between atoms: C_6  and  N_7 
REMARK       I    between atoms: N_7  and  C_8 
REMARK       I    between atoms: C_8  and  N_9 
REMARK    4  A    between atoms: N_9  and  N_10 
REMARK       I    between atoms: N_10  and  C_11 
REMARK    5  A    between atoms: C_11  and  C_12 
ROOT
HETATM    1  N   UNL     1       6.488  26.380  54.908  1.00  0.00    -0.341 N 
HETATM    2  C   UNL     1       5.559  27.283  54.446  1.00  0.00     0.334 C 
HETATM    3  N   UNL     1       5.868  28.589  54.722  1.00  0.00    -0.249 N 
HETATM    4  O   UNL     1       4.543  26.979  53.832  1.00  0.00    -0.246 OA
HETATM    5  H   UNL     1       6.900  26.704  55.773  1.00  0.00     0.164 HD
HETATM    6  H   UNL     1       5.191  29.314  54.491  1.00  0.00     0.192 HD
ENDROOT
BRANCH   3   7
HETATM    7  N   UNL     1       7.086  28.984  55.296  1.00  0.00    -0.262 N 
HETATM    8  C   UNL     1       7.166  28.978  56.681  1.00  0.00     0.272 C 
HETATM    9  O   UNL     1       6.302  28.448  57.377  1.00  0.00    -0.266 OA
HETATM   10  H   UNL     1       7.626  29.656  54.763  1.00  0.00     0.190 HD
BRANCH   8  11
HETATM   11  C   UNL     1       8.325  29.672  57.245  1.00  0.00     0.061 A 
HETATM   12  C   UNL     1       8.310  30.601  58.346  1.00  0.00     0.008 A 
HETATM   13  C   UNL     1       9.619  31.035  58.555  1.00  0.00     0.043 A 
HETATM   14  C   UNL     1       7.298  31.116  59.184  1.00  0.00     0.015 A 
HETATM   15  C   UNL     1       9.966  31.954  59.554  1.00  0.00     0.030 A 
HETATM   16  N   UNL     1      10.409  30.400  57.629  1.00  0.00    -0.364 N 
HETATM   17  C   UNL     1       8.943  32.446  60.368  1.00  0.00     0.002 A 
HETATM   18  C   UNL     1       7.625  32.034  60.189  1.00  0.00     0.001 A 
HETATM   19  H   UNL     1      11.409  30.528  57.550  1.00  0.00     0.165 HD
HETATM   20  C   UNL     1       9.649  29.575  56.840  1.00  0.00     0.106 A 
ENDBRANCH   8  11
ENDBRANCH   3   7
BRANCH   1  21
HETATM   21  C   UNL     1       6.200  24.964  54.789  1.00  0.00     0.138 C 
BRANCH  21  22
HETATM   22  C   UNL     1       6.896  24.336  53.564  1.00  0.00     0.003 C 
HETATM   23  C   UNL     1       7.954  25.228  52.819  1.00  0.00     0.016 C 
HETATM   24  C   UNL     1       6.905  25.554  51.745  1.00  0.00     0.002 C 
HETATM   25  C   UNL     1       6.084  24.347  52.219  1.00  0.00     0.016 C 
BRANCH  22  26
HETATM   26  C   UNL     1       7.430  22.875  54.037  1.00  0.00    -0.048 A 
HETATM   27  C   UNL     1       7.857  21.904  53.106  1.00  0.00     0.008 A 
HETATM   28  C   UNL     1       8.290  20.636  53.502  1.00  0.00     0.001 A 
HETATM   29  C   UNL     1       8.307  20.295  54.849  1.00  0.00     0.000 A 
HETATM   30  C   UNL     1       7.889  21.222  55.797  1.00  0.00     0.001 A 
HETATM   31  C   UNL     1       7.456  22.489  55.394  1.00  0.00     0.008 A 
ENDBRANCH  22  26
ENDBRANCH  21  22
ENDBRANCH   1  21
TORSDOF 5
ENDMDL
MODEL 5
REMARK VINA RESULT:      -9.7      5.466      9.051
REMARK  5 active torsions:
REMARK  status: ('A' for Active; 'I' for Inactive)
REMARK    1  A    between atoms: C_4  and  C_5 
REMARK    2  A    between atoms: C_5  and  C_6 
REMARK    3  A    between atoms: C_6  and  N_7 
REMARK       I    between atoms: N_7  and  C_8 
REMARK       I    between atoms: C_8  and  N_9 
REMARK    4  A    between atoms: N_9  and  N_10 
REMARK       I    between atoms: N_10  and  C_11 
REMARK    5  A    between atoms: C_11  and  C_12 
ROOT
HETATM    1  N   UNL     1       8.242  28.861  55.978  1.00  0.00    -0.341 N 
HETATM    2  C   UNL     1       9.471  29.465  55.860  1.00  0.00     0.334 C 
HETATM    3  N   UNL     1       9.821  30.231  56.941  1.00  0.00    -0.249 N 
HETATM    4  O   UNL     1      10.214  29.341  54.893  1.00  0.00    -0.246 OA
HETATM    5  H   UNL     1       7.604  29.450  56.497  1.00  0.00     0.164 HD
HETATM    6  H   UNL     1      10.677  30.782  56.897  1.00  0.00     0.192 HD
ENDROOT
BRANCH   3   7
HETATM    7  N   UNL     1       9.063  30.284  58.120  1.00  0.00    -0.262 N 
HETATM    8  C   UNL     1       9.332  31.320  59.002  1.00  0.00     0.272 C 
HETATM    9  O   UNL     1      10.039  32.275  58.683  1.00  0.00    -0.266 OA
HETATM   10  H   UNL     1       8.740  29.391  58.475  1.00  0.00     0.190 HD
BRANCH   8  11
HETATM   11  C   UNL     1       8.748  31.176  60.337  1.00  0.00     0.061 A 
HETATM   12  C   UNL     1       7.488  31.715  60.778  1.00  0.00     0.008 A 
HETATM   13  C   UNL     1       7.314  31.355  62.114  1.00  0.00     0.043 A 
HETATM   14  C   UNL     1       6.476  32.483  60.161  1.00  0.00     0.015 A 
HETATM   15  C   UNL     1       6.187  31.722  62.862  1.00  0.00     0.030 A 
HETATM   16  N   UNL     1       8.415  30.622  62.482  1.00  0.00    -0.364 N 
HETATM   17  C   UNL     1       5.203  32.481  62.224  1.00  0.00     0.002 A 
HETATM   18  C   UNL     1       5.342  32.857  60.891  1.00  0.00     0.001 A 
HETATM   19  H   UNL     1       8.557  30.229  63.403  1.00  0.00     0.165 HD
HETATM   20  C   UNL     1       9.281  30.501  61.425  1.00  0.00     0.106 A 
ENDBRANCH   8  11
ENDBRANCH   3   7
BRANCH   1  21
HETATM   21  C   UNL     1       7.712  28.134  54.841  1.00  0.00     0.138 C 
BRANCH  21  22
HETATM   22  C   UNL     1       6.794  26.973  55.277  1.00  0.00     0.003 C 
HETATM   23  C   UNL     1       5.253  27.277  55.343  1.00  0.00     0.016 C 
HETATM   24  C   UNL     1       5.362  27.436  56.867  1.00  0.00     0.002 C 
HETATM   25  C   UNL     1       6.707  26.696  56.821  1.00  0.00     0.016 C 
BRANCH  22  26
HETATM   26  C   UNL     1       7.209  25.692  54.367  1.00  0.00    -0.048 A 
HETATM   27  C   UNL     1       7.561  25.830  53.007  1.00  0.00     0.008 A 
HETATM   28  C   UNL     1       7.891  24.731  52.209  1.00  0.00     0.001 A 
HETATM   29  C   UNL     1       7.875  23.450  52.749  1.00  0.00     0.000 A 
HETATM   30  C   UNL     1       7.528  23.271  54.083  1.00  0.00     0.001 A 
HETATM   31  C   UNL     1       7.199  24.376  54.875  1.00  0.00     0.008 A 
ENDBRANCH  22  26
ENDBRANCH  21  22
ENDBRANCH   1  21
TORSDOF 5
ENDMDL
MODEL 6
REMARK VINA RESULT:      -9.7      1.590      2.139
REMARK  5 active torsions:
REMARK  status: ('A' for Active; 'I' for Inactive)
REMARK    1  A    between atoms: C_4  and  C_5 
REMARK    2  A    between atoms: C_5  and  C_6 
REMARK    3  A    between atoms: C_6  and  N_7 
REMARK       I    between atoms: N_7  and  C_8 
REMARK       I    between atoms: C_8  and  N_9 
REMARK    4  A    between atoms: N_9  and  N_10 
REMARK       I    between atoms: N_10  and  C_11 
REMARK    5  A    between atoms: C_11  and  C_12 
ROOT
HETATM    1  N   UNL     1       5.328  25.857  54.540  1.00  0.00    -0.341 N 
HETATM    2  C   UNL     1       5.111  26.866  55.448  1.00  0.00     0.334 C 
HETATM    3  N   UNL     1       4.342  27.893  54.966  1.00  0.00    -0.249 N 
HETATM    4  O   UNL     1       5.544  26.871  56.595  1.00  0.00    -0.246 OA
HETATM    5  H   UNL     1       5.388  26.230  53.602  1.00  0.00     0.164 HD
HETATM    6  H   UNL     1       4.205  28.719  55.545  1.00  0.00     0.192 HD
ENDROOT
BRANCH   3   7
HETATM    7  N   UNL     1       3.715  27.856  53.711  1.00  0.00    -0.262 N 
HETATM    8  C   UNL     1       4.420  28.372  52.634  1.00  0.00     0.272 C 
HETATM    9  O   UNL     1       5.616  28.647  52.715  1.00  0.00    -0.266 OA
HETATM   10  H   UNL     1       2.703  27.912  53.724  1.00  0.00     0.190 HD
BRANCH   8  11
HETATM   11  C   UNL     1       3.635  28.594  51.418  1.00  0.00     0.061 A 
HETATM   12  C   UNL     1       3.835  27.951  50.145  1.00  0.00     0.008 A 
HETATM   13  C   UNL     1       2.881  28.453  49.260  1.00  0.00     0.043 A 
HETATM   14  C   UNL     1       4.747  26.987  49.662  1.00  0.00     0.015 A 
HETATM   15  C   UNL     1       2.792  28.042  47.923  1.00  0.00     0.030 A 
HETATM   16  N   UNL     1       2.122  29.361  49.955  1.00  0.00    -0.364 N 
HETATM   17  C   UNL     1       3.707  27.086  47.475  1.00  0.00     0.002 A 
HETATM   18  C   UNL     1       4.672  26.563  48.330  1.00  0.00     0.001 A 
HETATM   19  H   UNL     1       1.351  29.881  49.558  1.00  0.00     0.165 HD
HETATM   20  C   UNL     1       2.558  29.453  51.252  1.00  0.00     0.106 A 
ENDBRANCH   8  11
ENDBRANCH   3   7
BRANCH   1  21
HETATM   21  C   UNL     1       6.236  24.784  54.896  1.00  0.00     0.138 C 
BRANCH  21  22
HETATM   22  C   UNL     1       6.950  24.200  53.660  1.00  0.00     0.003 C 
HETATM   23  C   UNL     1       8.031  25.113  52.973  1.00  0.00     0.016 C 
HETATM   24  C   UNL     1       7.006  25.491  51.893  1.00  0.00     0.002 C 
HETATM   25  C   UNL     1       6.165  24.273  52.301  1.00  0.00     0.016 C 
BRANCH  22  26
HETATM   26  C   UNL     1       7.464  22.717  54.083  1.00  0.00    -0.048 A 
HETATM   27  C   UNL     1       7.547  22.318  55.435  1.00  0.00     0.008 A 
HETATM   28  C   UNL     1       8.015  21.056  55.809  1.00  0.00     0.001 A 
HETATM   29  C   UNL     1       8.421  20.148  54.838  1.00  0.00     0.000 A 
HETATM   30  C   UNL     1       8.360  20.506  53.495  1.00  0.00     0.001 A 
HETATM   31  C   UNL     1       7.891  21.771  53.128  1.00  0.00     0.008 A 
ENDBRANCH  22  26
ENDBRANCH  21  22
ENDBRANCH   1  21
TORSDOF 5
ENDMDL
MODEL 7
REMARK VINA RESULT:      -9.6      3.237      5.492
REMARK  5 active torsions:
REMARK  status: ('A' for Active; 'I' for Inactive)
REMARK    1  A    between atoms: C_4  and  C_5 
REMARK    2  A    between atoms: C_5  and  C_6 
REMARK    3  A    between atoms: C_6  and  N_7 
REMARK       I    between atoms: N_7  and  C_8 
REMARK       I    between atoms: C_8  and  N_9 
REMARK    4  A    between atoms: N_9  and  N_10 
REMARK       I    between atoms: N_10  and  C_11 
REMARK    5  A    between atoms: C_11  and  C_12 
ROOT
HETATM    1  N   UNL     1       5.980  26.274  53.999  1.00  0.00    -0.341 N 
HETATM    2  C   UNL     1       5.019  26.180  53.019  1.00  0.00     0.334 C 
HETATM    3  N   UNL     1       3.931  26.986  53.228  1.00  0.00    -0.249 N 
HETATM    4  O   UNL     1       5.105  25.458  52.033  1.00  0.00    -0.246 OA
HETATM    5  H   UNL     1       5.554  26.444  54.900  1.00  0.00     0.164 HD
HETATM    6  H   UNL     1       3.136  26.913  52.595  1.00  0.00     0.192 HD
ENDROOT
BRANCH   3   7
HETATM    7  N   UNL     1       3.861  27.925  54.268  1.00  0.00    -0.262 N 
HETATM    8  C   UNL     1       4.198  29.236  53.962  1.00  0.00     0.272 C 
HETATM    9  O   UNL     1       4.338  29.615  52.801  1.00  0.00    -0.266 OA
HETATM   10  H   UNL     1       4.035  27.564  55.198  1.00  0.00     0.190 HD
BRANCH   8  11
HETATM   11  C   UNL     1       4.406  30.115  55.115  1.00  0.00     0.061 A 
HETATM   12  C   UNL     1       5.496  30.047  56.054  1.00  0.00     0.008 A 
HETATM   13  C   UNL     1       5.309  31.055  56.998  1.00  0.00     0.043 A 
HETATM   14  C   UNL     1       6.627  29.213  56.188  1.00  0.00     0.015 A 
HETATM   15  C   UNL     1       6.190  31.272  58.066  1.00  0.00     0.030 A 
HETATM   16  N   UNL     1       4.158  31.721  56.657  1.00  0.00    -0.364 N 
HETATM   17  C   UNL     1       7.301  30.431  58.172  1.00  0.00     0.002 A 
HETATM   18  C   UNL     1       7.520  29.415  57.247  1.00  0.00     0.001 A 
HETATM   19  H   UNL     1       3.780  32.505  57.172  1.00  0.00     0.165 HD
HETATM   20  C   UNL     1       3.608  31.173  55.526  1.00  0.00     0.106 A 
ENDBRANCH   8  11
ENDBRANCH   3   7
BRANCH   1  21
HETATM   21  C   UNL     1       7.114  25.372  53.951  1.00  0.00     0.138 C 
BRANCH  21  22
HETATM   22  C   UNL     1       7.235  24.531  55.238  1.00  0.00     0.003 C 
HETATM   23  C   UNL     1       6.087  24.695  56.300  1.00  0.00     0.016 C 
HETATM   24  C   UNL     1       6.993  25.627  57.118  1.00  0.00     0.002 C 
HETATM   25  C   UNL     1       8.203  25.086  56.345  1.00  0.00     0.016 C 
BRANCH  22  26
HETATM   26  C   UNL     1       7.529  23.004  54.765  1.00  0.00    -0.048 A 
HETATM   27  C   UNL     1       7.652  21.950  55.695  1.00  0.00     0.008 A 
HETATM   28  C   UNL     1       7.934  20.639  55.300  1.00  0.00     0.001 A 
HETATM   29  C   UNL     1       8.106  20.341  53.953  1.00  0.00     0.000 A 
HETATM   30  C   UNL     1       7.997  21.353  53.006  1.00  0.00     0.001 A 
HETATM   31  C   UNL     1       7.716  22.662  53.409  1.00  0.00     0.008 A 
ENDBRANCH  22  26
ENDBRANCH  21  22
ENDBRANCH   1  21
TORSDOF 5
ENDMDL
MODEL 8
REMARK VINA RESULT:      -9.6      3.634      6.732
REMARK  5 active torsions:
REMARK  status: ('A' for Active; 'I' for Inactive)
REMARK    1  A    between atoms: C_4  and  C_5 
REMARK    2  A    between atoms: C_5  and  C_6 
REMARK    3  A    between atoms: C_6  and  N_7 
REMARK       I    between atoms: N_7  and  C_8 
REMARK       I    between atoms: C_8  and  N_9 
REMARK    4  A    between atoms: N_9  and  N_10 
REMARK       I    between atoms: N_10  and  C_11 
REMARK    5  A    between atoms: C_11  and  C_12 
ROOT
HETATM    1  N   UNL     1       7.227  26.828  54.276  1.00  0.00    -0.341 N 
HETATM    2  C   UNL     1       6.452  27.467  53.337  1.00  0.00     0.334 C 
HETATM    3  N   UNL     1       6.021  28.709  53.723  1.00  0.00    -0.249 N 
HETATM    4  O   UNL     1       6.165  26.999  52.241  1.00  0.00    -0.246 OA
HETATM    5  H   UNL     1       6.922  27.067  55.211  1.00  0.00     0.164 HD
HETATM    6  H   UNL     1       5.371  29.213  53.122  1.00  0.00     0.192 HD
ENDROOT
BRANCH   3   7
HETATM    7  N   UNL     1       6.443  29.333  54.907  1.00  0.00    -0.262 N 
HETATM    8  C   UNL     1       5.702  29.087  56.054  1.00  0.00     0.272 C 
HETATM    9  O   UNL     1       4.852  28.200  56.097  1.00  0.00    -0.266 OA
HETATM   10  H   UNL     1       6.910  30.225  54.790  1.00  0.00     0.190 HD
BRANCH   8  11
HETATM   11  C   UNL     1       5.981  29.975  57.183  1.00  0.00     0.061 A 
HETATM   12  C   UNL     1       7.273  30.233  57.766  1.00  0.00     0.008 A 
HETATM   13  C   UNL     1       7.094  31.128  58.821  1.00  0.00     0.043 A 
HETATM   14  C   UNL     1       8.583  29.783  57.492  1.00  0.00     0.015 A 
HETATM   15  C   UNL     1       8.152  31.592  59.613  1.00  0.00     0.030 A 
HETATM   16  N   UNL     1       5.752  31.414  58.885  1.00  0.00    -0.364 N 
HETATM   17  C   UNL     1       9.436  31.130  59.318  1.00  0.00     0.002 A 
HETATM   18  C   UNL     1       9.653  30.238  58.272  1.00  0.00     0.001 A 
HETATM   19  H   UNL     1       5.336  32.039  59.562  1.00  0.00     0.165 HD
HETATM   20  C   UNL     1       5.073  30.735  57.906  1.00  0.00     0.106 A 
ENDBRANCH   8  11
ENDBRANCH   3   7
BRANCH   1  21
HETATM   21  C   UNL     1       7.629  25.457  54.030  1.00  0.00     0.138 C 
BRANCH  21  22
HETATM   22  C   UNL     1       7.428  24.566  55.273  1.00  0.00     0.003 C 
HETATM   23  C   UNL     1       6.135  24.827  56.128  1.00  0.00     0.016 C 
HETATM   24  C   UNL     1       6.978  25.620  57.139  1.00  0.00     0.002 C 
HETATM   25  C   UNL     1       8.240  24.968  56.557  1.00  0.00     0.016 C 
BRANCH  22  26
HETATM   26  C   UNL     1       7.633  23.031  54.778  1.00  0.00    -0.048 A 
HETATM   27  C   UNL     1       7.686  21.957  55.692  1.00  0.00     0.008 A 
HETATM   28  C   UNL     1       7.891  20.639  55.277  1.00  0.00     0.001 A 
HETATM   29  C   UNL     1       8.055  20.351  53.927  1.00  0.00     0.000 A 
HETATM   30  C   UNL     1       8.015  21.383  52.995  1.00  0.00     0.001 A 
HETATM   31  C   UNL     1       7.810  22.700  53.418  1.00  0.00     0.008 A 
ENDBRANCH  22  26
ENDBRANCH  21  22
ENDBRANCH   1  21
TORSDOF 5
ENDMDL
MODEL 9
REMARK VINA RESULT:      -9.5      3.409      7.272
REMARK  5 active torsions:
REMARK  status: ('A' for Active; 'I' for Inactive)
REMARK    1  A    between atoms: C_4  and  C_5 
REMARK    2  A    between atoms: C_5  and  C_6 
REMARK    3  A    between atoms: C_6  and  N_7 
REMARK       I    between atoms: N_7  and  C_8 
REMARK       I    between atoms: C_8  and  N_9 
REMARK    4  A    between atoms: N_9  and  N_10 
REMARK       I    between atoms: N_10  and  C_11 
REMARK    5  A    between atoms: C_11  and  C_12 
ROOT
HETATM    1  N   UNL     1       7.605  27.354  55.680  1.00  0.00    -0.341 N 
HETATM    2  C   UNL     1       7.867  27.592  57.009  1.00  0.00     0.334 C 
HETATM    3  N   UNL     1       8.301  26.488  57.696  1.00  0.00    -0.249 N 
HETATM    4  O   UNL     1       7.742  28.681  57.556  1.00  0.00    -0.246 OA
HETATM    5  H   UNL     1       7.248  26.418  55.549  1.00  0.00     0.164 HD
HETATM    6  H   UNL     1       8.434  26.557  58.703  1.00  0.00     0.192 HD
ENDROOT
BRANCH   3   7
HETATM    7  N   UNL     1       8.588  25.263  57.075  1.00  0.00    -0.262 N 
HETATM    8  C   UNL     1       7.534  24.378  56.897  1.00  0.00     0.272 C 
HETATM    9  O   UNL     1       6.366  24.721  57.067  1.00  0.00    -0.266 OA
HETATM   10  H   UNL     1       9.526  24.907  57.219  1.00  0.00     0.190 HD
BRANCH   8  11
HETATM   11  C   UNL     1       7.916  23.013  56.531  1.00  0.00     0.061 A 
HETATM   12  C   UNL     1       7.946  22.465  55.200  1.00  0.00     0.008 A 
HETATM   13  C   UNL     1       8.355  21.135  55.296  1.00  0.00     0.043 A 
HETATM   14  C   UNL     1       7.658  22.980  53.917  1.00  0.00     0.015 A 
HETATM   15  C   UNL     1       8.490  20.298  54.181  1.00  0.00     0.030 A 
HETATM   16  N   UNL     1       8.574  20.874  56.626  1.00  0.00    -0.364 N 
HETATM   17  C   UNL     1       8.198  20.836  52.925  1.00  0.00     0.002 A 
HETATM   18  C   UNL     1       7.788  22.159  52.791  1.00  0.00     0.001 A 
HETATM   19  H   UNL     1       8.880  19.981  56.988  1.00  0.00     0.165 HD
HETATM   20  C   UNL     1       8.320  21.992  57.379  1.00  0.00     0.106 A 
ENDBRANCH   8  11
ENDBRANCH   3   7
BRANCH   1  21
HETATM   21  C   UNL     1       7.015  28.416  54.887  1.00  0.00     0.138 C 
BRANCH  21  22
HETATM   22  C   UNL     1       5.501  28.209  54.684  1.00  0.00     0.003 C 
HETATM   23  C   UNL     1       4.615  29.505  54.603  1.00  0.00     0.016 C 
HETATM   24  C   UNL     1       4.196  29.295  56.066  1.00  0.00     0.002 C 
HETATM   25  C   UNL     1       4.669  27.838  55.964  1.00  0.00     0.016 C 
BRANCH  22  26
HETATM   26  C   UNL     1       5.340  27.182  53.434  1.00  0.00    -0.048 A 
HETATM   27  C   UNL     1       5.033  25.818  53.628  1.00  0.00     0.008 A 
HETATM   28  C   UNL     1       4.923  24.922  52.562  1.00  0.00     0.001 A 
HETATM   29  C   UNL     1       5.120  25.363  51.259  1.00  0.00     0.000 A 
HETATM   30  C   UNL     1       5.429  26.699  51.026  1.00  0.00     0.001 A 
HETATM   31  C   UNL     1       5.539  27.589  52.098  1.00  0.00     0.008 A 
ENDBRANCH  22  26
ENDBRANCH  21  22
ENDBRANCH   1  21
TORSDOF 5
ENDMDL
MODEL 10
REMARK VINA RESULT:      -9.5      1.277      2.125
REMARK  5 active torsions:
REMARK  status: ('A' for Active; 'I' for Inactive)
REMARK    1  A    between atoms: C_4  and  C_5 
REMARK    2  A    between atoms: C_5  and  C_6 
REMARK    3  A    between atoms: C_6  and  N_7 
REMARK       I    between atoms: N_7  and  C_8 
REMARK       I    between atoms: C_8  and  N_9 
REMARK    4  A    between atoms: N_9  and  N_10 
REMARK       I    between atoms: N_10  and  C_11 
REMARK    5  A    between atoms: C_11  and  C_12 
ROOT
HETATM    1  N   UNL     1       6.536  26.277  52.712  1.00  0.00    -0.341 N 
HETATM    2  C   UNL     1       6.325  27.622  52.907  1.00  0.00     0.334 C 
HETATM    3  N   UNL     1       5.380  28.162  52.075  1.00  0.00    -0.249 N 
HETATM    4  O   UNL     1       6.907  28.300  53.746  1.00  0.00    -0.246 OA
HETATM    5  H   UNL     1       6.422  26.036  51.737  1.00  0.00     0.164 HD
HETATM    6  H   UNL     1       5.225  29.169  52.095  1.00  0.00     0.192 HD
ENDROOT
BRANCH   3   7
HETATM    7  N   UNL     1       4.596  27.392  51.202  1.00  0.00    -0.262 N 
HETATM    8  C   UNL     1       4.762  27.609  49.842  1.00  0.00     0.272 C 
HETATM    9  O   UNL     1       5.697  28.276  49.402  1.00  0.00    -0.266 OA
HETATM   10  H   UNL     1       3.693  27.105  51.560  1.00  0.00     0.190 HD
BRANCH   8  11
HETATM   11  C   UNL     1       3.733  27.019  48.983  1.00  0.00     0.061 A 
HETATM   12  C   UNL     1       2.665  27.726  48.324  1.00  0.00     0.008 A 
HETATM   13  C   UNL     1       1.909  26.793  47.616  1.00  0.00     0.043 A 
HETATM   14  C   UNL     1       2.269  29.081  48.269  1.00  0.00     0.015 A 
HETATM   15  C   UNL     1       0.783  27.141  46.860  1.00  0.00     0.030 A 
HETATM   16  N   UNL     1       2.486  25.564  47.823  1.00  0.00    -0.364 N 
HETATM   17  C   UNL     1       0.416  28.489  46.823  1.00  0.00     0.002 A 
HETATM   18  C   UNL     1       1.148  29.448  47.517  1.00  0.00     0.001 A 
HETATM   19  H   UNL     1       2.143  24.700  47.426  1.00  0.00     0.165 HD
HETATM   20  C   UNL     1       3.585  25.684  48.636  1.00  0.00     0.106 A 
ENDBRANCH   8  11
ENDBRANCH   3   7
BRANCH   1  21
HETATM   21  C   UNL     1       7.606  25.628  53.444  1.00  0.00     0.138 C 
BRANCH  21  22
HETATM   22  C   UNL     1       7.074  24.822  54.647  1.00  0.00     0.003 C 
HETATM   23  C   UNL     1       5.577  25.072  55.058  1.00  0.00     0.016 C 
HETATM   24  C   UNL     1       6.055  25.985  56.197  1.00  0.00     0.002 C 
HETATM   25  C   UNL     1       7.454  25.364  56.072  1.00  0.00     0.016 C 
BRANCH  22  26
HETATM   26  C   UNL     1       7.468  23.269  54.371  1.00  0.00    -0.048 A 
HETATM   27  C   UNL     1       7.722  22.788  53.069  1.00  0.00     0.008 A 
HETATM   28  C   UNL     1       8.032  21.449  52.819  1.00  0.00     0.001 A 
HETATM   29  C   UNL     1       8.094  20.541  53.870  1.00  0.00     0.000 A 
HETATM   30  C   UNL     1       7.844  20.975  55.167  1.00  0.00     0.001 A 
HETATM   31  C   UNL     1       7.534  22.317  55.409  1.00  0.00     0.008 A 
ENDBRANCH  22  26
ENDBRANCH  21  22
ENDBRANCH   1  21
TORSDOF 5
ENDMDL
