MODEL 1
REMARK VINA RESULT:      -9.8      0.000      0.000
REMARK  7 active torsions:
REMARK  status: ('A' for Active; 'I' for Inactive)
REMARK    1  A    between atoms: C_4  and  C_5 
REMARK    2  A    between atoms: C_12  and  C_13 
REMARK       I    between atoms: C_13  and  N_14 
REMARK    3  A    between atoms: N_14  and  N_15 
REMARK       I    between atoms: N_15  and  C_16 
REMARK    4  A    between atoms: C_16  and  C_17 
REMARK    5  A    between atoms: C_17  and  C_18 
REMARK    6  A    between atoms: C_18  and  C_19 
REMARK    7  A    between atoms: C_22  and  O_23 
ROOT
HETATM    1  C   UNL     1       6.784  28.345  57.445  1.00  0.00     0.272 C 
HETATM    2  N   UNL     1       7.852  28.811  58.181  1.00  0.00    -0.263 N 
HETATM    3  O   UNL     1       5.732  28.965  57.327  1.00  0.00    -0.266 OA
HETATM    4  H   UNL     1       8.757  28.349  58.253  1.00  0.00     0.190 HD
ENDROOT
BRANCH   2   5
HETATM    5  N   UNL     1       7.723  30.032  58.843  1.00  0.00    -0.267 N 
HETATM    6  C   UNL     1       8.867  30.768  59.055  1.00  0.00     0.236 C 
HETATM    7  O   UNL     1       9.950  30.465  58.554  1.00  0.00    -0.272 OA
HETATM    8  H   UNL     1       6.840  30.192  59.325  1.00  0.00     0.190 HD
BRANCH   6   9
HETATM    9  C   UNL     1       8.686  32.011  59.898  1.00  0.00     0.109 C 
BRANCH   9  10
HETATM   10  C   UNL     1       8.918  31.787  61.393  1.00  0.00     0.048 C 
BRANCH  10  11
HETATM   11  C   UNL     1       7.787  32.157  62.328  1.00  0.00    -0.058 A 
HETATM   12  C   UNL     1       6.448  31.865  62.051  1.00  0.00     0.010 A 
HETATM   13  C   UNL     1       5.443  32.208  62.961  1.00  0.00     0.037 A 
HETATM   14  C   UNL     1       5.753  32.829  64.172  1.00  0.00     0.068 A 
HETATM   15  C   UNL     1       7.086  33.107  64.465  1.00  0.00     0.037 A 
HETATM   16  C   UNL     1       8.093  32.769  63.552  1.00  0.00     0.010 A 
BRANCH  14  17
HETATM   17  O   UNL     1       4.677  33.104  64.967  1.00  0.00    -0.356 OA
HETATM   18  C   UNL     1       4.916  33.914  66.111  1.00  0.00     0.210 C 
ENDBRANCH  14  17
ENDBRANCH  10  11
ENDBRANCH   9  10
ENDBRANCH   6   9
ENDBRANCH   2   5
BRANCH   1  19
HETATM   19  C   UNL     1       6.993  27.035  56.785  1.00  0.00     0.058 A 
HETATM   20  C   UNL     1       7.269  26.938  55.422  1.00  0.00     0.047 A 
HETATM   21  C   UNL     1       7.369  28.141  54.530  1.00  0.00     0.071 C 
HETATM   22  N   UNL     1       7.476  25.738  54.811  1.00  0.00    -0.252 NA
HETATM   23  C   UNL     1       7.392  24.599  55.548  1.00  0.00     0.074 A 
HETATM   24  C   UNL     1       7.111  24.626  56.909  1.00  0.00     0.034 A 
HETATM   25  C   UNL     1       6.909  25.857  57.534  1.00  0.00     0.021 A 
BRANCH  23  26
HETATM   26  C   UNL     1       7.642  23.370  54.777  1.00  0.00     0.033 A 
HETATM   27  S   UNL     1       7.846  21.841  55.541  1.00  0.00    -0.100 SA
HETATM   28  C   UNL     1       8.059  21.033  54.052  1.00  0.00     0.050 A 
HETATM   29  C   UNL     1       7.975  21.892  52.982  1.00  0.00     0.008 A 
HETATM   30  C   UNL     1       7.728  23.232  53.400  1.00  0.00     0.021 A 
ENDBRANCH  23  26
ENDBRANCH   1  19
TORSDOF 7
ENDMDL
MODEL 2
REMARK VINA RESULT:      -9.4      3.587     11.293
REMARK  7 active torsions:
REMARK  status: ('A' for Active; 'I' for Inactive)
REMARK    1  A    between atoms: C_4  and  C_5 
REMARK    2  A    between atoms: C_12  and  C_13 
REMARK       I    between atoms: C_13  and  N_14 
REMARK    3  A    between atoms: N_14  and  N_15 
REMARK       I    between atoms: N_15  and  C_16 
REMARK    4  A    between atoms: C_16  and  C_17 
REMARK    5  A    between atoms: C_17  and  C_18 
REMARK    6  A    between atoms: C_18  and  C_19 
REMARK    7  A    between atoms: C_22  and  O_23 
ROOT
HETATM    1  C   UNL     1       8.227  31.188  59.570  1.00  0.00     0.272 C 
HETATM    2  N   UNL     1       7.955  29.850  59.384  1.00  0.00    -0.263 N 
HETATM    3  O   UNL     1       8.798  31.877  58.731  1.00  0.00    -0.266 OA
HETATM    4  H   UNL     1       7.434  29.264  60.035  1.00  0.00     0.190 HD
ENDROOT
BRANCH   2   5
HETATM    5  N   UNL     1       8.368  29.245  58.198  1.00  0.00    -0.267 N 
HETATM    6  C   UNL     1       7.408  28.627  57.427  1.00  0.00     0.236 C 
HETATM    7  O   UNL     1       6.204  28.725  57.667  1.00  0.00    -0.272 OA
HETATM    8  H   UNL     1       9.370  29.098  58.091  1.00  0.00     0.190 HD
BRANCH   6   9
HETATM    9  C   UNL     1       7.934  27.869  56.228  1.00  0.00     0.109 C 
BRANCH   9  10
HETATM   10  C   UNL     1       6.936  26.873  55.636  1.00  0.00     0.048 C 
BRANCH  10  11
HETATM   11  C   UNL     1       7.484  25.539  55.179  1.00  0.00    -0.058 A 
HETATM   12  C   UNL     1       8.043  24.608  56.060  1.00  0.00     0.010 A 
HETATM   13  C   UNL     1       8.513  23.378  55.588  1.00  0.00     0.037 A 
HETATM   14  C   UNL     1       8.416  23.043  54.237  1.00  0.00     0.068 A 
HETATM   15  C   UNL     1       7.845  23.956  53.355  1.00  0.00     0.037 A 
HETATM   16  C   UNL     1       7.378  25.191  53.824  1.00  0.00     0.010 A 
BRANCH  14  17
HETATM   17  O   UNL     1       8.911  21.811  53.915  1.00  0.00    -0.356 OA
HETATM   18  C   UNL     1       8.120  21.010  53.045  1.00  0.00     0.210 C 
ENDBRANCH  14  17
ENDBRANCH  10  11
ENDBRANCH   9  10
ENDBRANCH   6   9
ENDBRANCH   2   5
BRANCH   1  19
HETATM   19  C   UNL     1       7.771  31.753  60.862  1.00  0.00     0.058 A 
HETATM   20  C   UNL     1       6.504  32.319  61.005  1.00  0.00     0.047 A 
HETATM   21  C   UNL     1       5.522  32.399  59.874  1.00  0.00     0.071 C 
HETATM   22  N   UNL     1       6.073  32.828  62.193  1.00  0.00    -0.252 NA
HETATM   23  C   UNL     1       6.908  32.803  63.264  1.00  0.00     0.074 A 
HETATM   24  C   UNL     1       8.186  32.262  63.185  1.00  0.00     0.034 A 
HETATM   25  C   UNL     1       8.622  31.732  61.971  1.00  0.00     0.021 A 
BRANCH  23  26
HETATM   26  C   UNL     1       6.324  33.376  64.489  1.00  0.00     0.033 A 
HETATM   27  S   UNL     1       4.637  33.683  64.637  1.00  0.00    -0.100 SA
HETATM   28  C   UNL     1       4.801  34.279  66.228  1.00  0.00     0.050 A 
HETATM   29  C   UNL     1       6.106  34.249  66.658  1.00  0.00     0.008 A 
HETATM   30  C   UNL     1       6.978  33.723  65.661  1.00  0.00     0.021 A 
ENDBRANCH  23  26
ENDBRANCH   1  19
TORSDOF 7
ENDMDL
MODEL 3
REMARK VINA RESULT:      -9.3      3.411     10.868
REMARK  7 active torsions:
REMARK  status: ('A' for Active; 'I' for Inactive)
REMARK    1  A    between atoms: C_4  and  C_5 
REMARK    2  A    between atoms: C_12  and  C_13 
REMARK       I    between atoms: C_13  and  N_14 
REMARK    3  A    between atoms: N_14  and  N_15 
REMARK       I    between atoms: N_15  and  C_16 
REMARK    4  A    between atoms: C_16  and  C_17 
REMARK    5  A    between atoms: C_17  and  C_18 
REMARK    6  A    between atoms: C_18  and  C_19 
REMARK    7  A    between atoms: C_22  and  O_23 
ROOT
HETATM    1  C   UNL     1       8.734  29.954  58.387  1.00  0.00     0.272 C 
HETATM    2  N   UNL     1       7.949  28.886  58.011  1.00  0.00    -0.263 N 
HETATM    3  O   UNL     1       9.695  30.343  57.730  1.00  0.00    -0.266 OA
HETATM    4  H   UNL     1       7.113  28.574  58.503  1.00  0.00     0.190 HD
ENDROOT
BRANCH   2   5
HETATM    5  N   UNL     1       8.273  28.200  56.841  1.00  0.00    -0.267 N 
HETATM    6  C   UNL     1       7.470  28.398  55.740  1.00  0.00     0.236 C 
HETATM    7  O   UNL     1       6.591  29.260  55.710  1.00  0.00    -0.272 OA
HETATM    8  H   UNL     1       8.934  27.431  56.938  1.00  0.00     0.190 HD
BRANCH   6   9
HETATM    9  C   UNL     1       7.786  27.523  54.547  1.00  0.00     0.109 C 
BRANCH   9  10
HETATM   10  C   UNL     1       6.665  26.553  54.174  1.00  0.00     0.048 C 
BRANCH  10  11
HETATM   11  C   UNL     1       7.029  25.088  54.068  1.00  0.00    -0.058 A 
HETATM   12  C   UNL     1       7.431  24.492  52.868  1.00  0.00     0.010 A 
HETATM   13  C   UNL     1       7.780  23.138  52.831  1.00  0.00     0.037 A 
HETATM   14  C   UNL     1       7.757  22.359  53.988  1.00  0.00     0.068 A 
HETATM   15  C   UNL     1       7.376  22.948  55.190  1.00  0.00     0.037 A 
HETATM   16  C   UNL     1       7.020  24.302  55.230  1.00  0.00     0.010 A 
BRANCH  14  17
HETATM   17  O   UNL     1       8.125  21.055  53.808  1.00  0.00    -0.356 OA
HETATM   18  C   UNL     1       8.519  20.334  54.969  1.00  0.00     0.210 C 
ENDBRANCH  14  17
ENDBRANCH  10  11
ENDBRANCH   9  10
ENDBRANCH   6   9
ENDBRANCH   2   5
BRANCH   1  19
HETATM   19  C   UNL     1       8.335  30.621  59.649  1.00  0.00     0.058 A 
HETATM   20  C   UNL     1       7.210  31.443  59.717  1.00  0.00     0.047 A 
HETATM   21  C   UNL     1       6.334  31.714  58.529  1.00  0.00     0.071 C 
HETATM   22  N   UNL     1       6.829  32.048  60.876  1.00  0.00    -0.252 NA
HETATM   23  C   UNL     1       7.576  31.862  61.995  1.00  0.00     0.074 A 
HETATM   24  C   UNL     1       8.714  31.063  61.992  1.00  0.00     0.034 A 
HETATM   25  C   UNL     1       9.097  30.436  60.807  1.00  0.00     0.021 A 
BRANCH  23  26
HETATM   26  C   UNL     1       7.058  32.562  63.182  1.00  0.00     0.033 A 
HETATM   27  S   UNL     1       5.371  32.762  63.457  1.00  0.00    -0.100 SA
HETATM   28  C   UNL     1       5.624  33.593  64.927  1.00  0.00     0.050 A 
HETATM   29  C   UNL     1       6.961  33.722  65.222  1.00  0.00     0.008 A 
HETATM   30  C   UNL     1       7.782  33.123  64.223  1.00  0.00     0.021 A 
ENDBRANCH  23  26
ENDBRANCH   1  19
TORSDOF 7
ENDMDL
MODEL 4
REMARK VINA RESULT:      -9.3      3.541     11.302
REMARK  7 active torsions:
REMARK  status: ('A' for Active; 'I' for Inactive)
REMARK    1  A    between atoms: C_4  and  C_5 
REMARK    2  A    between atoms: C_12  and  C_13 
REMARK       I    between atoms: C_13  and  N_14 
REMARK    3  A    between atoms: N_14  and  N_15 
REMARK       I    between atoms: N_15  and  C_16 
REMARK    4  A    between atoms: C_16  and  C_17 
REMARK    5  A    between atoms: C_17  and  C_18 
REMARK    6  A    between atoms: C_18  and  C_19 
REMARK    7  A    between atoms: C_22  and  O_23 
ROOT
HETATM    1  C   UNL     1       8.151  30.880  59.245  1.00  0.00     0.272 C 
HETATM    2  N   UNL     1       7.712  29.595  59.006  1.00  0.00    -0.263 N 
HETATM    3  O   UNL     1       8.894  31.486  58.479  1.00  0.00    -0.266 OA
HETATM    4  H   UNL     1       7.052  29.085  59.591  1.00  0.00     0.190 HD
ENDROOT
BRANCH   2   5
HETATM    5  N   UNL     1       8.151  28.945  57.852  1.00  0.00    -0.267 N 
HETATM    6  C   UNL     1       7.245  28.155  57.180  1.00  0.00     0.236 C 
HETATM    7  O   UNL     1       6.048  28.130  57.469  1.00  0.00    -0.272 OA
HETATM    8  H   UNL     1       9.158  28.910  57.710  1.00  0.00     0.190 HD
BRANCH   6   9
HETATM    9  C   UNL     1       7.813  27.367  56.021  1.00  0.00     0.109 C 
BRANCH   9  10
HETATM   10  C   UNL     1       6.772  26.547  55.258  1.00  0.00     0.048 C 
BRANCH  10  11
HETATM   11  C   UNL     1       7.096  25.092  54.999  1.00  0.00    -0.058 A 
HETATM   12  C   UNL     1       7.304  24.167  56.028  1.00  0.00     0.010 A 
HETATM   13  C   UNL     1       7.577  22.828  55.734  1.00  0.00     0.037 A 
HETATM   14  C   UNL     1       7.628  22.379  54.414  1.00  0.00     0.068 A 
HETATM   15  C   UNL     1       7.404  23.288  53.383  1.00  0.00     0.037 A 
HETATM   16  C   UNL     1       7.136  24.632  53.675  1.00  0.00     0.010 A 
BRANCH  14  17
HETATM   17  O   UNL     1       7.900  21.048  54.271  1.00  0.00    -0.356 OA
HETATM   18  C   UNL     1       8.127  20.578  52.948  1.00  0.00     0.210 C 
ENDBRANCH  14  17
ENDBRANCH  10  11
ENDBRANCH   9  10
ENDBRANCH   6   9
ENDBRANCH   2   5
BRANCH   1  19
HETATM   19  C   UNL     1       7.655  31.496  60.497  1.00  0.00     0.058 A 
HETATM   20  C   UNL     1       8.289  31.280  61.720  1.00  0.00     0.047 A 
HETATM   21  C   UNL     1       9.507  30.414  61.857  1.00  0.00     0.071 C 
HETATM   22  N   UNL     1       7.847  31.854  62.874  1.00  0.00    -0.252 NA
HETATM   23  C   UNL     1       6.742  32.644  62.836  1.00  0.00     0.074 A 
HETATM   24  C   UNL     1       6.058  32.891  61.652  1.00  0.00     0.034 A 
HETATM   25  C   UNL     1       6.519  32.311  60.471  1.00  0.00     0.021 A 
BRANCH  23  26
HETATM   26  C   UNL     1       6.369  33.210  64.143  1.00  0.00     0.033 A 
HETATM   27  S   UNL     1       4.731  33.529  64.563  1.00  0.00    -0.100 SA
HETATM   28  C   UNL     1       5.154  34.109  66.113  1.00  0.00     0.050 A 
HETATM   29  C   UNL     1       6.511  34.063  66.327  1.00  0.00     0.008 A 
HETATM   30  C   UNL     1       7.206  33.540  65.198  1.00  0.00     0.021 A 
ENDBRANCH  23  26
ENDBRANCH   1  19
TORSDOF 7
ENDMDL
MODEL 5
REMARK VINA RESULT:      -8.9      3.888     11.269
REMARK  7 active torsions:
REMARK  status: ('A' for Active; 'I' for Inactive)
REMARK    1  A    between atoms: C_4  and  C_5 
REMARK    2  A    between atoms: C_12  and  C_13 
REMARK       I    between atoms: C_13  and  N_14 
REMARK    3  A    between atoms: N_14  and  N_15 
REMARK       I    between atoms: N_15  and  C_16 
REMARK    4  A    between atoms: C_16  and  C_17 
REMARK    5  A    between atoms: C_17  and  C_18 
REMARK    6  A    between atoms: C_18  and  C_19 
REMARK    7  A    between atoms: C_22  and  O_23 
ROOT
HETATM    1  C   UNL     1       7.930  32.116  60.648  1.00  0.00     0.272 C 
HETATM    2  N   UNL     1       7.443  30.865  60.337  1.00  0.00    -0.263 N 
HETATM    3  O   UNL     1       8.730  32.718  59.939  1.00  0.00    -0.266 OA
HETATM    4  H   UNL     1       6.737  30.363  60.874  1.00  0.00     0.190 HD
ENDROOT
BRANCH   2   5
HETATM    5  N   UNL     1       7.898  30.243  59.174  1.00  0.00    -0.267 N 
HETATM    6  C   UNL     1       7.027  30.161  58.110  1.00  0.00     0.236 C 
HETATM    7  O   UNL     1       5.943  30.744  58.098  1.00  0.00    -0.272 OA
HETATM    8  H   UNL     1       8.749  29.692  59.262  1.00  0.00     0.190 HD
BRANCH   6   9
HETATM    9  C   UNL     1       7.525  29.355  56.931  1.00  0.00     0.109 C 
BRANCH   9  10
HETATM   10  C   UNL     1       8.371  28.142  57.321  1.00  0.00     0.048 C 
BRANCH  10  11
HETATM   11  C   UNL     1       7.992  26.813  56.704  1.00  0.00    -0.058 A 
HETATM   12  C   UNL     1       7.452  26.700  55.419  1.00  0.00     0.010 A 
HETATM   13  C   UNL     1       7.142  25.444  54.887  1.00  0.00     0.037 A 
HETATM   14  C   UNL     1       7.383  24.278  55.614  1.00  0.00     0.068 A 
HETATM   15  C   UNL     1       7.938  24.379  56.887  1.00  0.00     0.037 A 
HETATM   16  C   UNL     1       8.244  25.636  57.424  1.00  0.00     0.010 A 
BRANCH  14  17
HETATM   17  O   UNL     1       7.037  23.121  54.974  1.00  0.00    -0.356 OA
HETATM   18  C   UNL     1       7.832  21.974  55.248  1.00  0.00     0.210 C 
ENDBRANCH  14  17
ENDBRANCH  10  11
ENDBRANCH   9  10
ENDBRANCH   6   9
ENDBRANCH   2   5
BRANCH   1  19
HETATM   19  C   UNL     1       7.411  32.703  61.906  1.00  0.00     0.058 A 
HETATM   20  C   UNL     1       6.207  33.406  61.942  1.00  0.00     0.047 A 
HETATM   21  C   UNL     1       5.360  33.622  60.723  1.00  0.00     0.071 C 
HETATM   22  N   UNL     1       5.717  33.937  63.097  1.00  0.00    -0.252 NA
HETATM   23  C   UNL     1       6.431  33.794  64.244  1.00  0.00     0.074 A 
HETATM   24  C   UNL     1       7.643  33.113  64.274  1.00  0.00     0.034 A 
HETATM   25  C   UNL     1       8.137  32.562  63.092  1.00  0.00     0.021 A 
BRANCH  23  26
HETATM   26  C   UNL     1       5.794  34.404  65.423  1.00  0.00     0.033 A 
HETATM   27  S   UNL     1       6.472  34.265  66.999  1.00  0.00    -0.100 SA
HETATM   28  C   UNL     1       5.222  35.186  67.709  1.00  0.00     0.050 A 
HETATM   29  C   UNL     1       4.299  35.604  66.780  1.00  0.00     0.008 A 
HETATM   30  C   UNL     1       4.633  35.160  65.467  1.00  0.00     0.021 A 
ENDBRANCH  23  26
ENDBRANCH   1  19
TORSDOF 7
ENDMDL
MODEL 6
REMARK VINA RESULT:      -8.5      1.476      2.069
REMARK  7 active torsions:
REMARK  status: ('A' for Active; 'I' for Inactive)
REMARK    1  A    between atoms: C_4  and  C_5 
REMARK    2  A    between atoms: C_12  and  C_13 
REMARK       I    between atoms: C_13  and  N_14 
REMARK    3  A    between atoms: N_14  and  N_15 
REMARK       I    between atoms: N_15  and  C_16 
REMARK    4  A    between atoms: C_16  and  C_17 
REMARK    5  A    between atoms: C_17  and  C_18 
REMARK    6  A    between atoms: C_18  and  C_19 
REMARK    7  A    between atoms: C_22  and  O_23 
ROOT
HETATM    1  C   UNL     1       6.909  29.417  57.480  1.00  0.00     0.272 C 
HETATM    2  N   UNL     1       7.319  29.620  58.780  1.00  0.00    -0.263 N 
HETATM    3  O   UNL     1       6.422  30.304  56.786  1.00  0.00    -0.266 OA
HETATM    4  H   UNL     1       7.778  28.922  59.364  1.00  0.00     0.190 HD
ENDROOT
BRANCH   2   5
HETATM    5  N   UNL     1       7.150  30.885  59.342  1.00  0.00    -0.267 N 
HETATM    6  C   UNL     1       7.967  31.232  60.395  1.00  0.00     0.236 C 
HETATM    7  O   UNL     1       8.924  30.539  60.744  1.00  0.00    -0.272 OA
HETATM    8  H   UNL     1       6.293  31.377  59.096  1.00  0.00     0.190 HD
BRANCH   6   9
HETATM    9  C   UNL     1       7.644  32.555  61.053  1.00  0.00     0.109 C 
BRANCH   9  10
HETATM   10  C   UNL     1       6.259  32.607  61.697  1.00  0.00     0.048 C 
BRANCH  10  11
HETATM   11  C   UNL     1       6.189  33.034  63.147  1.00  0.00    -0.058 A 
HETATM   12  C   UNL     1       7.328  33.297  63.915  1.00  0.00     0.010 A 
HETATM   13  C   UNL     1       7.207  33.712  65.245  1.00  0.00     0.037 A 
HETATM   14  C   UNL     1       5.953  33.893  65.829  1.00  0.00     0.068 A 
HETATM   15  C   UNL     1       4.813  33.651  65.067  1.00  0.00     0.037 A 
HETATM   16  C   UNL     1       4.932  33.230  63.736  1.00  0.00     0.010 A 
BRANCH  14  17
HETATM   17  O   UNL     1       5.981  34.304  67.131  1.00  0.00    -0.356 OA
HETATM   18  C   UNL     1       4.818  34.047  67.910  1.00  0.00     0.210 C 
ENDBRANCH  14  17
ENDBRANCH  10  11
ENDBRANCH   9  10
ENDBRANCH   6   9
ENDBRANCH   2   5
BRANCH   1  19
HETATM   19  C   UNL     1       7.108  28.044  56.960  1.00  0.00     0.058 A 
HETATM   20  C   UNL     1       6.198  27.456  56.081  1.00  0.00     0.047 A 
HETATM   21  C   UNL     1       4.963  28.163  55.604  1.00  0.00     0.071 C 
HETATM   22  N   UNL     1       6.381  26.199  55.589  1.00  0.00    -0.252 NA
HETATM   23  C   UNL     1       7.470  25.489  55.981  1.00  0.00     0.074 A 
HETATM   24  C   UNL     1       8.409  26.013  56.862  1.00  0.00     0.034 A 
HETATM   25  C   UNL     1       8.226  27.304  57.357  1.00  0.00     0.021 A 
BRANCH  23  26
HETATM   26  C   UNL     1       7.559  24.150  55.375  1.00  0.00     0.033 A 
HETATM   27  S   UNL     1       7.395  23.904  53.679  1.00  0.00    -0.100 SA
HETATM   28  C   UNL     1       7.620  22.217  53.818  1.00  0.00     0.050 A 
HETATM   29  C   UNL     1       7.821  21.830  55.122  1.00  0.00     0.008 A 
HETATM   30  C   UNL     1       7.793  22.941  56.013  1.00  0.00     0.021 A 
ENDBRANCH  23  26
ENDBRANCH   1  19
TORSDOF 7
ENDMDL
MODEL 7
REMARK VINA RESULT:      -8.4      3.721     10.850
REMARK  7 active torsions:
REMARK  status: ('A' for Active; 'I' for Inactive)
REMARK    1  A    between atoms: C_4  and  C_5 
REMARK    2  A    between atoms: C_12  and  C_13 
REMARK       I    between atoms: C_13  and  N_14 
REMARK    3  A    between atoms: N_14  and  N_15 
REMARK       I    between atoms: N_15  and  C_16 
REMARK    4  A    between atoms: C_16  and  C_17 
REMARK    5  A    between atoms: C_17  and  C_18 
REMARK    6  A    between atoms: C_18  and  C_19 
REMARK    7  A    between atoms: C_22  and  O_23 
ROOT
HETATM    1  C   UNL     1       7.019  31.793  59.768  1.00  0.00     0.272 C 
HETATM    2  N   UNL     1       7.282  30.445  59.657  1.00  0.00    -0.263 N 
HETATM    3  O   UNL     1       7.012  32.555  58.806  1.00  0.00    -0.266 OA
HETATM    4  H   UNL     1       7.241  29.776  60.425  1.00  0.00     0.190 HD
ENDROOT
BRANCH   2   5
HETATM    5  N   UNL     1       7.578  29.925  58.397  1.00  0.00    -0.267 N 
HETATM    6  C   UNL     1       8.906  29.785  58.059  1.00  0.00     0.236 C 
HETATM    7  O   UNL     1       9.816  29.952  58.871  1.00  0.00    -0.272 OA
HETATM    8  H   UNL     1       6.811  29.899  57.729  1.00  0.00     0.190 HD
BRANCH   6   9
HETATM    9  C   UNL     1       9.165  29.351  56.633  1.00  0.00     0.109 C 
BRANCH   9  10
HETATM   10  C   UNL     1       7.926  28.824  55.909  1.00  0.00     0.048 C 
BRANCH  10  11
HETATM   11  C   UNL     1       7.747  27.323  55.855  1.00  0.00    -0.058 A 
HETATM   12  C   UNL     1       8.064  26.483  56.928  1.00  0.00     0.010 A 
HETATM   13  C   UNL     1       7.856  25.103  56.834  1.00  0.00     0.037 A 
HETATM   14  C   UNL     1       7.311  24.536  55.682  1.00  0.00     0.068 A 
HETATM   15  C   UNL     1       6.976  25.366  54.616  1.00  0.00     0.037 A 
HETATM   16  C   UNL     1       7.187  26.747  54.705  1.00  0.00     0.010 A 
BRANCH  14  17
HETATM   17  O   UNL     1       7.160  23.178  55.727  1.00  0.00    -0.356 OA
HETATM   18  C   UNL     1       7.694  22.436  54.638  1.00  0.00     0.210 C 
ENDBRANCH  14  17
ENDBRANCH  10  11
ENDBRANCH   9  10
ENDBRANCH   6   9
ENDBRANCH   2   5
BRANCH   1  19
HETATM   19  C   UNL     1       6.729  32.271  61.140  1.00  0.00     0.058 A 
HETATM   20  C   UNL     1       7.723  32.334  62.117  1.00  0.00     0.047 A 
HETATM   21  C   UNL     1       9.142  31.925  61.854  1.00  0.00     0.071 C 
HETATM   22  N   UNL     1       7.467  32.785  63.377  1.00  0.00    -0.252 NA
HETATM   23  C   UNL     1       6.203  33.165  63.698  1.00  0.00     0.074 A 
HETATM   24  C   UNL     1       5.166  33.117  62.774  1.00  0.00     0.034 A 
HETATM   25  C   UNL     1       5.432  32.665  61.482  1.00  0.00     0.021 A 
BRANCH  23  26
HETATM   26  C   UNL     1       6.057  33.639  65.085  1.00  0.00     0.033 A 
HETATM   27  S   UNL     1       4.515  33.936  65.788  1.00  0.00    -0.100 SA
HETATM   28  C   UNL     1       5.194  34.402  67.284  1.00  0.00     0.050 A 
HETATM   29  C   UNL     1       6.567  34.335  67.269  1.00  0.00     0.008 A 
HETATM   30  C   UNL     1       7.060  33.889  66.009  1.00  0.00     0.021 A 
ENDBRANCH  23  26
ENDBRANCH   1  19
TORSDOF 7
ENDMDL
MODEL 8
REMARK VINA RESULT:      -8.3      3.809     10.733
REMARK  7 active torsions:
REMARK  status: ('A' for Active; 'I' for Inactive)
REMARK    1  A    between atoms: C_4  and  C_5 
REMARK    2  A    between atoms: C_12  and  C_13 
REMARK       I    between atoms: C_13  and  N_14 
REMARK    3  A    between atoms: N_14  and  N_15 
REMARK       I    between atoms: N_15  and  C_16 
REMARK    4  A    between atoms: C_16  and  C_17 
REMARK    5  A    between atoms: C_17  and  C_18 
REMARK    6  A    between atoms: C_18  and  C_19 
REMARK    7  A    between atoms: C_22  and  O_23 
ROOT
HETATM    1  C   UNL     1       7.642  29.044  56.864  1.00  0.00     0.272 C 
HETATM    2  N   UNL     1       7.753  29.406  55.539  1.00  0.00    -0.263 N 
HETATM    3  O   UNL     1       7.930  27.926  57.279  1.00  0.00    -0.266 OA
HETATM    4  H   UNL     1       7.577  30.340  55.172  1.00  0.00     0.190 HD
ENDROOT
BRANCH   2   5
HETATM    5  N   UNL     1       8.190  28.451  54.622  1.00  0.00    -0.267 N 
HETATM    6  C   UNL     1       7.232  27.738  53.936  1.00  0.00     0.236 C 
HETATM    7  O   UNL     1       6.035  28.020  53.988  1.00  0.00    -0.272 OA
HETATM    8  H   UNL     1       9.170  28.181  54.684  1.00  0.00     0.190 HD
BRANCH   6   9
HETATM    9  C   UNL     1       7.762  26.622  53.062  1.00  0.00     0.109 C 
BRANCH   9  10
HETATM   10  C   UNL     1       6.791  25.453  52.891  1.00  0.00     0.048 C 
BRANCH  10  11
HETATM   11  C   UNL     1       7.183  24.135  53.521  1.00  0.00    -0.058 A 
HETATM   12  C   UNL     1       7.006  23.862  54.881  1.00  0.00     0.010 A 
HETATM   13  C   UNL     1       7.364  22.617  55.408  1.00  0.00     0.037 A 
HETATM   14  C   UNL     1       7.885  21.614  54.590  1.00  0.00     0.068 A 
HETATM   15  C   UNL     1       8.048  21.870  53.231  1.00  0.00     0.037 A 
HETATM   16  C   UNL     1       7.696  23.118  52.702  1.00  0.00     0.010 A 
BRANCH  14  17
HETATM   17  O   UNL     1       8.187  20.448  55.234  1.00  0.00    -0.356 OA
HETATM   18  C   UNL     1       9.344  20.454  56.062  1.00  0.00     0.210 C 
ENDBRANCH  14  17
ENDBRANCH  10  11
ENDBRANCH   9  10
ENDBRANCH   6   9
ENDBRANCH   2   5
BRANCH   1  19
HETATM   19  C   UNL     1       7.157  30.109  57.772  1.00  0.00     0.058 A 
HETATM   20  C   UNL     1       5.816  30.494  57.798  1.00  0.00     0.047 A 
HETATM   21  C   UNL     1       4.778  29.866  56.915  1.00  0.00     0.071 C 
HETATM   22  N   UNL     1       5.360  31.462  58.641  1.00  0.00    -0.252 NA
HETATM   23  C   UNL     1       6.239  32.088  59.466  1.00  0.00     0.074 A 
HETATM   24  C   UNL     1       7.590  31.759  59.482  1.00  0.00     0.034 A 
HETATM   25  C   UNL     1       8.053  30.759  58.626  1.00  0.00     0.021 A 
BRANCH  23  26
HETATM   26  C   UNL     1       5.624  33.108  60.330  1.00  0.00     0.033 A 
HETATM   27  S   UNL     1       4.198  33.954  59.868  1.00  0.00    -0.100 SA
HETATM   28  C   UNL     1       4.165  34.857  61.316  1.00  0.00     0.050 A 
HETATM   29  C   UNL     1       5.208  34.533  62.150  1.00  0.00     0.008 A 
HETATM   30  C   UNL     1       6.041  33.524  61.585  1.00  0.00     0.021 A 
ENDBRANCH  23  26
ENDBRANCH   1  19
TORSDOF 7
ENDMDL
MODEL 9
REMARK VINA RESULT:      -8.3      3.583     11.102
REMARK  7 active torsions:
REMARK  status: ('A' for Active; 'I' for Inactive)
REMARK    1  A    between atoms: C_4  and  C_5 
REMARK    2  A    between atoms: C_12  and  C_13 
REMARK       I    between atoms: C_13  and  N_14 
REMARK    3  A    between atoms: N_14  and  N_15 
REMARK       I    between atoms: N_15  and  C_16 
REMARK    4  A    between atoms: C_16  and  C_17 
REMARK    5  A    between atoms: C_17  and  C_18 
REMARK    6  A    between atoms: C_18  and  C_19 
REMARK    7  A    between atoms: C_22  and  O_23 
ROOT
HETATM    1  C   UNL     1       8.002  30.276  58.181  1.00  0.00     0.272 C 
HETATM    2  N   UNL     1       7.242  29.171  57.861  1.00  0.00    -0.263 N 
HETATM    3  O   UNL     1       9.077  30.526  57.644  1.00  0.00    -0.266 OA
HETATM    4  H   UNL     1       6.321  28.965  58.247  1.00  0.00     0.190 HD
ENDROOT
BRANCH   2   5
HETATM    5  N   UNL     1       7.727  28.284  56.901  1.00  0.00    -0.267 N 
HETATM    6  C   UNL     1       7.118  28.283  55.666  1.00  0.00     0.236 C 
HETATM    7  O   UNL     1       6.285  29.129  55.340  1.00  0.00    -0.272 OA
HETATM    8  H   UNL     1       8.337  27.543  57.240  1.00  0.00     0.190 HD
BRANCH   6   9
HETATM    9  C   UNL     1       7.592  27.206  54.715  1.00  0.00     0.109 C 
BRANCH   9  10
HETATM   10  C   UNL     1       6.536  26.145  54.403  1.00  0.00     0.048 C 
BRANCH  10  11
HETATM   11  C   UNL     1       7.003  24.708  54.337  1.00  0.00    -0.058 A 
HETATM   12  C   UNL     1       7.073  23.881  55.463  1.00  0.00     0.010 A 
HETATM   13  C   UNL     1       7.489  22.551  55.342  1.00  0.00     0.037 A 
HETATM   14  C   UNL     1       7.823  22.014  54.099  1.00  0.00     0.068 A 
HETATM   15  C   UNL     1       7.740  22.824  52.969  1.00  0.00     0.037 A 
HETATM   16  C   UNL     1       7.328  24.157  53.088  1.00  0.00     0.010 A 
BRANCH  14  17
HETATM   17  O   UNL     1       8.209  20.703  54.126  1.00  0.00    -0.356 OA
HETATM   18  C   UNL     1       8.899  20.261  55.288  1.00  0.00     0.210 C 
ENDBRANCH  14  17
ENDBRANCH  10  11
ENDBRANCH   9  10
ENDBRANCH   6   9
ENDBRANCH   2   5
BRANCH   1  19
HETATM   19  C   UNL     1       7.427  31.161  59.220  1.00  0.00     0.058 A 
HETATM   20  C   UNL     1       7.996  31.265  60.489  1.00  0.00     0.047 A 
HETATM   21  C   UNL     1       9.218  30.492  60.892  1.00  0.00     0.071 C 
HETATM   22  N   UNL     1       7.481  32.087  61.445  1.00  0.00    -0.252 NA
HETATM   23  C   UNL     1       6.368  32.813  61.162  1.00  0.00     0.074 A 
HETATM   24  C   UNL     1       5.747  32.748  59.920  1.00  0.00     0.034 A 
HETATM   25  C   UNL     1       6.282  31.914  58.939  1.00  0.00     0.021 A 
BRANCH  23  26
HETATM   26  C   UNL     1       5.914  33.666  62.273  1.00  0.00     0.033 A 
HETATM   27  S   UNL     1       5.382  33.006  63.771  1.00  0.00    -0.100 SA
HETATM   28  C   UNL     1       5.076  34.547  64.437  1.00  0.00     0.050 A 
HETATM   29  C   UNL     1       5.371  35.558  63.554  1.00  0.00     0.008 A 
HETATM   30  C   UNL     1       5.859  35.051  62.315  1.00  0.00     0.021 A 
ENDBRANCH  23  26
ENDBRANCH   1  19
TORSDOF 7
ENDMDL
MODEL 10
REMARK VINA RESULT:      -8.0      1.635      2.022
REMARK  7 active torsions:
REMARK  status: ('A' for Active; 'I' for Inactive)
REMARK    1  A    between atoms: C_4  and  C_5 
REMARK    2  A    between atoms: C_12  and  C_13 
REMARK       I    between atoms: C_13  and  N_14 
REMARK    3  A    between atoms: N_14  and  N_15 
REMARK       I    between atoms: N_15  and  C_16 
REMARK    4  A    between atoms: C_16  and  C_17 
REMARK    5  A    between atoms: C_17  and  C_18 
REMARK    6  A    between atoms: C_18  and  C_19 
REMARK    7  A    between atoms: C_22  and  O_23 
ROOT
HETATM    1  C   UNL     1       6.024  28.497  56.154  1.00  0.00     0.272 C 
HETATM    2  N   UNL     1       5.945  28.721  57.512  1.00  0.00    -0.263 N 
HETATM    3  O   UNL     1       5.822  29.372  55.319  1.00  0.00    -0.266 OA
HETATM    4  H   UNL     1       6.162  28.031  58.231  1.00  0.00     0.190 HD
ENDROOT
BRANCH   2   5
HETATM    5  N   UNL     1       5.598  29.995  57.958  1.00  0.00    -0.267 N 
HETATM    6  C   UNL     1       6.618  30.852  58.304  1.00  0.00     0.236 C 
HETATM    7  O   UNL     1       7.802  30.591  58.088  1.00  0.00    -0.272 OA
HETATM    8  H   UNL     1       4.622  30.132  58.216  1.00  0.00     0.190 HD
BRANCH   6   9
HETATM    9  C   UNL     1       6.179  32.166  58.912  1.00  0.00     0.109 C 
BRANCH   9  10
HETATM   10  C   UNL     1       5.366  32.015  60.198  1.00  0.00     0.048 C 
BRANCH  10  11
HETATM   11  C   UNL     1       5.982  32.557  61.469  1.00  0.00    -0.058 A 
HETATM   12  C   UNL     1       5.537  33.731  62.086  1.00  0.00     0.010 A 
HETATM   13  C   UNL     1       6.125  34.176  63.274  1.00  0.00     0.037 A 
HETATM   14  C   UNL     1       7.152  33.452  63.881  1.00  0.00     0.068 A 
HETATM   15  C   UNL     1       7.589  32.272  63.284  1.00  0.00     0.037 A 
HETATM   16  C   UNL     1       7.005  31.828  62.092  1.00  0.00     0.010 A 
BRANCH  14  17
HETATM   17  O   UNL     1       7.632  33.998  65.037  1.00  0.00    -0.356 OA
HETATM   18  C   UNL     1       6.790  33.922  66.181  1.00  0.00     0.210 C 
ENDBRANCH  14  17
ENDBRANCH  10  11
ENDBRANCH   9  10
ENDBRANCH   6   9
ENDBRANCH   2   5
BRANCH   1  19
HETATM   19  C   UNL     1       6.383  27.114  55.761  1.00  0.00     0.058 A 
HETATM   20  C   UNL     1       7.562  26.512  56.200  1.00  0.00     0.047 A 
HETATM   21  C   UNL     1       8.544  27.213  57.091  1.00  0.00     0.071 C 
HETATM   22  N   UNL     1       7.892  25.237  55.853  1.00  0.00    -0.252 NA
HETATM   23  C   UNL     1       7.059  24.537  55.039  1.00  0.00     0.074 A 
HETATM   24  C   UNL     1       5.874  25.083  54.559  1.00  0.00     0.034 A 
HETATM   25  C   UNL     1       5.533  26.385  54.924  1.00  0.00     0.021 A 
BRANCH  23  26
HETATM   26  C   UNL     1       7.522  23.171  54.743  1.00  0.00     0.033 A 
HETATM   27  S   UNL     1       8.098  22.117  55.977  1.00  0.00    -0.100 SA
HETATM   28  C   UNL     1       8.392  20.849  54.872  1.00  0.00     0.050 A 
HETATM   29  C   UNL     1       8.061  21.201  53.584  1.00  0.00     0.008 A 
HETATM   30  C   UNL     1       7.555  22.531  53.514  1.00  0.00     0.021 A 
ENDBRANCH  23  26
ENDBRANCH   1  19
TORSDOF 7
ENDMDL
