MODEL 1
REMARK VINA RESULT:     -10.0      0.000      0.000
REMARK  4 active torsions:
REMARK  status: ('A' for Active; 'I' for Inactive)
REMARK    1  A    between atoms: O_2  and  C_3 
REMARK    2  A    between atoms: C_5  and  C_6 
REMARK    3  A    between atoms: C_10  and  N_11 
REMARK    4  A    between atoms: C_14  and  C_15 
ROOT
HETATM    1  C   UNL     1       7.518  27.939  57.628  1.00  0.00     0.164 C 
HETATM    2  N   UNL     1       6.208  28.382  57.157  1.00  0.00    -0.074 N 
HETATM    3  C   UNL     1       5.360  27.602  56.413  1.00  0.00     0.736 C 
HETATM    4  N   UNL     1       4.222  28.228  56.267  1.00  0.00     0.131 NA
HETATM    5  C   UNL     1       4.410  29.376  56.977  1.00  0.00     0.753 C 
HETATM    6  N   UNL     1       5.579  29.485  57.603  1.00  0.00     0.037 NA
HETATM    7  N   UNL     1       5.729  26.380  55.975  1.00  0.00    -0.214 N 
HETATM    8  C   UNL     1       6.841  25.714  56.643  1.00  0.00     0.135 C 
HETATM    9  C   UNL     1       7.995  26.711  56.829  1.00  0.00     0.063 C 
HETATM   10  H   UNL     1       4.973  25.771  55.669  1.00  0.00     0.178 HD
ENDROOT
BRANCH   1  11
HETATM   11  C   UNL     1       8.601  29.011  57.602  1.00  0.00    -0.030 A 
HETATM   12  C   UNL     1       8.426  30.170  58.387  1.00  0.00     0.046 A 
HETATM   13  C   UNL     1       9.419  31.151  58.452  1.00  0.00     0.068 A 
HETATM   14  C   UNL     1      10.591  30.984  57.716  1.00  0.00     0.037 A 
HETATM   15  C   UNL     1      10.784  29.842  56.939  1.00  0.00     0.003 A 
HETATM   16  C   UNL     1       9.800  28.856  56.891  1.00  0.00     0.009 A 
BRANCH  13  17
HETATM   17  O   UNL     1       9.364  32.301  59.189  1.00  0.00    -0.356 OA
HETATM   18  C   UNL     1       8.496  32.305  60.315  1.00  0.00     0.210 C 
ENDBRANCH  13  17
ENDBRANCH   1  11
BRANCH   8  19
HETATM   19  C   UNL     1       7.305  24.508  55.848  1.00  0.00    -0.035 A 
HETATM   20  C   UNL     1       8.092  23.499  56.430  1.00  0.00     0.010 A 
HETATM   21  C   UNL     1       8.474  22.376  55.692  1.00  0.00     0.019 A 
HETATM   22  C   UNL     1       8.063  22.248  54.367  1.00  0.00     0.011 A 
HETATM   23 BR   UNL     1       8.570  20.724  53.370  1.00  0.00    -0.051 Br
HETATM   24  C   UNL     1       7.277  23.231  53.774  1.00  0.00     0.019 A 
HETATM   25  C   UNL     1       6.899  24.357  54.512  1.00  0.00     0.010 A 
ENDBRANCH   8  19
BRANCH   5  26
HETATM   26  N   UNL     1       3.414  30.255  57.040  1.00  0.00    -0.229 N 
HETATM   27  H   UNL     1       2.520  29.911  57.360  1.00  0.00     0.174 HD
HETATM   28  H   UNL     1       3.647  31.192  57.335  1.00  0.00     0.174 HD
ENDBRANCH   5  26
TORSDOF 4
ENDMDL
MODEL 2
REMARK VINA RESULT:      -9.3      4.193      7.441
REMARK  4 active torsions:
REMARK  status: ('A' for Active; 'I' for Inactive)
REMARK    1  A    between atoms: O_2  and  C_3 
REMARK    2  A    between atoms: C_5  and  C_6 
REMARK    3  A    between atoms: C_10  and  N_11 
REMARK    4  A    between atoms: C_14  and  C_15 
ROOT
HETATM    1  C   UNL     1       7.755  25.976  53.345  1.00  0.00     0.164 C 
HETATM    2  N   UNL     1       6.564  26.370  52.597  1.00  0.00    -0.074 N 
HETATM    3  C   UNL     1       5.870  27.531  52.823  1.00  0.00     0.736 C 
HETATM    4  N   UNL     1       4.945  27.661  51.908  1.00  0.00     0.131 NA
HETATM    5  C   UNL     1       5.141  26.568  51.117  1.00  0.00     0.753 C 
HETATM    6  N   UNL     1       6.166  25.789  51.450  1.00  0.00     0.037 NA
HETATM    7  N   UNL     1       6.191  28.357  53.841  1.00  0.00    -0.214 N 
HETATM    8  C   UNL     1       7.522  28.247  54.425  1.00  0.00     0.135 C 
HETATM    9  C   UNL     1       7.853  26.766  54.665  1.00  0.00     0.063 C 
HETATM   10  H   UNL     1       5.814  29.300  53.783  1.00  0.00     0.178 HD
ENDROOT
BRANCH   1  11
HETATM   11  C   UNL     1       7.857  24.484  53.640  1.00  0.00    -0.030 A 
HETATM   12  C   UNL     1       7.944  24.064  54.984  1.00  0.00     0.046 A 
HETATM   13  C   UNL     1       7.970  22.705  55.312  1.00  0.00     0.068 A 
HETATM   14  C   UNL     1       7.925  21.756  54.291  1.00  0.00     0.037 A 
HETATM   15  C   UNL     1       7.833  22.154  52.958  1.00  0.00     0.003 A 
HETATM   16  C   UNL     1       7.788  23.509  52.634  1.00  0.00     0.009 A 
BRANCH  13  17
HETATM   17  O   UNL     1       8.037  22.185  56.575  1.00  0.00    -0.356 OA
HETATM   18  C   UNL     1       8.402  20.816  56.690  1.00  0.00     0.210 C 
ENDBRANCH  13  17
ENDBRANCH   1  11
BRANCH   8  19
HETATM   19  C   UNL     1       7.608  29.026  55.725  1.00  0.00    -0.035 A 
HETATM   20  C   UNL     1       6.499  29.717  56.244  1.00  0.00     0.010 A 
HETATM   21  C   UNL     1       6.587  30.394  57.464  1.00  0.00     0.019 A 
HETATM   22  C   UNL     1       7.782  30.376  58.179  1.00  0.00     0.011 A 
HETATM   23 BR   UNL     1       7.899  31.282  59.834  1.00  0.00    -0.051 Br
HETATM   24  C   UNL     1       8.889  29.692  57.686  1.00  0.00     0.019 A 
HETATM   25  C   UNL     1       8.802  29.018  56.464  1.00  0.00     0.010 A 
ENDBRANCH   8  19
BRANCH   5  26
HETATM   26  N   UNL     1       4.350  26.398  50.061  1.00  0.00    -0.229 N 
HETATM   27  H   UNL     1       3.390  26.697  50.157  1.00  0.00     0.174 HD
HETATM   28  H   UNL     1       4.761  26.548  49.151  1.00  0.00     0.174 HD
ENDBRANCH   5  26
TORSDOF 4
ENDMDL
MODEL 3
REMARK VINA RESULT:      -9.3      5.259      7.353
REMARK  4 active torsions:
REMARK  status: ('A' for Active; 'I' for Inactive)
REMARK    1  A    between atoms: O_2  and  C_3 
REMARK    2  A    between atoms: C_5  and  C_6 
REMARK    3  A    between atoms: C_10  and  N_11 
REMARK    4  A    between atoms: C_14  and  C_15 
ROOT
HETATM    1  C   UNL     1       5.899  27.500  51.477  1.00  0.00     0.164 C 
HETATM    2  N   UNL     1       5.012  28.083  52.481  1.00  0.00    -0.074 N 
HETATM    3  C   UNL     1       4.917  27.629  53.772  1.00  0.00     0.736 C 
HETATM    4  N   UNL     1       4.148  28.437  54.453  1.00  0.00     0.131 NA
HETATM    5  C   UNL     1       3.827  29.398  53.541  1.00  0.00     0.753 C 
HETATM    6  N   UNL     1       4.391  29.269  52.343  1.00  0.00     0.037 NA
HETATM    7  N   UNL     1       5.579  26.527  54.182  1.00  0.00    -0.214 N 
HETATM    8  C   UNL     1       6.719  26.074  53.394  1.00  0.00     0.135 C 
HETATM    9  C   UNL     1       6.347  26.088  51.904  1.00  0.00     0.063 C 
HETATM   10  H   UNL     1       5.668  26.411  55.189  1.00  0.00     0.178 HD
ENDROOT
BRANCH   1  11
HETATM   11  C   UNL     1       5.318  27.443  50.070  1.00  0.00    -0.030 A 
HETATM   12  C   UNL     1       4.501  26.348  49.718  1.00  0.00     0.046 A 
HETATM   13  C   UNL     1       3.888  26.283  48.464  1.00  0.00     0.068 A 
HETATM   14  C   UNL     1       4.103  27.309  47.545  1.00  0.00     0.037 A 
HETATM   15  C   UNL     1       4.903  28.402  47.878  1.00  0.00     0.003 A 
HETATM   16  C   UNL     1       5.498  28.475  49.136  1.00  0.00     0.009 A 
BRANCH  13  17
HETATM   17  O   UNL     1       3.067  25.282  48.023  1.00  0.00    -0.356 OA
HETATM   18  C   UNL     1       2.552  25.405  46.703  1.00  0.00     0.210 C 
ENDBRANCH  13  17
ENDBRANCH   1  11
BRANCH   8  19
HETATM   19  C   UNL     1       7.150  24.682  53.819  1.00  0.00    -0.035 A 
HETATM   20  C   UNL     1       7.028  24.247  55.150  1.00  0.00     0.010 A 
HETATM   21  C   UNL     1       7.392  22.948  55.513  1.00  0.00     0.019 A 
HETATM   22  C   UNL     1       7.873  22.070  54.545  1.00  0.00     0.011 A 
HETATM   23 BR   UNL     1       8.356  20.308  55.032  1.00  0.00    -0.051 Br
HETATM   24  C   UNL     1       7.995  22.478  53.219  1.00  0.00     0.019 A 
HETATM   25  C   UNL     1       7.634  23.779  52.858  1.00  0.00     0.010 A 
ENDBRANCH   8  19
BRANCH   5  26
HETATM   26  N   UNL     1       3.041  30.401  53.922  1.00  0.00    -0.229 N 
HETATM   27  H   UNL     1       3.191  30.770  54.850  1.00  0.00     0.174 HD
HETATM   28  H   UNL     1       2.794  31.083  53.220  1.00  0.00     0.174 HD
ENDBRANCH   5  26
TORSDOF 4
ENDMDL
MODEL 4
REMARK VINA RESULT:      -9.1      1.798      2.483
REMARK  4 active torsions:
REMARK  status: ('A' for Active; 'I' for Inactive)
REMARK    1  A    between atoms: O_2  and  C_3 
REMARK    2  A    between atoms: C_5  and  C_6 
REMARK    3  A    between atoms: C_10  and  N_11 
REMARK    4  A    between atoms: C_14  and  C_15 
ROOT
HETATM    1  C   UNL     1       6.032  27.663  56.246  1.00  0.00     0.164 C 
HETATM    2  N   UNL     1       5.254  28.188  55.126  1.00  0.00    -0.074 N 
HETATM    3  C   UNL     1       4.929  27.456  54.012  1.00  0.00     0.736 C 
HETATM    4  N   UNL     1       4.119  28.157  53.262  1.00  0.00     0.131 NA
HETATM    5  C   UNL     1       3.946  29.301  53.983  1.00  0.00     0.753 C 
HETATM    6  N   UNL     1       4.557  29.339  55.164  1.00  0.00     0.037 NA
HETATM    7  N   UNL     1       5.400  26.205  53.829  1.00  0.00    -0.214 N 
HETATM    8  C   UNL     1       5.888  25.475  54.993  1.00  0.00     0.135 C 
HETATM    9  C   UNL     1       6.796  26.392  55.827  1.00  0.00     0.063 C 
HETATM   10  H   UNL     1       4.914  25.645  53.133  1.00  0.00     0.178 HD
ENDROOT
BRANCH   1  11
HETATM   11  C   UNL     1       7.005  28.658  56.866  1.00  0.00    -0.030 A 
HETATM   12  C   UNL     1       8.300  28.771  56.318  1.00  0.00     0.046 A 
HETATM   13  C   UNL     1       9.207  29.715  56.805  1.00  0.00     0.068 A 
HETATM   14  C   UNL     1       8.828  30.544  57.860  1.00  0.00     0.037 A 
HETATM   15  C   UNL     1       7.551  30.450  58.411  1.00  0.00     0.003 A 
HETATM   16  C   UNL     1       6.640  29.521  57.911  1.00  0.00     0.009 A 
BRANCH  13  17
HETATM   17  O   UNL     1      10.477  29.923  56.341  1.00  0.00    -0.356 OA
HETATM   18  C   UNL     1      11.527  29.895  57.299  1.00  0.00     0.210 C 
ENDBRANCH  13  17
ENDBRANCH   1  11
BRANCH   8  19
HETATM   19  C   UNL     1       6.641  24.227  54.571  1.00  0.00    -0.035 A 
HETATM   20  C   UNL     1       7.084  23.279  55.510  1.00  0.00     0.010 A 
HETATM   21  C   UNL     1       7.739  22.116  55.098  1.00  0.00     0.019 A 
HETATM   22  C   UNL     1       7.948  21.887  53.740  1.00  0.00     0.011 A 
HETATM   23 BR   UNL     1       8.824  20.308  53.179  1.00  0.00    -0.051 Br
HETATM   24  C   UNL     1       7.512  22.808  52.793  1.00  0.00     0.019 A 
HETATM   25  C   UNL     1       6.860  23.974  53.207  1.00  0.00     0.010 A 
ENDBRANCH   8  19
BRANCH   5  26
HETATM   26  N   UNL     1       3.151  30.248  53.491  1.00  0.00    -0.229 N 
HETATM   27  H   UNL     1       2.521  29.975  52.752  1.00  0.00     0.174 HD
HETATM   28  H   UNL     1       2.784  30.924  54.146  1.00  0.00     0.174 HD
ENDBRANCH   5  26
TORSDOF 4
ENDMDL
MODEL 5
REMARK VINA RESULT:      -9.1      4.005      7.326
REMARK  4 active torsions:
REMARK  status: ('A' for Active; 'I' for Inactive)
REMARK    1  A    between atoms: O_2  and  C_3 
REMARK    2  A    between atoms: C_5  and  C_6 
REMARK    3  A    between atoms: C_10  and  N_11 
REMARK    4  A    between atoms: C_14  and  C_15 
ROOT
HETATM    1  C   UNL     1       7.251  26.969  54.703  1.00  0.00     0.164 C 
HETATM    2  N   UNL     1       5.926  27.492  54.381  1.00  0.00    -0.074 N 
HETATM    3  C   UNL     1       5.419  28.659  54.895  1.00  0.00     0.736 C 
HETATM    4  N   UNL     1       4.279  28.922  54.314  1.00  0.00     0.131 NA
HETATM    5  C   UNL     1       4.148  27.903  53.418  1.00  0.00     0.753 C 
HETATM    6  N   UNL     1       5.163  27.045  53.366  1.00  0.00     0.037 NA
HETATM    7  N   UNL     1       6.089  29.366  55.830  1.00  0.00    -0.214 N 
HETATM    8  C   UNL     1       7.521  29.133  55.976  1.00  0.00     0.135 C 
HETATM    9  C   UNL     1       7.794  27.622  55.989  1.00  0.00     0.063 C 
HETATM   10  H   UNL     1       5.785  30.328  55.961  1.00  0.00     0.178 HD
ENDROOT
BRANCH   1  11
HETATM   11  C   UNL     1       7.321  25.453  54.838  1.00  0.00    -0.030 A 
HETATM   12  C   UNL     1       7.597  24.683  53.688  1.00  0.00     0.046 A 
HETATM   13  C   UNL     1       7.741  23.295  53.770  1.00  0.00     0.068 A 
HETATM   14  C   UNL     1       7.592  22.665  55.005  1.00  0.00     0.037 A 
HETATM   15  C   UNL     1       7.325  23.411  56.153  1.00  0.00     0.003 A 
HETATM   16  C   UNL     1       7.201  24.797  56.073  1.00  0.00     0.009 A 
BRANCH  13  17
HETATM   17  O   UNL     1       8.023  22.454  52.729  1.00  0.00    -0.356 OA
HETATM   18  C   UNL     1       7.995  21.059  53.001  1.00  0.00     0.210 C 
ENDBRANCH  13  17
ENDBRANCH   1  11
BRANCH   8  19
HETATM   19  C   UNL     1       8.046  29.778  57.245  1.00  0.00    -0.035 A 
HETATM   20  C   UNL     1       9.424  29.893  57.498  1.00  0.00     0.010 A 
HETATM   21  C   UNL     1       9.887  30.527  58.654  1.00  0.00     0.019 A 
HETATM   22  C   UNL     1       8.975  31.060  59.562  1.00  0.00     0.011 A 
HETATM   23 BR   UNL     1       9.601  31.928  61.120  1.00  0.00    -0.051 Br
HETATM   24  C   UNL     1       7.607  30.964  59.327  1.00  0.00     0.019 A 
HETATM   25  C   UNL     1       7.144  30.326  58.172  1.00  0.00     0.010 A 
ENDBRANCH   8  19
BRANCH   5  26
HETATM   26  N   UNL     1       3.070  27.875  52.640  1.00  0.00    -0.229 N 
HETATM   27  H   UNL     1       3.188  28.182  51.685  1.00  0.00     0.174 HD
HETATM   28  H   UNL     1       2.430  27.104  52.770  1.00  0.00     0.174 HD
ENDBRANCH   5  26
TORSDOF 4
ENDMDL
MODEL 6
REMARK VINA RESULT:      -9.0      3.899      6.946
REMARK  4 active torsions:
REMARK  status: ('A' for Active; 'I' for Inactive)
REMARK    1  A    between atoms: O_2  and  C_3 
REMARK    2  A    between atoms: C_5  and  C_6 
REMARK    3  A    between atoms: C_10  and  N_11 
REMARK    4  A    between atoms: C_14  and  C_15 
ROOT
HETATM    1  C   UNL     1       7.119  27.539  54.044  1.00  0.00     0.164 C 
HETATM    2  N   UNL     1       5.711  27.910  53.919  1.00  0.00    -0.074 N 
HETATM    3  C   UNL     1       5.100  28.861  54.696  1.00  0.00     0.736 C 
HETATM    4  N   UNL     1       3.886  29.058  54.253  1.00  0.00     0.131 NA
HETATM    5  C   UNL     1       3.814  28.228  53.173  1.00  0.00     0.753 C 
HETATM    6  N   UNL     1       4.928  27.561  52.882  1.00  0.00     0.037 NA
HETATM    7  N   UNL     1       5.749  29.462  55.715  1.00  0.00    -0.214 N 
HETATM    8  C   UNL     1       7.207  29.425  55.722  1.00  0.00     0.135 C 
HETATM    9  C   UNL     1       7.682  28.000  55.403  1.00  0.00     0.063 C 
HETATM   10  H   UNL     1       5.330  30.321  56.063  1.00  0.00     0.178 HD
ENDROOT
BRANCH   1  11
HETATM   11  C   UNL     1       7.407  26.055  53.854  1.00  0.00    -0.030 A 
HETATM   12  C   UNL     1       7.241  25.187  54.953  1.00  0.00     0.046 A 
HETATM   13  C   UNL     1       7.425  23.808  54.814  1.00  0.00     0.068 A 
HETATM   14  C   UNL     1       7.793  23.291  53.573  1.00  0.00     0.037 A 
HETATM   15  C   UNL     1       7.956  24.134  52.474  1.00  0.00     0.003 A 
HETATM   16  C   UNL     1       7.754  25.506  52.610  1.00  0.00     0.009 A 
BRANCH  13  17
HETATM   17  O   UNL     1       7.276  22.875  55.802  1.00  0.00    -0.356 OA
HETATM   18  C   UNL     1       8.399  22.638  56.641  1.00  0.00     0.210 C 
ENDBRANCH  13  17
ENDBRANCH   1  11
BRANCH   8  19
HETATM   19  C   UNL     1       7.752  29.877  57.064  1.00  0.00    -0.035 A 
HETATM   20  C   UNL     1       6.915  30.420  58.055  1.00  0.00     0.010 A 
HETATM   21  C   UNL     1       7.429  30.791  59.299  1.00  0.00     0.019 A 
HETATM   22  C   UNL     1       8.784  30.615  59.567  1.00  0.00     0.011 A 
HETATM   23 BR   UNL     1       9.480  31.108  61.254  1.00  0.00    -0.051 Br
HETATM   24  C   UNL     1       9.630  30.073  58.603  1.00  0.00     0.019 A 
HETATM   25  C   UNL     1       9.114  29.705  57.356  1.00  0.00     0.010 A 
ENDBRANCH   8  19
BRANCH   5  26
HETATM   26  N   UNL     1       2.684  28.191  52.474  1.00  0.00    -0.229 N 
HETATM   27  H   UNL     1       1.943  27.608  52.834  1.00  0.00     0.174 HD
HETATM   28  H   UNL     1       2.385  29.053  52.041  1.00  0.00     0.174 HD
ENDBRANCH   5  26
TORSDOF 4
ENDMDL
MODEL 7
REMARK VINA RESULT:      -9.0      4.733      7.421
REMARK  4 active torsions:
REMARK  status: ('A' for Active; 'I' for Inactive)
REMARK    1  A    between atoms: O_2  and  C_3 
REMARK    2  A    between atoms: C_5  and  C_6 
REMARK    3  A    between atoms: C_10  and  N_11 
REMARK    4  A    between atoms: C_14  and  C_15 
ROOT
HETATM    1  C   UNL     1       6.198  25.393  54.280  1.00  0.00     0.164 C 
HETATM    2  N   UNL     1       6.951  26.507  54.852  1.00  0.00    -0.074 N 
HETATM    3  C   UNL     1       6.857  27.801  54.408  1.00  0.00     0.736 C 
HETATM    4  N   UNL     1       7.543  28.577  55.204  1.00  0.00     0.131 NA
HETATM    5  C   UNL     1       8.009  27.712  56.150  1.00  0.00     0.753 C 
HETATM    6  N   UNL     1       7.613  26.448  56.022  1.00  0.00     0.037 NA
HETATM    7  N   UNL     1       6.119  28.121  53.324  1.00  0.00    -0.214 N 
HETATM    8  C   UNL     1       5.088  27.186  52.890  1.00  0.00     0.135 C 
HETATM    9  C   UNL     1       5.663  25.761  52.882  1.00  0.00     0.063 C 
HETATM   10  H   UNL     1       5.889  29.107  53.219  1.00  0.00     0.178 HD
ENDROOT
BRANCH   1  11
HETATM   11  C   UNL     1       6.966  24.080  54.198  1.00  0.00    -0.030 A 
HETATM   12  C   UNL     1       7.133  23.317  55.373  1.00  0.00     0.046 A 
HETATM   13  C   UNL     1       7.769  22.074  55.339  1.00  0.00     0.068 A 
HETATM   14  C   UNL     1       8.259  21.591  54.126  1.00  0.00     0.037 A 
HETATM   15  C   UNL     1       8.099  22.329  52.953  1.00  0.00     0.003 A 
HETATM   16  C   UNL     1       7.447  23.560  52.986  1.00  0.00     0.009 A 
BRANCH  13  17
HETATM   17  O   UNL     1       7.970  21.245  56.408  1.00  0.00    -0.356 OA
HETATM   18  C   UNL     1       9.086  20.366  56.342  1.00  0.00     0.210 C 
ENDBRANCH  13  17
ENDBRANCH   1  11
BRANCH   8  19
HETATM   19  C   UNL     1       4.570  27.555  51.512  1.00  0.00    -0.035 A 
HETATM   20  C   UNL     1       4.861  26.773  50.381  1.00  0.00     0.010 A 
HETATM   21  C   UNL     1       4.340  27.106  49.128  1.00  0.00     0.019 A 
HETATM   22  C   UNL     1       3.515  28.221  48.998  1.00  0.00     0.011 A 
HETATM   23 BR   UNL     1       2.800  28.667  47.306  1.00  0.00    -0.051 Br
HETATM   24  C   UNL     1       3.207  29.005  50.107  1.00  0.00     0.019 A 
HETATM   25  C   UNL     1       3.733  28.672  51.359  1.00  0.00     0.010 A 
ENDBRANCH   8  19
BRANCH   5  26
HETATM   26  N   UNL     1       8.758  28.193  57.138  1.00  0.00    -0.229 N 
HETATM   27  H   UNL     1       8.394  28.096  58.074  1.00  0.00     0.174 HD
HETATM   28  H   UNL     1       9.758  28.087  57.049  1.00  0.00     0.174 HD
ENDBRANCH   5  26
TORSDOF 4
ENDMDL
MODEL 8
REMARK VINA RESULT:      -8.9      4.459      7.052
REMARK  4 active torsions:
REMARK  status: ('A' for Active; 'I' for Inactive)
REMARK    1  A    between atoms: O_2  and  C_3 
REMARK    2  A    between atoms: C_5  and  C_6 
REMARK    3  A    between atoms: C_10  and  N_11 
REMARK    4  A    between atoms: C_14  and  C_15 
ROOT
HETATM    1  C   UNL     1       6.623  25.636  55.129  1.00  0.00     0.164 C 
HETATM    2  N   UNL     1       7.411  26.822  55.459  1.00  0.00    -0.074 N 
HETATM    3  C   UNL     1       7.359  27.995  54.749  1.00  0.00     0.736 C 
HETATM    4  N   UNL     1       8.069  28.900  55.369  1.00  0.00     0.131 NA
HETATM    5  C   UNL     1       8.505  28.241  56.480  1.00  0.00     0.753 C 
HETATM    6  N   UNL     1       8.069  26.992  56.620  1.00  0.00     0.037 NA
HETATM    7  N   UNL     1       6.634  28.101  53.616  1.00  0.00    -0.214 N 
HETATM    8  C   UNL     1       5.575  27.127  53.381  1.00  0.00     0.135 C 
HETATM    9  C   UNL     1       6.103  25.716  53.681  1.00  0.00     0.063 C 
HETATM   10  H   UNL     1       6.436  29.049  53.303  1.00  0.00     0.178 HD
ENDROOT
BRANCH   1  11
HETATM   11  C   UNL     1       7.349  24.312  55.333  1.00  0.00    -0.030 A 
HETATM   12  C   UNL     1       7.803  23.606  54.200  1.00  0.00     0.046 A 
HETATM   13  C   UNL     1       8.534  22.423  54.334  1.00  0.00     0.068 A 
HETATM   14  C   UNL     1       8.801  21.928  55.610  1.00  0.00     0.037 A 
HETATM   15  C   UNL     1       8.365  22.615  56.742  1.00  0.00     0.003 A 
HETATM   16  C   UNL     1       7.652  23.805  56.606  1.00  0.00     0.009 A 
BRANCH  13  17
HETATM   17  O   UNL     1       9.036  21.668  53.311  1.00  0.00    -0.356 OA
HETATM   18  C   UNL     1       8.290  20.519  52.931  1.00  0.00     0.210 C 
ENDBRANCH  13  17
ENDBRANCH   1  11
BRANCH   8  19
HETATM   19  C   UNL     1       5.071  27.212  51.952  1.00  0.00    -0.035 A 
HETATM   20  C   UNL     1       5.264  26.161  51.038  1.00  0.00     0.010 A 
HETATM   21  C   UNL     1       4.756  26.241  49.739  1.00  0.00     0.019 A 
HETATM   22  C   UNL     1       4.042  27.370  49.346  1.00  0.00     0.011 A 
HETATM   23 BR   UNL     1       3.345  27.476  47.592  1.00  0.00    -0.051 Br
HETATM   24  C   UNL     1       3.833  28.419  50.237  1.00  0.00     0.019 A 
HETATM   25  C   UNL     1       4.345  28.339  51.535  1.00  0.00     0.010 A 
ENDBRANCH   8  19
BRANCH   5  26
HETATM   26  N   UNL     1       9.267  28.897  57.350  1.00  0.00    -0.229 N 
HETATM   27  H   UNL     1       9.154  29.899  57.391  1.00  0.00     0.174 HD
HETATM   28  H   UNL     1       9.445  28.445  58.236  1.00  0.00     0.174 HD
ENDBRANCH   5  26
TORSDOF 4
ENDMDL
MODEL 9
REMARK VINA RESULT:      -8.4      3.899      5.698
REMARK  4 active torsions:
REMARK  status: ('A' for Active; 'I' for Inactive)
REMARK    1  A    between atoms: O_2  and  C_3 
REMARK    2  A    between atoms: C_5  and  C_6 
REMARK    3  A    between atoms: C_10  and  N_11 
REMARK    4  A    between atoms: C_14  and  C_15 
ROOT
HETATM    1  C   UNL     1       5.927  28.399  53.839  1.00  0.00     0.164 C 
HETATM    2  N   UNL     1       5.492  28.502  55.230  1.00  0.00    -0.074 N 
HETATM    3  C   UNL     1       5.749  27.549  56.183  1.00  0.00     0.736 C 
HETATM    4  N   UNL     1       5.353  27.993  57.347  1.00  0.00     0.131 NA
HETATM    5  C   UNL     1       4.896  29.245  57.060  1.00  0.00     0.753 C 
HETATM    6  N   UNL     1       5.028  29.633  55.795  1.00  0.00     0.037 NA
HETATM    7  N   UNL     1       6.348  26.382  55.869  1.00  0.00    -0.214 N 
HETATM    8  C   UNL     1       7.106  26.309  54.625  1.00  0.00     0.135 C 
HETATM    9  C   UNL     1       6.287  26.942  53.491  1.00  0.00     0.063 C 
HETATM   10  H   UNL     1       6.734  25.857  56.650  1.00  0.00     0.178 HD
ENDROOT
BRANCH   1  11
HETATM   11  C   UNL     1       4.928  28.931  52.819  1.00  0.00    -0.030 A 
HETATM   12  C   UNL     1       4.694  28.183  51.646  1.00  0.00     0.046 A 
HETATM   13  C   UNL     1       3.739  28.592  50.711  1.00  0.00     0.068 A 
HETATM   14  C   UNL     1       3.020  29.764  50.939  1.00  0.00     0.037 A 
HETATM   15  C   UNL     1       3.233  30.513  52.096  1.00  0.00     0.003 A 
HETATM   16  C   UNL     1       4.173  30.094  53.036  1.00  0.00     0.009 A 
BRANCH  13  17
HETATM   17  O   UNL     1       3.419  27.940  49.553  1.00  0.00    -0.356 OA
HETATM   18  C   UNL     1       4.202  26.801  49.215  1.00  0.00     0.210 C 
ENDBRANCH  13  17
ENDBRANCH   1  11
BRANCH   8  19
HETATM   19  C   UNL     1       7.454  24.870  54.289  1.00  0.00    -0.035 A 
HETATM   20  C   UNL     1       7.460  23.864  55.271  1.00  0.00     0.010 A 
HETATM   21  C   UNL     1       7.742  22.538  54.933  1.00  0.00     0.019 A 
HETATM   22  C   UNL     1       8.013  22.206  53.608  1.00  0.00     0.011 A 
HETATM   23 BR   UNL     1       8.384  20.410  53.148  1.00  0.00    -0.051 Br
HETATM   24  C   UNL     1       8.005  23.185  52.619  1.00  0.00     0.019 A 
HETATM   25  C   UNL     1       7.726  24.512  52.959  1.00  0.00     0.010 A 
ENDBRANCH   8  19
BRANCH   5  26
HETATM   26  N   UNL     1       4.417  29.990  58.052  1.00  0.00    -0.229 N 
HETATM   27  H   UNL     1       5.091  30.484  58.618  1.00  0.00     0.174 HD
HETATM   28  H   UNL     1       3.553  30.483  57.879  1.00  0.00     0.174 HD
ENDBRANCH   5  26
TORSDOF 4
ENDMDL
MODEL 10
REMARK VINA RESULT:      -8.3      2.684      3.915
REMARK  4 active torsions:
REMARK  status: ('A' for Active; 'I' for Inactive)
REMARK    1  A    between atoms: O_2  and  C_3 
REMARK    2  A    between atoms: C_5  and  C_6 
REMARK    3  A    between atoms: C_10  and  N_11 
REMARK    4  A    between atoms: C_14  and  C_15 
ROOT
HETATM    1  C   UNL     1       4.805  27.824  54.688  1.00  0.00     0.164 C 
HETATM    2  N   UNL     1       5.129  28.356  53.366  1.00  0.00    -0.074 N 
HETATM    3  C   UNL     1       5.757  27.633  52.384  1.00  0.00     0.736 C 
HETATM    4  N   UNL     1       5.781  28.337  51.284  1.00  0.00     0.131 NA
HETATM    5  C   UNL     1       5.116  29.475  51.633  1.00  0.00     0.753 C 
HETATM    6  N   UNL     1       4.632  29.505  52.872  1.00  0.00     0.037 NA
HETATM    7  N   UNL     1       6.215  26.384  52.613  1.00  0.00    -0.214 N 
HETATM    8  C   UNL     1       5.669  25.646  53.746  1.00  0.00     0.135 C 
HETATM    9  C   UNL     1       5.635  26.559  54.981  1.00  0.00     0.063 C 
HETATM   10  H   UNL     1       6.422  25.829  51.786  1.00  0.00     0.178 HD
ENDROOT
BRANCH   1  11
HETATM   11  C   UNL     1       4.974  28.815  55.832  1.00  0.00    -0.030 A 
HETATM   12  C   UNL     1       6.277  29.114  56.284  1.00  0.00     0.046 A 
HETATM   13  C   UNL     1       6.490  30.067  57.283  1.00  0.00     0.068 A 
HETATM   14  C   UNL     1       5.395  30.718  57.850  1.00  0.00     0.037 A 
HETATM   15  C   UNL     1       4.101  30.440  57.412  1.00  0.00     0.003 A 
HETATM   16  C   UNL     1       3.891  29.503  56.402  1.00  0.00     0.009 A 
BRANCH  13  17
HETATM   17  O   UNL     1       7.704  30.446  57.785  1.00  0.00    -0.356 OA
HETATM   18  C   UNL     1       8.716  29.448  57.851  1.00  0.00     0.210 C 
ENDBRANCH  13  17
ENDBRANCH   1  11
BRANCH   8  19
HETATM   19  C   UNL     1       6.494  24.403  54.028  1.00  0.00    -0.035 A 
HETATM   20  C   UNL     1       6.727  23.956  55.340  1.00  0.00     0.010 A 
HETATM   21  C   UNL     1       7.454  22.786  55.578  1.00  0.00     0.019 A 
HETATM   22  C   UNL     1       7.944  22.049  54.503  1.00  0.00     0.011 A 
HETATM   23 BR   UNL     1       8.918  20.460  54.822  1.00  0.00    -0.051 Br
HETATM   24  C   UNL     1       7.718  22.469  53.196  1.00  0.00     0.019 A 
HETATM   25  C   UNL     1       6.994  23.642  52.960  1.00  0.00     0.010 A 
ENDBRANCH   8  19
BRANCH   5  26
HETATM   26  N   UNL     1       4.953  30.424  50.715  1.00  0.00    -0.229 N 
HETATM   27  H   UNL     1       4.518  31.282  51.019  1.00  0.00     0.174 HD
HETATM   28  H   UNL     1       5.688  30.530  50.031  1.00  0.00     0.174 HD
ENDBRANCH   5  26
TORSDOF 4
ENDMDL
