MODEL 1
REMARK VINA RESULT:      -7.9      0.000      0.000
REMARK  8 active torsions:
REMARK  status: ('A' for Active; 'I' for Inactive)
REMARK    1  A    between atoms: C_4  and  C_5 
REMARK    2  A    between atoms: C_5  and  N_6 
REMARK    3  A    between atoms: N_6  and  C_9 
REMARK    4  A    between atoms: C_9  and  C_10 
REMARK    5  A    between atoms: C_10  and  C_11 
REMARK    6  A    between atoms: C_11  and  C_12 
REMARK    7  A    between atoms: C_17  and  O_18 
REMARK    8  A    between atoms: C_21  and  O_22 
ROOT
HETATM    1  C   UNL     1       7.500  25.838  56.526  1.00  0.00     0.010 C 
HETATM    2  N   UNL     1       7.717  24.484  56.630  1.00  0.00    -0.359 N 
HETATM    3  H   UNL     1       7.813  23.961  57.491  1.00  0.00     0.166 HD
HETATM    4  C   UNL     1       7.857  23.931  55.377  1.00  0.00     0.048 A 
HETATM    5  C   UNL     1       7.595  24.934  54.446  1.00  0.00     0.026 A 
HETATM    6  C   UNL     1       7.648  24.627  53.071  1.00  0.00     0.083 A 
HETATM    7  C   UNL     1       8.013  23.327  52.679  1.00  0.00     0.074 A 
HETATM    8  C   UNL     1       8.280  22.340  53.630  1.00  0.00     0.073 A 
HETATM    9  C   UNL     1       8.188  22.627  54.998  1.00  0.00     0.067 A 
HETATM   10  C   UNL     1       7.328  26.120  55.187  1.00  0.00     0.041 C 
ENDROOT
BRANCH   1  11
HETATM   11  C   UNL     1       7.497  26.742  57.711  1.00  0.00     0.059 C 
BRANCH  11  12
HETATM   12  C   UNL     1       8.157  28.088  57.381  1.00  0.00     0.033 C 
BRANCH  12  13
HETATM   13  C   UNL     1       7.317  29.280  57.837  1.00  0.00     0.233 C 
BRANCH  13  14
HETATM   14  N   UNL     1       7.881  29.811  59.115  1.00  0.00    -0.067 N 
HETATM   15  H   UNL     1       8.747  29.309  59.354  1.00  0.00     0.277 HD
HETATM   16  H   UNL     1       7.227  29.610  59.882  1.00  0.00     0.277 HD
BRANCH  14  17
HETATM   17  C   UNL     1       8.183  31.286  59.153  1.00  0.00     0.223 C 
HETATM   18  C   UNL     1       9.674  31.525  58.919  1.00  0.00     0.046 C 
BRANCH  17  19
HETATM   19  C   UNL     1       7.737  31.884  60.452  1.00  0.00     0.032 A 
HETATM   20  S   UNL     1       8.717  31.847  61.867  1.00  0.00    -0.076 SA
HETATM   21  C   UNL     1       7.493  32.687  62.734  1.00  0.00     0.071 A 
HETATM   22  C   UNL     1       7.690  33.037  64.167  1.00  0.00     0.078 C 
HETATM   23  N   UNL     1       6.418  32.977  62.035  1.00  0.00    -0.257 NA
HETATM   24  C   UNL     1       6.556  32.541  60.737  1.00  0.00     0.134 A 
ENDBRANCH  17  19
ENDBRANCH  14  17
ENDBRANCH  13  14
ENDBRANCH  12  13
ENDBRANCH  11  12
ENDBRANCH   1  11
BRANCH   6  25
HETATM   25  O   UNL     1       7.412  25.643  52.177  1.00  0.00    -0.355 OA
HETATM   26  C   UNL     1       6.075  25.694  51.683  1.00  0.00     0.210 C 
ENDBRANCH   6  25
BRANCH   8  27
HETATM   27  O   UNL     1       8.653  21.049  53.362  1.00  0.00    -0.356 OA
HETATM   28  C   UNL     1       8.629  20.125  54.443  1.00  0.00     0.210 C 
ENDBRANCH   8  27
TORSDOF 8
ENDMDL
MODEL 2
REMARK VINA RESULT:      -7.5      2.660      4.284
REMARK  8 active torsions:
REMARK  status: ('A' for Active; 'I' for Inactive)
REMARK    1  A    between atoms: C_4  and  C_5 
REMARK    2  A    between atoms: C_5  and  N_6 
REMARK    3  A    between atoms: N_6  and  C_9 
REMARK    4  A    between atoms: C_9  and  C_10 
REMARK    5  A    between atoms: C_10  and  C_11 
REMARK    6  A    between atoms: C_11  and  C_12 
REMARK    7  A    between atoms: C_17  and  O_18 
REMARK    8  A    between atoms: C_21  and  O_22 
ROOT
HETATM    1  C   UNL     1       5.732  26.041  53.264  1.00  0.00     0.010 C 
HETATM    2  N   UNL     1       6.223  24.975  52.547  1.00  0.00    -0.359 N 
HETATM    3  H   UNL     1       5.985  24.740  51.592  1.00  0.00     0.166 HD
HETATM    4  C   UNL     1       7.048  24.212  53.342  1.00  0.00     0.048 A 
HETATM    5  C   UNL     1       7.189  24.877  54.557  1.00  0.00     0.026 A 
HETATM    6  C   UNL     1       8.011  24.317  55.557  1.00  0.00     0.083 A 
HETATM    7  C   UNL     1       8.624  23.075  55.314  1.00  0.00     0.074 A 
HETATM    8  C   UNL     1       8.461  22.422  54.091  1.00  0.00     0.073 A 
HETATM    9  C   UNL     1       7.680  22.994  53.078  1.00  0.00     0.067 A 
HETATM   10  C   UNL     1       6.389  26.052  54.477  1.00  0.00     0.041 C 
ENDROOT
BRANCH   1  11
HETATM   11  C   UNL     1       4.667  26.940  52.735  1.00  0.00     0.059 C 
BRANCH  11  12
HETATM   12  C   UNL     1       4.170  27.907  53.820  1.00  0.00     0.033 C 
BRANCH  12  13
HETATM   13  C   UNL     1       4.665  29.336  53.602  1.00  0.00     0.233 C 
BRANCH  13  14
HETATM   14  N   UNL     1       5.557  29.720  54.737  1.00  0.00    -0.067 N 
HETATM   15  H   UNL     1       5.707  30.738  54.739  1.00  0.00     0.277 HD
HETATM   16  H   UNL     1       6.486  29.306  54.591  1.00  0.00     0.277 HD
BRANCH  14  17
HETATM   17  C   UNL     1       5.097  29.324  56.115  1.00  0.00     0.223 C 
HETATM   18  C   UNL     1       3.972  30.247  56.582  1.00  0.00     0.046 C 
BRANCH  17  19
HETATM   19  C   UNL     1       6.242  29.337  57.080  1.00  0.00     0.032 A 
HETATM   20  S   UNL     1       6.646  30.727  58.010  1.00  0.00    -0.076 SA
HETATM   21  C   UNL     1       7.944  29.863  58.734  1.00  0.00     0.071 A 
HETATM   22  C   UNL     1       8.809  30.517  59.754  1.00  0.00     0.078 C 
HETATM   23  N   UNL     1       8.086  28.624  58.319  1.00  0.00    -0.257 NA
HETATM   24  C   UNL     1       7.115  28.313  57.394  1.00  0.00     0.134 A 
ENDBRANCH  17  19
ENDBRANCH  14  17
ENDBRANCH  13  14
ENDBRANCH  12  13
ENDBRANCH  11  12
ENDBRANCH   1  11
BRANCH   6  25
HETATM   25  O   UNL     1       8.109  24.983  56.755  1.00  0.00    -0.355 OA
HETATM   26  C   UNL     1       9.006  24.385  57.689  1.00  0.00     0.210 C 
ENDBRANCH   6  25
BRANCH   8  27
HETATM   27  O   UNL     1       9.001  21.209  53.753  1.00  0.00    -0.356 OA
HETATM   28  C   UNL     1       8.295  20.424  52.799  1.00  0.00     0.210 C 
ENDBRANCH   8  27
TORSDOF 8
ENDMDL
MODEL 3
REMARK VINA RESULT:      -7.5      5.870     11.431
REMARK  8 active torsions:
REMARK  status: ('A' for Active; 'I' for Inactive)
REMARK    1  A    between atoms: C_4  and  C_5 
REMARK    2  A    between atoms: C_5  and  N_6 
REMARK    3  A    between atoms: N_6  and  C_9 
REMARK    4  A    between atoms: C_9  and  C_10 
REMARK    5  A    between atoms: C_10  and  C_11 
REMARK    6  A    between atoms: C_11  and  C_12 
REMARK    7  A    between atoms: C_17  and  O_18 
REMARK    8  A    between atoms: C_21  and  O_22 
ROOT
HETATM    1  C   UNL     1       7.676  31.927  62.709  1.00  0.00     0.010 C 
HETATM    2  N   UNL     1       8.103  32.624  63.815  1.00  0.00    -0.359 N 
HETATM    3  H   UNL     1       9.060  32.710  64.132  1.00  0.00     0.166 HD
HETATM    4  C   UNL     1       7.022  33.145  64.491  1.00  0.00     0.048 A 
HETATM    5  C   UNL     1       5.887  32.884  63.728  1.00  0.00     0.026 A 
HETATM    6  C   UNL     1       4.631  33.336  64.185  1.00  0.00     0.083 A 
HETATM    7  C   UNL     1       4.557  33.994  65.425  1.00  0.00     0.074 A 
HETATM    8  C   UNL     1       5.709  34.237  66.177  1.00  0.00     0.073 A 
HETATM    9  C   UNL     1       6.964  33.828  65.709  1.00  0.00     0.067 A 
HETATM   10  C   UNL     1       6.321  32.153  62.585  1.00  0.00     0.041 C 
ENDROOT
BRANCH   1  11
HETATM   11  C   UNL     1       8.594  31.092  61.884  1.00  0.00     0.059 C 
BRANCH  11  12
HETATM   12  C   UNL     1       9.573  31.968  61.089  1.00  0.00     0.033 C 
BRANCH  12  13
HETATM   13  C   UNL     1       9.366  31.854  59.579  1.00  0.00     0.233 C 
BRANCH  13  14
HETATM   14  N   UNL     1       8.833  30.494  59.263  1.00  0.00    -0.067 N 
HETATM   15  H   UNL     1       7.824  30.547  59.070  1.00  0.00     0.277 HD
HETATM   16  H   UNL     1       8.922  29.896  60.094  1.00  0.00     0.277 HD
BRANCH  14  17
HETATM   17  C   UNL     1       9.481  29.771  58.113  1.00  0.00     0.223 C 
HETATM   18  C   UNL     1      10.532  30.664  57.453  1.00  0.00     0.046 C 
BRANCH  17  19
HETATM   19  C   UNL     1       8.452  29.325  57.121  1.00  0.00     0.032 A 
HETATM   20  S   UNL     1       6.809  29.055  57.558  1.00  0.00    -0.076 SA
HETATM   21  C   UNL     1       6.449  28.623  55.933  1.00  0.00     0.071 A 
HETATM   22  C   UNL     1       5.064  28.242  55.543  1.00  0.00     0.078 C 
HETATM   23  N   UNL     1       7.472  28.665  55.109  1.00  0.00    -0.257 NA
HETATM   24  C   UNL     1       8.607  29.078  55.771  1.00  0.00     0.134 A 
ENDBRANCH  17  19
ENDBRANCH  14  17
ENDBRANCH  13  14
ENDBRANCH  12  13
ENDBRANCH  11  12
ENDBRANCH   1  11
BRANCH   6  25
HETATM   25  O   UNL     1       3.527  33.039  63.424  1.00  0.00    -0.355 OA
HETATM   26  C   UNL     1       2.988  34.150  62.710  1.00  0.00     0.210 C 
ENDBRANCH   6  25
BRANCH   8  27
HETATM   27  O   UNL     1       5.751  34.857  67.399  1.00  0.00    -0.356 OA
HETATM   28  C   UNL     1       5.334  34.100  68.528  1.00  0.00     0.210 C 
ENDBRANCH   8  27
TORSDOF 8
ENDMDL
MODEL 4
REMARK VINA RESULT:      -7.5      5.649      8.630
REMARK  8 active torsions:
REMARK  status: ('A' for Active; 'I' for Inactive)
REMARK    1  A    between atoms: C_4  and  C_5 
REMARK    2  A    between atoms: C_5  and  N_6 
REMARK    3  A    between atoms: N_6  and  C_9 
REMARK    4  A    between atoms: C_9  and  C_10 
REMARK    5  A    between atoms: C_10  and  C_11 
REMARK    6  A    between atoms: C_11  and  C_12 
REMARK    7  A    between atoms: C_17  and  O_18 
REMARK    8  A    between atoms: C_21  and  O_22 
ROOT
HETATM    1  C   UNL     1       5.202  26.658  52.859  1.00  0.00     0.010 C 
HETATM    2  N   UNL     1       4.572  25.994  51.833  1.00  0.00    -0.359 N 
HETATM    3  H   UNL     1       4.119  25.091  51.898  1.00  0.00     0.166 HD
HETATM    4  C   UNL     1       4.702  26.704  50.661  1.00  0.00     0.048 A 
HETATM    5  C   UNL     1       5.318  27.913  50.972  1.00  0.00     0.026 A 
HETATM    6  C   UNL     1       5.553  28.850  49.944  1.00  0.00     0.083 A 
HETATM    7  C   UNL     1       5.202  28.513  48.625  1.00  0.00     0.074 A 
HETATM    8  C   UNL     1       4.592  27.290  48.336  1.00  0.00     0.073 A 
HETATM    9  C   UNL     1       4.318  26.373  49.359  1.00  0.00     0.067 A 
HETATM   10  C   UNL     1       5.588  27.889  52.370  1.00  0.00     0.041 C 
ENDROOT
BRANCH   1  11
HETATM   11  C   UNL     1       5.397  26.051  54.206  1.00  0.00     0.059 C 
BRANCH  11  12
HETATM   12  C   UNL     1       5.755  27.121  55.248  1.00  0.00     0.033 C 
BRANCH  12  13
HETATM   13  C   UNL     1       7.048  26.799  55.997  1.00  0.00     0.233 C 
BRANCH  13  14
HETATM   14  N   UNL     1       7.606  25.516  55.473  1.00  0.00    -0.067 N 
HETATM   15  H   UNL     1       8.549  25.670  55.092  1.00  0.00     0.277 HD
HETATM   16  H   UNL     1       7.037  25.200  54.677  1.00  0.00     0.277 HD
BRANCH  14  17
HETATM   17  C   UNL     1       7.689  24.374  56.451  1.00  0.00     0.223 C 
HETATM   18  C   UNL     1       8.799  24.631  57.469  1.00  0.00     0.046 C 
BRANCH  17  19
HETATM   19  C   UNL     1       7.905  23.077  55.732  1.00  0.00     0.032 A 
HETATM   20  S   UNL     1       7.728  22.930  54.026  1.00  0.00    -0.076 SA
HETATM   21  C   UNL     1       8.136  21.263  54.130  1.00  0.00     0.071 A 
HETATM   22  C   UNL     1       8.194  20.423  52.902  1.00  0.00     0.078 C 
HETATM   23  N   UNL     1       8.384  20.827  55.345  1.00  0.00    -0.257 NA
HETATM   24  C   UNL     1       8.272  21.853  56.256  1.00  0.00     0.134 A 
ENDBRANCH  17  19
ENDBRANCH  14  17
ENDBRANCH  13  14
ENDBRANCH  12  13
ENDBRANCH  11  12
ENDBRANCH   1  11
BRANCH   6  25
HETATM   25  O   UNL     1       6.187  30.022  50.277  1.00  0.00    -0.355 OA
HETATM   26  C   UNL     1       5.386  31.192  50.117  1.00  0.00     0.210 C 
ENDBRANCH   6  25
BRANCH   8  27
HETATM   27  O   UNL     1       4.220  26.856  47.091  1.00  0.00    -0.356 OA
HETATM   28  C   UNL     1       2.963  26.199  46.979  1.00  0.00     0.210 C 
ENDBRANCH   8  27
TORSDOF 8
ENDMDL
MODEL 5
REMARK VINA RESULT:      -7.4      1.507      1.817
REMARK  8 active torsions:
REMARK  status: ('A' for Active; 'I' for Inactive)
REMARK    1  A    between atoms: C_4  and  C_5 
REMARK    2  A    between atoms: C_5  and  N_6 
REMARK    3  A    between atoms: N_6  and  C_9 
REMARK    4  A    between atoms: C_9  and  C_10 
REMARK    5  A    between atoms: C_10  and  C_11 
REMARK    6  A    between atoms: C_11  and  C_12 
REMARK    7  A    between atoms: C_17  and  O_18 
REMARK    8  A    between atoms: C_21  and  O_22 
ROOT
HETATM    1  C   UNL     1       7.666  26.777  57.061  1.00  0.00     0.010 C 
HETATM    2  N   UNL     1       8.104  25.614  57.650  1.00  0.00    -0.359 N 
HETATM    3  H   UNL     1       8.425  25.514  58.604  1.00  0.00     0.166 HD
HETATM    4  C   UNL     1       8.112  24.592  56.728  1.00  0.00     0.048 A 
HETATM    5  C   UNL     1       7.544  25.084  55.555  1.00  0.00     0.026 A 
HETATM    6  C   UNL     1       7.408  24.225  54.444  1.00  0.00     0.083 A 
HETATM    7  C   UNL     1       7.897  22.911  54.538  1.00  0.00     0.074 A 
HETATM    8  C   UNL     1       8.472  22.443  55.722  1.00  0.00     0.073 A 
HETATM    9  C   UNL     1       8.571  23.277  56.842  1.00  0.00     0.067 A 
HETATM   10  C   UNL     1       7.227  26.451  55.795  1.00  0.00     0.041 C 
ENDROOT
BRANCH   1  11
HETATM   11  C   UNL     1       7.725  28.096  57.752  1.00  0.00     0.059 C 
BRANCH  11  12
HETATM   12  C   UNL     1       8.914  28.930  57.251  1.00  0.00     0.033 C 
BRANCH  12  13
HETATM   13  C   UNL     1       9.332  30.010  58.248  1.00  0.00     0.233 C 
BRANCH  13  14
HETATM   14  N   UNL     1       8.429  29.950  59.437  1.00  0.00    -0.067 N 
HETATM   15  H   UNL     1       8.513  29.034  59.898  1.00  0.00     0.277 HD
HETATM   16  H   UNL     1       7.452  30.010  59.122  1.00  0.00     0.277 HD
BRANCH  14  17
HETATM   17  C   UNL     1       8.631  31.011  60.486  1.00  0.00     0.223 C 
HETATM   18  C   UNL     1       9.250  30.399  61.742  1.00  0.00     0.046 C 
BRANCH  17  19
HETATM   19  C   UNL     1       7.338  31.698  60.800  1.00  0.00     0.032 A 
HETATM   20  S   UNL     1       6.722  31.811  62.404  1.00  0.00    -0.076 SA
HETATM   21  C   UNL     1       5.358  32.676  61.816  1.00  0.00     0.071 A 
HETATM   22  C   UNL     1       4.303  33.149  62.755  1.00  0.00     0.078 C 
HETATM   23  N   UNL     1       5.342  32.871  60.517  1.00  0.00    -0.257 NA
HETATM   24  C   UNL     1       6.469  32.335  59.936  1.00  0.00     0.134 A 
ENDBRANCH  17  19
ENDBRANCH  14  17
ENDBRANCH  13  14
ENDBRANCH  12  13
ENDBRANCH  11  12
ENDBRANCH   1  11
BRANCH   6  25
HETATM   25  O   UNL     1       6.869  24.747  53.293  1.00  0.00    -0.355 OA
HETATM   26  C   UNL     1       7.824  25.037  52.274  1.00  0.00     0.210 C 
ENDBRANCH   6  25
BRANCH   8  27
HETATM   27  O   UNL     1       8.989  21.189  55.920  1.00  0.00    -0.356 OA
HETATM   28  C   UNL     1       8.569  20.163  55.028  1.00  0.00     0.210 C 
ENDBRANCH   8  27
TORSDOF 8
ENDMDL
MODEL 6
REMARK VINA RESULT:      -7.4      2.021      2.813
REMARK  8 active torsions:
REMARK  status: ('A' for Active; 'I' for Inactive)
REMARK    1  A    between atoms: C_4  and  C_5 
REMARK    2  A    between atoms: C_5  and  N_6 
REMARK    3  A    between atoms: N_6  and  C_9 
REMARK    4  A    between atoms: C_9  and  C_10 
REMARK    5  A    between atoms: C_10  and  C_11 
REMARK    6  A    between atoms: C_11  and  C_12 
REMARK    7  A    between atoms: C_17  and  O_18 
REMARK    8  A    between atoms: C_21  and  O_22 
ROOT
HETATM    1  C   UNL     1       5.545  26.725  54.703  1.00  0.00     0.010 C 
HETATM    2  N   UNL     1       5.828  26.038  53.546  1.00  0.00    -0.359 N 
HETATM    3  H   UNL     1       5.542  26.303  52.612  1.00  0.00     0.166 HD
HETATM    4  C   UNL     1       6.509  24.879  53.841  1.00  0.00     0.048 A 
HETATM    5  C   UNL     1       6.780  24.889  55.206  1.00  0.00     0.026 A 
HETATM    6  C   UNL     1       7.498  23.815  55.773  1.00  0.00     0.083 A 
HETATM    7  C   UNL     1       7.874  22.740  54.950  1.00  0.00     0.074 A 
HETATM    8  C   UNL     1       7.583  22.747  53.584  1.00  0.00     0.073 A 
HETATM    9  C   UNL     1       6.908  23.831  53.006  1.00  0.00     0.067 A 
HETATM   10  C   UNL     1       6.205  26.082  55.729  1.00  0.00     0.041 C 
ENDROOT
BRANCH   1  11
HETATM   11  C   UNL     1       4.655  27.920  54.728  1.00  0.00     0.059 C 
BRANCH  11  12
HETATM   12  C   UNL     1       4.608  28.546  56.129  1.00  0.00     0.033 C 
BRANCH  12  13
HETATM   13  C   UNL     1       5.650  29.649  56.312  1.00  0.00     0.233 C 
BRANCH  13  14
HETATM   14  N   UNL     1       6.492  29.329  57.505  1.00  0.00    -0.067 N 
HETATM   15  H   UNL     1       6.817  28.354  57.456  1.00  0.00     0.277 HD
HETATM   16  H   UNL     1       5.911  29.382  58.352  1.00  0.00     0.277 HD
BRANCH  14  17
HETATM   17  C   UNL     1       7.698  30.202  57.727  1.00  0.00     0.223 C 
HETATM   18  C   UNL     1       8.975  29.364  57.664  1.00  0.00     0.046 C 
BRANCH  17  19
HETATM   19  C   UNL     1       7.593  30.928  59.033  1.00  0.00     0.032 A 
HETATM   20  S   UNL     1       8.693  30.656  60.329  1.00  0.00    -0.076 SA
HETATM   21  C   UNL     1       7.855  31.817  61.280  1.00  0.00     0.071 A 
HETATM   22  C   UNL     1       8.314  32.133  62.661  1.00  0.00     0.078 C 
HETATM   23  N   UNL     1       6.820  32.375  60.692  1.00  0.00    -0.257 NA
HETATM   24  C   UNL     1       6.676  31.888  59.412  1.00  0.00     0.134 A 
ENDBRANCH  17  19
ENDBRANCH  14  17
ENDBRANCH  13  14
ENDBRANCH  12  13
ENDBRANCH  11  12
ENDBRANCH   1  11
BRANCH   6  25
HETATM   25  O   UNL     1       7.726  23.841  57.128  1.00  0.00    -0.355 OA
HETATM   26  C   UNL     1       8.941  24.484  57.508  1.00  0.00     0.210 C 
ENDBRANCH   6  25
BRANCH   8  27
HETATM   27  O   UNL     1       7.892  21.752  52.694  1.00  0.00    -0.356 OA
HETATM   28  C   UNL     1       8.249  20.485  53.233  1.00  0.00     0.210 C 
ENDBRANCH   8  27
TORSDOF 8
ENDMDL
MODEL 7
REMARK VINA RESULT:      -7.4      4.667     10.656
REMARK  8 active torsions:
REMARK  status: ('A' for Active; 'I' for Inactive)
REMARK    1  A    between atoms: C_4  and  C_5 
REMARK    2  A    between atoms: C_5  and  N_6 
REMARK    3  A    between atoms: N_6  and  C_9 
REMARK    4  A    between atoms: C_9  and  C_10 
REMARK    5  A    between atoms: C_10  and  C_11 
REMARK    6  A    between atoms: C_11  and  C_12 
REMARK    7  A    between atoms: C_17  and  O_18 
REMARK    8  A    between atoms: C_21  and  O_22 
ROOT
HETATM    1  C   UNL     1       7.475  30.372  58.376  1.00  0.00     0.010 C 
HETATM    2  N   UNL     1       8.298  30.344  59.478  1.00  0.00    -0.359 N 
HETATM    3  H   UNL     1       9.090  29.729  59.613  1.00  0.00     0.166 HD
HETATM    4  C   UNL     1       7.849  31.236  60.425  1.00  0.00     0.048 A 
HETATM    5  C   UNL     1       6.789  31.944  59.863  1.00  0.00     0.026 A 
HETATM    6  C   UNL     1       6.154  32.949  60.622  1.00  0.00     0.083 A 
HETATM    7  C   UNL     1       6.578  33.172  61.943  1.00  0.00     0.074 A 
HETATM    8  C   UNL     1       7.637  32.443  62.489  1.00  0.00     0.073 A 
HETATM    9  C   UNL     1       8.300  31.473  61.727  1.00  0.00     0.067 A 
HETATM   10  C   UNL     1       6.594  31.419  58.554  1.00  0.00     0.041 C 
ENDROOT
BRANCH   1  11
HETATM   11  C   UNL     1       7.591  29.387  57.264  1.00  0.00     0.059 C 
BRANCH  11  12
HETATM   12  C   UNL     1       7.500  27.947  57.789  1.00  0.00     0.033 C 
BRANCH  12  13
HETATM   13  C   UNL     1       8.201  26.945  56.874  1.00  0.00     0.233 C 
BRANCH  13  14
HETATM   14  N   UNL     1       7.225  25.885  56.476  1.00  0.00    -0.067 N 
HETATM   15  H   UNL     1       7.015  25.957  55.472  1.00  0.00     0.277 HD
HETATM   16  H   UNL     1       6.331  26.053  56.956  1.00  0.00     0.277 HD
BRANCH  14  17
HETATM   17  C   UNL     1       7.630  24.462  56.757  1.00  0.00     0.223 C 
HETATM   18  C   UNL     1       8.909  24.432  57.594  1.00  0.00     0.046 C 
BRANCH  17  19
HETATM   19  C   UNL     1       7.802  23.699  55.480  1.00  0.00     0.032 A 
HETATM   20  S   UNL     1       7.816  21.978  55.431  1.00  0.00    -0.076 SA
HETATM   21  C   UNL     1       8.037  22.031  53.727  1.00  0.00     0.071 A 
HETATM   22  C   UNL     1       8.135  20.771  52.940  1.00  0.00     0.078 C 
HETATM   23  N   UNL     1       8.105  23.239  53.213  1.00  0.00    -0.257 NA
HETATM   24  C   UNL     1       7.956  24.189  54.198  1.00  0.00     0.134 A 
ENDBRANCH  17  19
ENDBRANCH  14  17
ENDBRANCH  13  14
ENDBRANCH  12  13
ENDBRANCH  11  12
ENDBRANCH   1  11
BRANCH   6  25
HETATM   25  O   UNL     1       5.095  33.611  60.050  1.00  0.00    -0.355 OA
HETATM   26  C   UNL     1       4.406  34.494  60.933  1.00  0.00     0.210 C 
ENDBRANCH   6  25
BRANCH   8  27
HETATM   27  O   UNL     1       8.123  32.570  63.764  1.00  0.00    -0.356 OA
HETATM   28  C   UNL     1       7.406  33.417  64.653  1.00  0.00     0.210 C 
ENDBRANCH   8  27
TORSDOF 8
ENDMDL
MODEL 8
REMARK VINA RESULT:      -7.3      5.821     10.933
REMARK  8 active torsions:
REMARK  status: ('A' for Active; 'I' for Inactive)
REMARK    1  A    between atoms: C_4  and  C_5 
REMARK    2  A    between atoms: C_5  and  N_6 
REMARK    3  A    between atoms: N_6  and  C_9 
REMARK    4  A    between atoms: C_9  and  C_10 
REMARK    5  A    between atoms: C_10  and  C_11 
REMARK    6  A    between atoms: C_11  and  C_12 
REMARK    7  A    between atoms: C_17  and  O_18 
REMARK    8  A    between atoms: C_21  and  O_22 
ROOT
HETATM    1  C   UNL     1       8.247  31.918  61.997  1.00  0.00     0.010 C 
HETATM    2  N   UNL     1       6.972  31.822  61.492  1.00  0.00    -0.359 N 
HETATM    3  H   UNL     1       6.717  31.444  60.588  1.00  0.00     0.166 HD
HETATM    4  C   UNL     1       6.073  32.384  62.370  1.00  0.00     0.048 A 
HETATM    5  C   UNL     1       6.775  32.732  63.521  1.00  0.00     0.026 A 
HETATM    6  C   UNL     1       6.080  33.313  64.602  1.00  0.00     0.083 A 
HETATM    7  C   UNL     1       4.705  33.571  64.464  1.00  0.00     0.074 A 
HETATM    8  C   UNL     1       4.023  33.222  63.296  1.00  0.00     0.073 A 
HETATM    9  C   UNL     1       4.699  32.605  62.236  1.00  0.00     0.067 A 
HETATM   10  C   UNL     1       8.138  32.391  63.289  1.00  0.00     0.041 C 
ENDROOT
BRANCH   1  11
HETATM   11  C   UNL     1       9.455  31.570  61.197  1.00  0.00     0.059 C 
BRANCH  11  12
HETATM   12  C   UNL     1       9.463  32.315  59.855  1.00  0.00     0.033 C 
BRANCH  12  13
HETATM   13  C   UNL     1       9.826  31.406  58.681  1.00  0.00     0.233 C 
BRANCH  13  14
HETATM   14  N   UNL     1       8.737  30.401  58.491  1.00  0.00    -0.067 N 
HETATM   15  H   UNL     1       7.915  30.849  58.063  1.00  0.00     0.277 HD
HETATM   16  H   UNL     1       8.420  30.068  59.410  1.00  0.00     0.277 HD
BRANCH  14  17
HETATM   17  C   UNL     1       9.079  29.191  57.664  1.00  0.00     0.223 C 
HETATM   18  C   UNL     1      10.402  29.409  56.930  1.00  0.00     0.046 C 
BRANCH  17  19
HETATM   19  C   UNL     1       7.974  28.877  56.702  1.00  0.00     0.032 A 
HETATM   20  S   UNL     1       6.326  28.789  57.192  1.00  0.00    -0.076 SA
HETATM   21  C   UNL     1       5.868  28.421  55.577  1.00  0.00     0.071 A 
HETATM   22  C   UNL     1       4.437  28.205  55.229  1.00  0.00     0.078 C 
HETATM   23  N   UNL     1       6.862  28.358  54.719  1.00  0.00    -0.257 NA
HETATM   24  C   UNL     1       8.057  28.631  55.346  1.00  0.00     0.134 A 
ENDBRANCH  17  19
ENDBRANCH  14  17
ENDBRANCH  13  14
ENDBRANCH  12  13
ENDBRANCH  11  12
ENDBRANCH   1  11
BRANCH   6  25
HETATM   25  O   UNL     1       6.804  33.670  65.713  1.00  0.00    -0.355 OA
HETATM   26  C   UNL     1       6.024  34.216  66.775  1.00  0.00     0.210 C 
ENDBRANCH   6  25
BRANCH   8  27
HETATM   27  O   UNL     1       2.692  33.436  63.052  1.00  0.00    -0.356 OA
HETATM   28  C   UNL     1       2.324  34.697  62.506  1.00  0.00     0.210 C 
ENDBRANCH   8  27
TORSDOF 8
ENDMDL
MODEL 9
REMARK VINA RESULT:      -7.3      3.690      4.583
REMARK  8 active torsions:
REMARK  status: ('A' for Active; 'I' for Inactive)
REMARK    1  A    between atoms: C_4  and  C_5 
REMARK    2  A    between atoms: C_5  and  N_6 
REMARK    3  A    between atoms: N_6  and  C_9 
REMARK    4  A    between atoms: C_9  and  C_10 
REMARK    5  A    between atoms: C_10  and  C_11 
REMARK    6  A    between atoms: C_11  and  C_12 
REMARK    7  A    between atoms: C_17  and  O_18 
REMARK    8  A    between atoms: C_21  and  O_22 
ROOT
HETATM    1  C   UNL     1       7.539  25.979  56.368  1.00  0.00     0.010 C 
HETATM    2  N   UNL     1       7.543  24.626  56.616  1.00  0.00    -0.359 N 
HETATM    3  H   UNL     1       7.525  24.189  57.528  1.00  0.00     0.166 HD
HETATM    4  C   UNL     1       7.646  23.930  55.433  1.00  0.00     0.048 A 
HETATM    5  C   UNL     1       7.576  24.856  54.395  1.00  0.00     0.026 A 
HETATM    6  C   UNL     1       7.635  24.401  53.062  1.00  0.00     0.083 A 
HETATM    7  C   UNL     1       7.813  23.028  52.820  1.00  0.00     0.074 A 
HETATM    8  C   UNL     1       7.889  22.118  53.877  1.00  0.00     0.073 A 
HETATM    9  C   UNL     1       7.789  22.559  55.203  1.00  0.00     0.067 A 
HETATM   10  C   UNL     1       7.464  26.141  55.000  1.00  0.00     0.041 C 
ENDROOT
BRANCH   1  11
HETATM   11  C   UNL     1       7.627  26.994  57.456  1.00  0.00     0.059 C 
BRANCH  11  12
HETATM   12  C   UNL     1       6.529  28.056  57.311  1.00  0.00     0.033 C 
BRANCH  12  13
HETATM   13  C   UNL     1       7.074  29.400  56.828  1.00  0.00     0.233 C 
BRANCH  13  14
HETATM   14  N   UNL     1       6.531  29.682  55.465  1.00  0.00    -0.067 N 
HETATM   15  H   UNL     1       7.183  29.336  54.747  1.00  0.00     0.277 HD
HETATM   16  H   UNL     1       6.484  30.699  55.324  1.00  0.00     0.277 HD
BRANCH  14  17
HETATM   17  C   UNL     1       5.170  29.118  55.155  1.00  0.00     0.223 C 
HETATM   18  C   UNL     1       5.125  28.606  53.716  1.00  0.00     0.046 C 
BRANCH  17  19
HETATM   19  C   UNL     1       4.105  30.144  55.397  1.00  0.00     0.032 A 
HETATM   20  S   UNL     1       3.405  31.062  54.121  1.00  0.00    -0.076 SA
HETATM   21  C   UNL     1       2.400  31.870  55.256  1.00  0.00     0.071 A 
HETATM   22  C   UNL     1       1.428  32.903  54.802  1.00  0.00     0.078 C 
HETATM   23  N   UNL     1       2.565  31.500  56.507  1.00  0.00    -0.257 NA
HETATM   24  C   UNL     1       3.518  30.510  56.592  1.00  0.00     0.134 A 
ENDBRANCH  17  19
ENDBRANCH  14  17
ENDBRANCH  13  14
ENDBRANCH  12  13
ENDBRANCH  11  12
ENDBRANCH   1  11
BRANCH   6  25
HETATM   25  O   UNL     1       7.591  25.341  52.061  1.00  0.00    -0.355 OA
HETATM   26  C   UNL     1       6.276  25.657  51.607  1.00  0.00     0.210 C 
ENDBRANCH   6  25
BRANCH   8  27
HETATM   27  O   UNL     1       8.072  20.765  53.758  1.00  0.00    -0.356 OA
HETATM   28  C   UNL     1       8.587  20.075  54.889  1.00  0.00     0.210 C 
ENDBRANCH   8  27
TORSDOF 8
ENDMDL
MODEL 10
REMARK VINA RESULT:      -7.2      5.997      9.096
REMARK  8 active torsions:
REMARK  status: ('A' for Active; 'I' for Inactive)
REMARK    1  A    between atoms: C_4  and  C_5 
REMARK    2  A    between atoms: C_5  and  N_6 
REMARK    3  A    between atoms: N_6  and  C_9 
REMARK    4  A    between atoms: C_9  and  C_10 
REMARK    5  A    between atoms: C_10  and  C_11 
REMARK    6  A    between atoms: C_11  and  C_12 
REMARK    7  A    between atoms: C_17  and  O_18 
REMARK    8  A    between atoms: C_21  and  O_22 
ROOT
HETATM    1  C   UNL     1       5.521  26.160  53.104  1.00  0.00     0.010 C 
HETATM    2  N   UNL     1       6.302  25.311  52.356  1.00  0.00    -0.359 N 
HETATM    3  H   UNL     1       6.353  25.284  51.346  1.00  0.00     0.166 HD
HETATM    4  C   UNL     1       6.971  24.435  53.181  1.00  0.00     0.048 A 
HETATM    5  C   UNL     1       6.710  24.817  54.495  1.00  0.00     0.026 A 
HETATM    6  C   UNL     1       7.300  24.092  55.552  1.00  0.00     0.083 A 
HETATM    7  C   UNL     1       8.093  22.973  55.247  1.00  0.00     0.074 A 
HETATM    8  C   UNL     1       8.334  22.603  53.922  1.00  0.00     0.073 A 
HETATM    9  C   UNL     1       7.786  23.344  52.867  1.00  0.00     0.067 A 
HETATM   10  C   UNL     1       5.830  25.934  54.429  1.00  0.00     0.041 C 
ENDROOT
BRANCH   1  11
HETATM   11  C   UNL     1       4.537  27.094  52.489  1.00  0.00     0.059 C 
BRANCH  11  12
HETATM   12  C   UNL     1       4.999  28.552  52.625  1.00  0.00     0.033 C 
BRANCH  12  13
HETATM   13  C   UNL     1       5.598  29.100  51.330  1.00  0.00     0.233 C 
BRANCH  13  14
HETATM   14  N   UNL     1       4.542  29.850  50.585  1.00  0.00    -0.067 N 
HETATM   15  H   UNL     1       4.477  30.814  50.941  1.00  0.00     0.277 HD
HETATM   16  H   UNL     1       3.626  29.425  50.779  1.00  0.00     0.277 HD
BRANCH  14  17
HETATM   17  C   UNL     1       4.700  29.925  49.090  1.00  0.00     0.223 C 
HETATM   18  C   UNL     1       3.706  30.925  48.503  1.00  0.00     0.046 C 
BRANCH  17  19
HETATM   19  C   UNL     1       4.533  28.570  48.472  1.00  0.00     0.032 A 
HETATM   20  S   UNL     1       3.154  27.585  48.775  1.00  0.00    -0.076 SA
HETATM   21  C   UNL     1       3.797  26.371  47.742  1.00  0.00     0.071 A 
HETATM   22  C   UNL     1       3.047  25.107  47.504  1.00  0.00     0.078 C 
HETATM   23  N   UNL     1       4.962  26.660  47.204  1.00  0.00    -0.257 NA
HETATM   24  C   UNL     1       5.377  27.911  47.600  1.00  0.00     0.134 A 
ENDBRANCH  17  19
ENDBRANCH  14  17
ENDBRANCH  13  14
ENDBRANCH  12  13
ENDBRANCH  11  12
ENDBRANCH   1  11
BRANCH   6  25
HETATM   25  O   UNL     1       7.002  24.476  56.836  1.00  0.00    -0.355 OA
HETATM   26  C   UNL     1       7.973  25.331  57.436  1.00  0.00     0.210 C 
ENDBRANCH   6  25
BRANCH   8  27
HETATM   27  O   UNL     1       9.080  21.529  53.513  1.00  0.00    -0.356 OA
HETATM   28  C   UNL     1       8.378  20.419  52.966  1.00  0.00     0.210 C 
ENDBRANCH   8  27
TORSDOF 8
ENDMDL
