MODEL 1
REMARK VINA RESULT:     -11.3      0.000      0.000
REMARK  9 active torsions:
REMARK  status: ('A' for Active; 'I' for Inactive)
REMARK    1  A    between atoms: N_6  and  C_7 
REMARK    2  A    between atoms: C_7  and  C_8 
REMARK    3  A    between atoms: C_8  and  N_9 
REMARK       I    between atoms: N_9  and  C_10 
REMARK    4  A    between atoms: C_10  and  C_12 
REMARK    5  A    between atoms: C_16  and  C_17 
REMARK    6  A    between atoms: C_17  and  N_18 
REMARK    7  A    between atoms: N_18  and  C_19 
REMARK       I    between atoms: N_18  and  C_22 
REMARK    8  A    between atoms: C_22  and  C_24 
REMARK    9  A    between atoms: C_29  and  C_33 
ROOT
HETATM    1  C   UNL     1       8.056  31.056  58.268  1.00  0.00     0.165 C 
ENDROOT
BRANCH   1   2
HETATM    2  C   UNL     1       8.035  31.046  59.780  1.00  0.00    -0.039 A 
HETATM    3  C   UNL     1       9.172  30.671  60.508  1.00  0.00     0.009 A 
HETATM    4  C   UNL     1       9.160  30.685  61.903  1.00  0.00     0.002 A 
HETATM    5  C   UNL     1       8.015  31.091  62.592  1.00  0.00     0.017 A 
HETATM    6  C   UNL     1       6.877  31.493  61.884  1.00  0.00     0.032 A 
HETATM    7  C   UNL     1       6.888  31.453  60.481  1.00  0.00     0.026 A 
BRANCH   6   8
HETATM    8  C   UNL     1       5.634  31.962  62.562  1.00  0.00     0.251 C 
HETATM    9  N   UNL     1       5.167  33.221  62.221  1.00  0.00    -0.355 N 
HETATM   10  H   UNL     1       5.531  33.662  61.386  1.00  0.00     0.162 HD
HETATM   11  O   UNL     1       5.048  31.240  63.366  1.00  0.00    -0.268 OA
BRANCH   9  12
HETATM   12  C   UNL     1       3.874  33.680  62.702  1.00  0.00     0.153 C 
BRANCH  12  13
HETATM   13  C   UNL     1       3.953  34.265  64.131  1.00  0.00     0.292 C 
BRANCH  13  14
HETATM   14  N   UNL     1       5.019  35.267  64.366  1.00  0.00     0.093 N 
HETATM   15  C   UNL     1       6.242  34.603  64.880  1.00  0.00     0.300 C 
HETATM   16  C   UNL     1       6.158  34.105  66.343  1.00  0.00     0.264 C 
HETATM   17  N   UNL     1       5.715  35.231  67.265  1.00  0.00    -0.072 N 
HETATM   18  C   UNL     1       5.587  34.778  68.687  1.00  0.00     0.269 C 
HETATM   19  H   UNL     1       6.448  35.950  67.230  1.00  0.00     0.279 HD
HETATM   20  C   UNL     1       4.434  35.887  66.769  1.00  0.00     0.264 C 
HETATM   21  C   UNL     1       4.616  36.337  65.305  1.00  0.00     0.300 C 
ENDBRANCH  13  14
ENDBRANCH  12  13
ENDBRANCH   9  12
ENDBRANCH   6   8
ENDBRANCH   1   2
BRANCH   1  22
HETATM   22  N   UNL     1       8.257  29.730  57.681  1.00  0.00    -0.337 N 
HETATM   23  C   UNL     1       7.104  28.968  57.369  1.00  0.00     0.280 C 
HETATM   24  O   UNL     1       5.988  29.429  57.642  1.00  0.00    -0.265 OA
BRANCH  22  25
HETATM   25  C   UNL     1       9.605  29.337  57.343  1.00  0.00     0.088 A 
HETATM   26  C   UNL     1      10.267  29.654  56.022  1.00  0.00     0.027 A 
HETATM   27  C   UNL     1      10.713  30.360  57.262  1.00  0.00     0.027 A 
ENDBRANCH  22  25
BRANCH  23  28
HETATM   28  C   UNL     1       7.250  27.643  56.747  1.00  0.00     0.166 A 
HETATM   29  N   UNL     1       7.146  27.367  55.460  1.00  0.00    -0.235 NA
HETATM   30  C   UNL     1       7.409  26.026  55.235  1.00  0.00     0.075 A 
HETATM   31  C   UNL     1       7.441  25.387  53.981  1.00  0.00     0.034 A 
HETATM   32  C   UNL     1       7.675  25.268  56.375  1.00  0.00     0.036 A 
HETATM   33  C   UNL     1       7.751  24.022  53.901  1.00  0.00     0.014 A 
HETATM   34  C   UNL     1       8.019  23.273  55.052  1.00  0.00    -0.022 A 
HETATM   35  C   UNL     1       7.974  23.896  56.309  1.00  0.00     0.033 A 
HETATM   36  S   UNL     1       7.578  26.286  57.756  1.00  0.00    -0.063 SA
BRANCH  34  37
HETATM   37  C   UNL     1       8.365  21.866  54.938  1.00  0.00     0.010 A 
HETATM   38  C   UNL     1       8.514  21.038  53.799  1.00  0.00     0.152 A 
HETATM   39  N   UNL     1       8.841  19.783  54.110  1.00  0.00    -0.187 NA
HETATM   40  N   UNL     1       8.904  19.796  55.450  1.00  0.00    -0.289 N 
HETATM   41  H   UNL     1       9.142  18.934  55.930  1.00  0.00     0.188 HD
HETATM   42  C   UNL     1       8.627  21.018  55.994  1.00  0.00     0.123 A 
ENDBRANCH  34  37
ENDBRANCH  23  28
ENDBRANCH   1  22
TORSDOF 9
ENDMDL
MODEL 2
REMARK VINA RESULT:     -11.1      1.198      2.189
REMARK  9 active torsions:
REMARK  status: ('A' for Active; 'I' for Inactive)
REMARK    1  A    between atoms: N_6  and  C_7 
REMARK    2  A    between atoms: C_7  and  C_8 
REMARK    3  A    between atoms: C_8  and  N_9 
REMARK       I    between atoms: N_9  and  C_10 
REMARK    4  A    between atoms: C_10  and  C_12 
REMARK    5  A    between atoms: C_16  and  C_17 
REMARK    6  A    between atoms: C_17  and  N_18 
REMARK    7  A    between atoms: N_18  and  C_19 
REMARK       I    between atoms: N_18  and  C_22 
REMARK    8  A    between atoms: C_22  and  C_24 
REMARK    9  A    between atoms: C_29  and  C_33 
ROOT
HETATM    1  C   UNL     1       7.929  30.946  58.303  1.00  0.00     0.165 C 
ENDROOT
BRANCH   1   2
HETATM    2  C   UNL     1       8.131  30.919  59.801  1.00  0.00    -0.039 A 
HETATM    3  C   UNL     1       9.305  30.392  60.355  1.00  0.00     0.009 A 
HETATM    4  C   UNL     1       9.501  30.389  61.737  1.00  0.00     0.002 A 
HETATM    5  C   UNL     1       8.532  30.927  62.585  1.00  0.00     0.017 A 
HETATM    6  C   UNL     1       7.362  31.481  62.051  1.00  0.00     0.032 A 
HETATM    7  C   UNL     1       7.161  31.458  60.662  1.00  0.00     0.026 A 
BRANCH   6   8
HETATM    8  C   UNL     1       6.304  32.095  62.903  1.00  0.00     0.251 C 
HETATM    9  N   UNL     1       6.726  32.850  63.985  1.00  0.00    -0.355 N 
HETATM   10  H   UNL     1       7.693  33.144  64.022  1.00  0.00     0.162 HD
HETATM   11  O   UNL     1       5.115  31.951  62.627  1.00  0.00    -0.268 OA
BRANCH   9  12
HETATM   12  C   UNL     1       5.769  33.622  64.760  1.00  0.00     0.153 C 
BRANCH  12  13
HETATM   13  C   UNL     1       5.418  34.969  64.087  1.00  0.00     0.292 C 
BRANCH  13  14
HETATM   14  N   UNL     1       4.177  35.628  64.557  1.00  0.00     0.093 N 
HETATM   15  C   UNL     1       3.097  34.626  64.724  1.00  0.00     0.300 C 
HETATM   16  C   UNL     1       2.500  34.071  63.408  1.00  0.00     0.264 C 
HETATM   17  N   UNL     1       2.058  35.210  62.502  1.00  0.00    -0.072 N 
HETATM   18  C   UNL     1       1.507  34.713  61.200  1.00  0.00     0.269 C 
HETATM   19  H   UNL     1       1.304  35.705  62.993  1.00  0.00     0.279 HD
HETATM   20  C   UNL     1       3.177  36.219  62.287  1.00  0.00     0.264 C 
HETATM   21  C   UNL     1       3.708  36.701  63.652  1.00  0.00     0.300 C 
ENDBRANCH  13  14
ENDBRANCH  12  13
ENDBRANCH   9  12
ENDBRANCH   6   8
ENDBRANCH   1   2
BRANCH   1  22
HETATM   22  N   UNL     1       8.160  29.651  57.661  1.00  0.00    -0.337 N 
HETATM   23  C   UNL     1       7.026  28.852  57.370  1.00  0.00     0.280 C 
HETATM   24  O   UNL     1       5.905  29.255  57.703  1.00  0.00    -0.265 OA
BRANCH  22  25
HETATM   25  C   UNL     1       9.507  29.326  57.256  1.00  0.00     0.088 A 
HETATM   26  C   UNL     1      10.066  29.621  55.883  1.00  0.00     0.027 A 
HETATM   27  C   UNL     1      10.540  30.410  57.060  1.00  0.00     0.027 A 
ENDBRANCH  22  25
BRANCH  23  28
HETATM   28  C   UNL     1       7.201  27.555  56.695  1.00  0.00     0.166 A 
HETATM   29  N   UNL     1       7.146  27.337  55.395  1.00  0.00    -0.235 NA
HETATM   30  C   UNL     1       7.423  26.007  55.121  1.00  0.00     0.075 A 
HETATM   31  C   UNL     1       7.505  25.425  53.842  1.00  0.00     0.034 A 
HETATM   32  C   UNL     1       7.646  25.200  56.236  1.00  0.00     0.036 A 
HETATM   33  C   UNL     1       7.821  24.065  53.714  1.00  0.00     0.014 A 
HETATM   34  C   UNL     1       8.047  23.266  54.840  1.00  0.00    -0.022 A 
HETATM   35  C   UNL     1       7.952  23.833  56.120  1.00  0.00     0.033 A 
HETATM   36  S   UNL     1       7.493  26.155  57.656  1.00  0.00    -0.063 SA
BRANCH  34  37
HETATM   37  C   UNL     1       8.401  21.865  54.677  1.00  0.00     0.010 A 
HETATM   38  C   UNL     1       8.410  21.040  53.527  1.00  0.00     0.152 A 
HETATM   39  N   UNL     1       8.800  19.791  53.788  1.00  0.00    -0.187 NA
HETATM   40  N   UNL     1       9.044  19.806  55.107  1.00  0.00    -0.289 N 
HETATM   41  H   UNL     1       9.360  18.949  55.548  1.00  0.00     0.188 HD
HETATM   42  C   UNL     1       8.819  21.023  55.686  1.00  0.00     0.123 A 
ENDBRANCH  34  37
ENDBRANCH  23  28
ENDBRANCH   1  22
TORSDOF 9
ENDMDL
MODEL 3
REMARK VINA RESULT:     -10.9      1.587      2.280
REMARK  9 active torsions:
REMARK  status: ('A' for Active; 'I' for Inactive)
REMARK    1  A    between atoms: N_6  and  C_7 
REMARK    2  A    between atoms: C_7  and  C_8 
REMARK    3  A    between atoms: C_8  and  N_9 
REMARK       I    between atoms: N_9  and  C_10 
REMARK    4  A    between atoms: C_10  and  C_12 
REMARK    5  A    between atoms: C_16  and  C_17 
REMARK    6  A    between atoms: C_17  and  N_18 
REMARK    7  A    between atoms: N_18  and  C_19 
REMARK       I    between atoms: N_18  and  C_22 
REMARK    8  A    between atoms: C_22  and  C_24 
REMARK    9  A    between atoms: C_29  and  C_33 
ROOT
HETATM    1  C   UNL     1       8.121  31.088  58.341  1.00  0.00     0.165 C 
ENDROOT
BRANCH   1   2
HETATM    2  C   UNL     1       8.090  31.060  59.853  1.00  0.00    -0.039 A 
HETATM    3  C   UNL     1       9.172  30.546  60.580  1.00  0.00     0.009 A 
HETATM    4  C   UNL     1       9.154  30.541  61.975  1.00  0.00     0.002 A 
HETATM    5  C   UNL     1       8.059  31.065  62.665  1.00  0.00     0.017 A 
HETATM    6  C   UNL     1       6.979  31.606  61.958  1.00  0.00     0.032 A 
HETATM    7  C   UNL     1       6.993  31.585  60.555  1.00  0.00     0.026 A 
BRANCH   6   8
HETATM    8  C   UNL     1       5.794  32.205  62.639  1.00  0.00     0.251 C 
HETATM    9  N   UNL     1       5.507  33.529  62.353  1.00  0.00    -0.355 N 
HETATM   10  H   UNL     1       5.946  33.957  61.548  1.00  0.00     0.162 HD
HETATM   11  O   UNL     1       5.098  31.531  63.395  1.00  0.00    -0.268 OA
BRANCH   9  12
HETATM   12  C   UNL     1       4.276  34.135  62.835  1.00  0.00     0.153 C 
BRANCH  12  13
HETATM   13  C   UNL     1       3.916  35.427  62.066  1.00  0.00     0.292 C 
BRANCH  13  14
HETATM   14  N   UNL     1       3.547  36.597  62.896  1.00  0.00     0.093 N 
HETATM   15  C   UNL     1       3.345  37.790  62.038  1.00  0.00     0.300 C 
HETATM   16  C   UNL     1       4.636  38.407  61.448  1.00  0.00     0.264 C 
HETATM   17  N   UNL     1       5.644  38.688  62.551  1.00  0.00    -0.072 N 
HETATM   18  C   UNL     1       6.923  39.254  62.015  1.00  0.00     0.269 C 
HETATM   19  H   UNL     1       5.222  39.395  63.166  1.00  0.00     0.279 HD
HETATM   20  C   UNL     1       5.893  37.455  63.408  1.00  0.00     0.264 C 
HETATM   21  C   UNL     1       4.550  36.913  63.938  1.00  0.00     0.300 C 
ENDBRANCH  13  14
ENDBRANCH  12  13
ENDBRANCH   9  12
ENDBRANCH   6   8
ENDBRANCH   1   2
BRANCH   1  22
HETATM   22  N   UNL     1       8.312  29.769  57.738  1.00  0.00    -0.337 N 
HETATM   23  C   UNL     1       7.153  29.010  57.439  1.00  0.00     0.280 C 
HETATM   24  O   UNL     1       6.043  29.467  57.735  1.00  0.00    -0.265 OA
BRANCH  22  25
HETATM   25  C   UNL     1       9.654  29.379  57.373  1.00  0.00     0.088 A 
HETATM   26  C   UNL     1      10.306  29.739  56.059  1.00  0.00     0.027 A 
HETATM   27  C   UNL     1      10.768  30.396  57.319  1.00  0.00     0.027 A 
ENDBRANCH  22  25
BRANCH  23  28
HETATM   28  C   UNL     1       7.289  27.690  56.801  1.00  0.00     0.166 A 
HETATM   29  N   UNL     1       7.201  27.433  55.510  1.00  0.00    -0.235 NA
HETATM   30  C   UNL     1       7.447  26.091  55.271  1.00  0.00     0.075 A 
HETATM   31  C   UNL     1       7.490  25.468  54.010  1.00  0.00     0.034 A 
HETATM   32  C   UNL     1       7.681  25.314  56.405  1.00  0.00     0.036 A 
HETATM   33  C   UNL     1       7.779  24.099  53.917  1.00  0.00     0.014 A 
HETATM   34  C   UNL     1       8.016  23.331  55.062  1.00  0.00    -0.022 A 
HETATM   35  C   UNL     1       7.959  23.938  56.326  1.00  0.00     0.033 A 
HETATM   36  S   UNL     1       7.577  26.315  57.798  1.00  0.00    -0.063 SA
BRANCH  34  37
HETATM   37  C   UNL     1       8.341  21.920  54.935  1.00  0.00     0.010 A 
HETATM   38  C   UNL     1       8.368  21.075  53.799  1.00  0.00     0.152 A 
HETATM   39  N   UNL     1       8.718  19.821  54.095  1.00  0.00    -0.187 NA
HETATM   40  N   UNL     1       8.918  19.854  55.421  1.00  0.00    -0.289 N 
HETATM   41  H   UNL     1       9.199  18.997  55.887  1.00  0.00     0.188 HD
HETATM   42  C   UNL     1       8.704  21.086  55.972  1.00  0.00     0.123 A 
ENDBRANCH  34  37
ENDBRANCH  23  28
ENDBRANCH   1  22
TORSDOF 9
ENDMDL
MODEL 4
REMARK VINA RESULT:     -10.7      2.026      3.515
REMARK  9 active torsions:
REMARK  status: ('A' for Active; 'I' for Inactive)
REMARK    1  A    between atoms: N_6  and  C_7 
REMARK    2  A    between atoms: C_7  and  C_8 
REMARK    3  A    between atoms: C_8  and  N_9 
REMARK       I    between atoms: N_9  and  C_10 
REMARK    4  A    between atoms: C_10  and  C_12 
REMARK    5  A    between atoms: C_16  and  C_17 
REMARK    6  A    between atoms: C_17  and  N_18 
REMARK    7  A    between atoms: N_18  and  C_19 
REMARK       I    between atoms: N_18  and  C_22 
REMARK    8  A    between atoms: C_22  and  C_24 
REMARK    9  A    between atoms: C_29  and  C_33 
ROOT
HETATM    1  C   UNL     1       7.922  31.095  58.345  1.00  0.00     0.165 C 
ENDROOT
BRANCH   1   2
HETATM    2  C   UNL     1       7.934  31.249  59.849  1.00  0.00    -0.039 A 
HETATM    3  C   UNL     1       8.914  30.614  60.624  1.00  0.00     0.009 A 
HETATM    4  C   UNL     1       8.939  30.775  62.010  1.00  0.00     0.002 A 
HETATM    5  C   UNL     1       7.995  31.586  62.641  1.00  0.00     0.017 A 
HETATM    6  C   UNL     1       7.022  32.249  61.883  1.00  0.00     0.032 A 
HETATM    7  C   UNL     1       6.987  32.063  60.492  1.00  0.00     0.026 A 
BRANCH   6   8
HETATM    8  C   UNL     1       6.004  33.150  62.496  1.00  0.00     0.251 C 
HETATM    9  N   UNL     1       6.242  34.512  62.421  1.00  0.00    -0.355 N 
HETATM   10  H   UNL     1       6.945  34.846  61.774  1.00  0.00     0.162 HD
HETATM   11  O   UNL     1       4.990  32.688  63.015  1.00  0.00    -0.268 OA
BRANCH   9  12
HETATM   12  C   UNL     1       5.221  35.460  62.836  1.00  0.00     0.153 C 
BRANCH  12  13
HETATM   13  C   UNL     1       4.685  36.301  61.655  1.00  0.00     0.292 C 
BRANCH  13  14
HETATM   14  N   UNL     1       3.228  36.211  61.400  1.00  0.00     0.093 N 
HETATM   15  C   UNL     1       2.808  34.790  61.325  1.00  0.00     0.300 C 
HETATM   16  C   UNL     1       3.246  34.039  60.045  1.00  0.00     0.264 C 
HETATM   17  N   UNL     1       2.817  34.805  58.804  1.00  0.00    -0.072 N 
HETATM   18  C   UNL     1       3.254  34.126  57.542  1.00  0.00     0.269 C 
HETATM   19  H   UNL     1       1.789  34.826  58.808  1.00  0.00     0.279 HD
HETATM   20  C   UNL     1       3.284  36.253  58.851  1.00  0.00     0.264 C 
HETATM   21  C   UNL     1       2.808  36.907  60.164  1.00  0.00     0.300 C 
ENDBRANCH  13  14
ENDBRANCH  12  13
ENDBRANCH   9  12
ENDBRANCH   6   8
ENDBRANCH   1   2
BRANCH   1  22
HETATM   22  N   UNL     1       8.291  29.753  57.894  1.00  0.00    -0.337 N 
HETATM   23  C   UNL     1       7.244  28.832  57.648  1.00  0.00     0.280 C 
HETATM   24  O   UNL     1       6.076  29.179  57.861  1.00  0.00    -0.265 OA
BRANCH  22  25
HETATM   25  C   UNL     1       9.684  29.493  57.611  1.00  0.00     0.088 A 
HETATM   26  C   UNL     1      10.330  29.746  56.268  1.00  0.00     0.027 A 
HETATM   27  C   UNL     1      10.662  30.629  57.427  1.00  0.00     0.027 A 
ENDBRANCH  22  25
BRANCH  23  28
HETATM   28  C   UNL     1       7.560  27.479  57.161  1.00  0.00     0.166 A 
HETATM   29  N   UNL     1       8.066  26.490  57.873  1.00  0.00    -0.235 NA
HETATM   30  C   UNL     1       8.168  25.346  57.100  1.00  0.00     0.075 A 
HETATM   31  C   UNL     1       8.615  24.086  57.539  1.00  0.00     0.034 A 
HETATM   32  C   UNL     1       7.773  25.485  55.770  1.00  0.00     0.036 A 
HETATM   33  C   UNL     1       8.640  23.004  56.647  1.00  0.00     0.014 A 
HETATM   34  C   UNL     1       8.237  23.155  55.316  1.00  0.00    -0.022 A 
HETATM   35  C   UNL     1       7.805  24.411  54.863  1.00  0.00     0.033 A 
HETATM   36  S   UNL     1       7.271  27.107  55.504  1.00  0.00    -0.063 SA
BRANCH  34  37
HETATM   37  C   UNL     1       8.246  22.010  54.420  1.00  0.00     0.010 A 
HETATM   38  C   UNL     1       8.606  20.661  54.647  1.00  0.00     0.152 A 
HETATM   39  N   UNL     1       8.480  19.901  53.557  1.00  0.00    -0.187 NA
HETATM   40  N   UNL     1       8.038  20.758  52.624  1.00  0.00    -0.289 N 
HETATM   41  H   UNL     1       7.863  20.404  51.689  1.00  0.00     0.188 HD
HETATM   42  C   UNL     1       7.883  22.033  53.089  1.00  0.00     0.123 A 
ENDBRANCH  34  37
ENDBRANCH  23  28
ENDBRANCH   1  22
TORSDOF 9
ENDMDL
MODEL 5
REMARK VINA RESULT:      -9.8      4.142      5.959
REMARK  9 active torsions:
REMARK  status: ('A' for Active; 'I' for Inactive)
REMARK    1  A    between atoms: N_6  and  C_7 
REMARK    2  A    between atoms: C_7  and  C_8 
REMARK    3  A    between atoms: C_8  and  N_9 
REMARK       I    between atoms: N_9  and  C_10 
REMARK    4  A    between atoms: C_10  and  C_12 
REMARK    5  A    between atoms: C_16  and  C_17 
REMARK    6  A    between atoms: C_17  and  N_18 
REMARK    7  A    between atoms: N_18  and  C_19 
REMARK       I    between atoms: N_18  and  C_22 
REMARK    8  A    between atoms: C_22  and  C_24 
REMARK    9  A    between atoms: C_29  and  C_33 
ROOT
HETATM    1  C   UNL     1       7.472  27.718  57.365  1.00  0.00     0.165 C 
ENDROOT
BRANCH   1   2
HETATM    2  C   UNL     1       8.462  28.822  57.659  1.00  0.00    -0.039 A 
HETATM    3  C   UNL     1       9.533  29.073  56.792  1.00  0.00     0.009 A 
HETATM    4  C   UNL     1      10.432  30.108  57.052  1.00  0.00     0.002 A 
HETATM    5  C   UNL     1      10.265  30.918  58.176  1.00  0.00     0.017 A 
HETATM    6  C   UNL     1       9.188  30.700  59.043  1.00  0.00     0.032 A 
HETATM    7  C   UNL     1       8.302  29.642  58.789  1.00  0.00     0.026 A 
BRANCH   6   8
HETATM    8  C   UNL     1       8.941  31.549  60.244  1.00  0.00     0.251 C 
HETATM    9  N   UNL     1       8.248  30.968  61.294  1.00  0.00    -0.355 N 
HETATM   10  H   UNL     1       8.146  29.961  61.308  1.00  0.00     0.162 HD
HETATM   11  O   UNL     1       9.366  32.701  60.296  1.00  0.00    -0.268 OA
BRANCH   9  12
HETATM   12  C   UNL     1       8.118  31.664  62.563  1.00  0.00     0.153 C 
BRANCH  12  13
HETATM   13  C   UNL     1       6.710  32.270  62.761  1.00  0.00     0.292 C 
BRANCH  13  14
HETATM   14  N   UNL     1       6.253  33.212  61.712  1.00  0.00     0.093 N 
HETATM   15  C   UNL     1       5.933  34.530  62.312  1.00  0.00     0.300 C 
HETATM   16  C   UNL     1       4.634  34.575  63.152  1.00  0.00     0.264 C 
HETATM   17  N   UNL     1       3.460  34.038  62.347  1.00  0.00    -0.072 N 
HETATM   18  C   UNL     1       2.189  34.033  63.139  1.00  0.00     0.269 C 
HETATM   19  H   UNL     1       3.330  34.674  61.550  1.00  0.00     0.279 HD
HETATM   20  C   UNL     1       3.763  32.664  61.767  1.00  0.00     0.264 C 
HETATM   21  C   UNL     1       5.077  32.722  60.960  1.00  0.00     0.300 C 
ENDBRANCH  13  14
ENDBRANCH  12  13
ENDBRANCH   9  12
ENDBRANCH   6   8
ENDBRANCH   1   2
BRANCH   1  22
HETATM   22  N   UNL     1       6.782  27.882  56.085  1.00  0.00    -0.337 N 
HETATM   23  C   UNL     1       7.091  26.966  55.049  1.00  0.00     0.280 C 
HETATM   24  O   UNL     1       7.954  26.102  55.250  1.00  0.00    -0.265 OA
BRANCH  22  25
HETATM   25  C   UNL     1       5.743  28.882  56.000  1.00  0.00     0.088 A 
HETATM   26  C   UNL     1       4.268  28.575  56.115  1.00  0.00     0.027 A 
HETATM   27  C   UNL     1       4.963  29.296  57.225  1.00  0.00     0.027 A 
ENDBRANCH  22  25
BRANCH  23  28
HETATM   28  C   UNL     1       6.400  27.067  53.754  1.00  0.00     0.166 A 
HETATM   29  N   UNL     1       6.357  28.129  52.972  1.00  0.00    -0.235 NA
HETATM   30  C   UNL     1       5.672  27.836  51.804  1.00  0.00     0.075 A 
HETATM   31  C   UNL     1       5.473  28.710  50.719  1.00  0.00     0.034 A 
HETATM   32  C   UNL     1       5.152  26.545  51.723  1.00  0.00     0.036 A 
HETATM   33  C   UNL     1       4.779  28.266  49.584  1.00  0.00     0.014 A 
HETATM   34  C   UNL     1       4.266  26.966  49.512  1.00  0.00    -0.022 A 
HETATM   35  C   UNL     1       4.445  26.092  50.595  1.00  0.00     0.033 A 
HETATM   36  S   UNL     1       5.541  25.695  53.165  1.00  0.00    -0.063 SA
BRANCH  34  37
HETATM   37  C   UNL     1       3.576  26.524  48.312  1.00  0.00     0.010 A 
HETATM   38  C   UNL     1       3.477  25.241  47.721  1.00  0.00     0.152 A 
HETATM   39  N   UNL     1       2.745  25.240  46.605  1.00  0.00    -0.187 NA
HETATM   40  N   UNL     1       2.368  26.521  46.474  1.00  0.00    -0.289 N 
HETATM   41  H   UNL     1       1.789  26.774  45.680  1.00  0.00     0.188 HD
HETATM   42  C   UNL     1       2.840  27.330  47.468  1.00  0.00     0.123 A 
ENDBRANCH  34  37
ENDBRANCH  23  28
ENDBRANCH   1  22
TORSDOF 9
ENDMDL
MODEL 6
REMARK VINA RESULT:      -9.7      1.549      2.321
REMARK  9 active torsions:
REMARK  status: ('A' for Active; 'I' for Inactive)
REMARK    1  A    between atoms: N_6  and  C_7 
REMARK    2  A    between atoms: C_7  and  C_8 
REMARK    3  A    between atoms: C_8  and  N_9 
REMARK       I    between atoms: N_9  and  C_10 
REMARK    4  A    between atoms: C_10  and  C_12 
REMARK    5  A    between atoms: C_16  and  C_17 
REMARK    6  A    between atoms: C_17  and  N_18 
REMARK    7  A    between atoms: N_18  and  C_19 
REMARK       I    between atoms: N_18  and  C_22 
REMARK    8  A    between atoms: C_22  and  C_24 
REMARK    9  A    between atoms: C_29  and  C_33 
ROOT
HETATM    1  C   UNL     1       6.614  31.263  57.209  1.00  0.00     0.165 C 
ENDROOT
BRANCH   1   2
HETATM    2  C   UNL     1       6.906  31.473  58.678  1.00  0.00    -0.039 A 
HETATM    3  C   UNL     1       7.906  30.733  59.321  1.00  0.00     0.009 A 
HETATM    4  C   UNL     1       8.191  30.943  60.671  1.00  0.00     0.002 A 
HETATM    5  C   UNL     1       7.490  31.910  61.395  1.00  0.00     0.017 A 
HETATM    6  C   UNL     1       6.503  32.677  60.765  1.00  0.00     0.032 A 
HETATM    7  C   UNL     1       6.205  32.443  59.413  1.00  0.00     0.026 A 
BRANCH   6   8
HETATM    8  C   UNL     1       5.739  33.742  61.477  1.00  0.00     0.251 C 
HETATM    9  N   UNL     1       6.416  34.458  62.451  1.00  0.00    -0.355 N 
HETATM   10  H   UNL     1       7.426  34.400  62.480  1.00  0.00     0.162 HD
HETATM   11  O   UNL     1       4.570  33.980  61.182  1.00  0.00    -0.268 OA
BRANCH   9  12
HETATM   12  C   UNL     1       5.802  35.622  63.068  1.00  0.00     0.153 C 
BRANCH  12  13
HETATM   13  C   UNL     1       5.516  35.410  64.572  1.00  0.00     0.292 C 
BRANCH  13  14
HETATM   14  N   UNL     1       5.550  34.007  65.049  1.00  0.00     0.093 N 
HETATM   15  C   UNL     1       4.386  33.737  65.927  1.00  0.00     0.300 C 
HETATM   16  C   UNL     1       4.449  34.389  67.329  1.00  0.00     0.264 C 
HETATM   17  N   UNL     1       5.755  34.035  68.023  1.00  0.00    -0.072 N 
HETATM   18  C   UNL     1       5.870  34.678  69.371  1.00  0.00     0.269 C 
HETATM   19  H   UNL     1       5.751  33.016  68.161  1.00  0.00     0.279 HD
HETATM   20  C   UNL     1       6.958  34.353  67.147  1.00  0.00     0.264 C 
HETATM   21  C   UNL     1       6.794  33.668  65.775  1.00  0.00     0.300 C 
ENDBRANCH  13  14
ENDBRANCH  12  13
ENDBRANCH   9  12
ENDBRANCH   6   8
ENDBRANCH   1   2
BRANCH   1  22
HETATM   22  N   UNL     1       6.527  29.853  56.829  1.00  0.00    -0.337 N 
HETATM   23  C   UNL     1       7.676  29.256  56.254  1.00  0.00     0.280 C 
HETATM   24  O   UNL     1       8.680  29.951  56.058  1.00  0.00    -0.265 OA
BRANCH  22  25
HETATM   25  C   UNL     1       5.325  29.131  57.177  1.00  0.00     0.088 A 
HETATM   26  C   UNL     1       3.938  29.726  57.110  1.00  0.00     0.027 A 
HETATM   27  C   UNL     1       4.349  28.693  56.112  1.00  0.00     0.027 A 
ENDBRANCH  22  25
BRANCH  23  28
HETATM   28  C   UNL     1       7.651  27.831  55.884  1.00  0.00     0.166 A 
HETATM   29  N   UNL     1       7.282  27.332  54.720  1.00  0.00    -0.235 NA
HETATM   30  C   UNL     1       7.452  25.957  54.713  1.00  0.00     0.075 A 
HETATM   31  C   UNL     1       7.211  25.098  53.625  1.00  0.00     0.034 A 
HETATM   32  C   UNL     1       7.915  25.405  55.907  1.00  0.00     0.036 A 
HETATM   33  C   UNL     1       7.453  23.723  53.754  1.00  0.00     0.014 A 
HETATM   34  C   UNL     1       7.922  23.181  54.956  1.00  0.00    -0.022 A 
HETATM   35  C   UNL     1       8.150  24.027  56.053  1.00  0.00     0.033 A 
HETATM   36  S   UNL     1       8.130  26.663  57.057  1.00  0.00    -0.063 SA
BRANCH  34  37
HETATM   37  C   UNL     1       8.192  21.756  55.054  1.00  0.00     0.010 A 
HETATM   38  C   UNL     1       8.288  20.761  54.051  1.00  0.00     0.152 A 
HETATM   39  N   UNL     1       8.551  19.551  54.547  1.00  0.00    -0.187 NA
HETATM   40  N   UNL     1       8.624  19.760  55.870  1.00  0.00    -0.289 N 
HETATM   41  H   UNL     1       8.819  18.968  56.473  1.00  0.00     0.188 HD
HETATM   42  C   UNL     1       8.416  21.063  56.225  1.00  0.00     0.123 A 
ENDBRANCH  34  37
ENDBRANCH  23  28
ENDBRANCH   1  22
TORSDOF 9
ENDMDL
MODEL 7
REMARK VINA RESULT:      -9.6      5.402      9.470
REMARK  9 active torsions:
REMARK  status: ('A' for Active; 'I' for Inactive)
REMARK    1  A    between atoms: N_6  and  C_7 
REMARK    2  A    between atoms: C_7  and  C_8 
REMARK    3  A    between atoms: C_8  and  N_9 
REMARK       I    between atoms: N_9  and  C_10 
REMARK    4  A    between atoms: C_10  and  C_12 
REMARK    5  A    between atoms: C_16  and  C_17 
REMARK    6  A    between atoms: C_17  and  N_18 
REMARK    7  A    between atoms: N_18  and  C_19 
REMARK       I    between atoms: N_18  and  C_22 
REMARK    8  A    between atoms: C_22  and  C_24 
REMARK    9  A    between atoms: C_29  and  C_33 
ROOT
HETATM    1  C   UNL     1       4.905  30.527  57.284  1.00  0.00     0.165 C 
ENDROOT
BRANCH   1   2
HETATM    2  C   UNL     1       4.786  31.643  56.270  1.00  0.00    -0.039 A 
HETATM    3  C   UNL     1       5.028  32.972  56.639  1.00  0.00     0.009 A 
HETATM    4  C   UNL     1       4.940  33.999  55.698  1.00  0.00     0.002 A 
HETATM    5  C   UNL     1       4.625  33.709  54.369  1.00  0.00     0.017 A 
HETATM    6  C   UNL     1       4.404  32.385  53.975  1.00  0.00     0.032 A 
HETATM    7  C   UNL     1       4.469  31.360  54.932  1.00  0.00     0.026 A 
BRANCH   6   8
HETATM    8  C   UNL     1       4.090  32.010  52.565  1.00  0.00     0.251 C 
HETATM    9  N   UNL     1       5.164  31.768  51.724  1.00  0.00    -0.355 N 
HETATM   10  H   UNL     1       6.078  31.626  52.135  1.00  0.00     0.162 HD
HETATM   11  O   UNL     1       2.925  31.897  52.191  1.00  0.00    -0.268 OA
BRANCH   9  12
HETATM   12  C   UNL     1       4.947  31.231  50.391  1.00  0.00     0.153 C 
BRANCH  12  13
HETATM   13  C   UNL     1       5.231  29.713  50.316  1.00  0.00     0.292 C 
BRANCH  13  14
HETATM   14  N   UNL     1       4.282  28.836  51.042  1.00  0.00     0.093 N 
HETATM   15  C   UNL     1       4.820  27.457  51.124  1.00  0.00     0.300 C 
HETATM   16  C   UNL     1       4.799  26.659  49.797  1.00  0.00     0.264 C 
HETATM   17  N   UNL     1       3.405  26.671  49.190  1.00  0.00    -0.072 N 
HETATM   18  C   UNL     1       3.352  25.938  47.884  1.00  0.00     0.269 C 
HETATM   19  H   UNL     1       2.789  26.179  49.850  1.00  0.00     0.279 HD
HETATM   20  C   UNL     1       2.864  28.087  49.059  1.00  0.00     0.264 C 
HETATM   21  C   UNL     1       2.937  28.797  50.426  1.00  0.00     0.300 C 
ENDBRANCH  13  14
ENDBRANCH  12  13
ENDBRANCH   9  12
ENDBRANCH   6   8
ENDBRANCH   1   2
BRANCH   1  22
HETATM   22  N   UNL     1       5.572  29.334  56.760  1.00  0.00    -0.337 N 
HETATM   23  C   UNL     1       4.754  28.299  56.241  1.00  0.00     0.280 C 
HETATM   24  O   UNL     1       3.524  28.424  56.291  1.00  0.00    -0.265 OA
BRANCH  22  25
HETATM   25  C   UNL     1       7.014  29.340  56.689  1.00  0.00     0.088 A 
HETATM   26  C   UNL     1       7.903  30.001  57.717  1.00  0.00     0.027 A 
HETATM   27  C   UNL     1       7.840  28.510  57.643  1.00  0.00     0.027 A 
ENDBRANCH  22  25
BRANCH  23  28
HETATM   28  C   UNL     1       5.375  27.093  55.672  1.00  0.00     0.166 A 
HETATM   29  N   UNL     1       5.889  26.975  54.462  1.00  0.00    -0.235 NA
HETATM   30  C   UNL     1       6.444  25.716  54.299  1.00  0.00     0.075 A 
HETATM   31  C   UNL     1       7.125  25.253  53.157  1.00  0.00     0.034 A 
HETATM   32  C   UNL     1       6.308  24.856  55.387  1.00  0.00     0.036 A 
HETATM   33  C   UNL     1       7.660  23.957  53.142  1.00  0.00     0.014 A 
HETATM   34  C   UNL     1       7.521  23.104  54.242  1.00  0.00    -0.022 A 
HETATM   35  C   UNL     1       6.830  23.550  55.380  1.00  0.00     0.033 A 
HETATM   36  S   UNL     1       5.451  25.667  56.636  1.00  0.00    -0.063 SA
BRANCH  34  37
HETATM   37  C   UNL     1       8.111  21.776  54.211  1.00  0.00     0.010 A 
HETATM   38  C   UNL     1       8.341  20.891  53.130  1.00  0.00     0.152 A 
HETATM   39  N   UNL     1       8.910  19.745  53.511  1.00  0.00    -0.187 NA
HETATM   40  N   UNL     1       9.047  19.887  54.838  1.00  0.00    -0.289 N 
HETATM   41  H   UNL     1       9.466  19.126  55.363  1.00  0.00     0.188 HD
HETATM   42  C   UNL     1       8.583  21.083  55.307  1.00  0.00     0.123 A 
ENDBRANCH  34  37
ENDBRANCH  23  28
ENDBRANCH   1  22
TORSDOF 9
ENDMDL
MODEL 8
REMARK VINA RESULT:      -9.4      2.622     13.223
REMARK  9 active torsions:
REMARK  status: ('A' for Active; 'I' for Inactive)
REMARK    1  A    between atoms: N_6  and  C_7 
REMARK    2  A    between atoms: C_7  and  C_8 
REMARK    3  A    between atoms: C_8  and  N_9 
REMARK       I    between atoms: N_9  and  C_10 
REMARK    4  A    between atoms: C_10  and  C_12 
REMARK    5  A    between atoms: C_16  and  C_17 
REMARK    6  A    between atoms: C_17  and  N_18 
REMARK    7  A    between atoms: N_18  and  C_19 
REMARK       I    between atoms: N_18  and  C_22 
REMARK    8  A    between atoms: C_22  and  C_24 
REMARK    9  A    between atoms: C_29  and  C_33 
ROOT
HETATM    1  C   UNL     1       4.698  32.980  60.573  1.00  0.00     0.165 C 
ENDROOT
BRANCH   1   2
HETATM    2  C   UNL     1       5.910  32.367  59.908  1.00  0.00    -0.039 A 
HETATM    3  C   UNL     1       7.187  32.527  60.462  1.00  0.00     0.009 A 
HETATM    4  C   UNL     1       8.302  31.942  59.861  1.00  0.00     0.002 A 
HETATM    5  C   UNL     1       8.155  31.173  58.705  1.00  0.00     0.017 A 
HETATM    6  C   UNL     1       6.884  30.981  58.149  1.00  0.00     0.032 A 
HETATM    7  C   UNL     1       5.771  31.593  58.745  1.00  0.00     0.026 A 
BRANCH   6   8
HETATM    8  C   UNL     1       6.660  30.149  56.932  1.00  0.00     0.251 C 
HETATM    9  N   UNL     1       7.759  29.489  56.408  1.00  0.00    -0.355 N 
HETATM   10  H   UNL     1       8.591  29.405  56.979  1.00  0.00     0.162 HD
HETATM   11  O   UNL     1       5.537  30.041  56.444  1.00  0.00    -0.268 OA
BRANCH   9  12
HETATM   12  C   UNL     1       7.595  28.524  55.333  1.00  0.00     0.153 C 
BRANCH  12  13
HETATM   13  C   UNL     1       7.307  27.100  55.861  1.00  0.00     0.292 C 
BRANCH  13  14
HETATM   14  N   UNL     1       6.105  26.432  55.309  1.00  0.00     0.093 N 
HETATM   15  C   UNL     1       5.915  25.108  55.951  1.00  0.00     0.300 C 
HETATM   16  C   UNL     1       6.923  24.015  55.521  1.00  0.00     0.264 C 
HETATM   17  N   UNL     1       6.962  23.891  54.006  1.00  0.00    -0.072 N 
HETATM   18  C   UNL     1       7.954  22.866  53.549  1.00  0.00     0.269 C 
HETATM   19  H   UNL     1       6.029  23.578  53.709  1.00  0.00     0.279 HD
HETATM   20  C   UNL     1       7.203  25.239  53.341  1.00  0.00     0.264 C 
HETATM   21  C   UNL     1       6.158  26.257  53.840  1.00  0.00     0.300 C 
ENDBRANCH  13  14
ENDBRANCH  12  13
ENDBRANCH   9  12
ENDBRANCH   6   8
ENDBRANCH   1   2
BRANCH   1  22
HETATM   22  N   UNL     1       4.984  33.551  61.890  1.00  0.00    -0.337 N 
HETATM   23  C   UNL     1       4.982  32.672  63.001  1.00  0.00     0.280 C 
HETATM   24  O   UNL     1       4.701  31.480  62.824  1.00  0.00    -0.265 OA
BRANCH  22  25
HETATM   25  C   UNL     1       5.370  34.941  61.956  1.00  0.00     0.088 A 
HETATM   26  C   UNL     1       4.650  36.050  61.223  1.00  0.00     0.027 A 
HETATM   27  C   UNL     1       4.528  35.944  62.709  1.00  0.00     0.027 A 
ENDBRANCH  22  25
BRANCH  23  28
HETATM   28  C   UNL     1       5.296  33.189  64.343  1.00  0.00     0.166 A 
HETATM   29  N   UNL     1       4.431  33.427  65.311  1.00  0.00    -0.235 NA
HETATM   30  C   UNL     1       5.094  33.845  66.453  1.00  0.00     0.075 A 
HETATM   31  C   UNL     1       4.500  34.138  67.695  1.00  0.00     0.034 A 
HETATM   32  C   UNL     1       6.478  33.967  66.331  1.00  0.00     0.036 A 
HETATM   33  C   UNL     1       5.302  34.527  68.778  1.00  0.00     0.014 A 
HETATM   34  C   UNL     1       6.690  34.641  68.645  1.00  0.00    -0.022 A 
HETATM   35  C   UNL     1       7.291  34.367  67.406  1.00  0.00     0.033 A 
HETATM   36  S   UNL     1       6.936  33.547  64.730  1.00  0.00    -0.063 SA
BRANCH  34  37
HETATM   37  C   UNL     1       7.501  35.019  69.791  1.00  0.00     0.010 A 
HETATM   38  C   UNL     1       8.124  34.227  70.785  1.00  0.00     0.152 A 
HETATM   39  N   UNL     1       8.789  34.954  71.685  1.00  0.00    -0.187 NA
HETATM   40  N   UNL     1       8.598  36.216  71.274  1.00  0.00    -0.289 N 
HETATM   41  H   UNL     1       9.017  36.967  71.813  1.00  0.00     0.188 HD
HETATM   42  C   UNL     1       7.833  36.310  70.146  1.00  0.00     0.123 A 
ENDBRANCH  34  37
ENDBRANCH  23  28
ENDBRANCH   1  22
TORSDOF 9
ENDMDL
MODEL 9
REMARK VINA RESULT:      -9.4      3.895     12.652
REMARK  9 active torsions:
REMARK  status: ('A' for Active; 'I' for Inactive)
REMARK    1  A    between atoms: N_6  and  C_7 
REMARK    2  A    between atoms: C_7  and  C_8 
REMARK    3  A    between atoms: C_8  and  N_9 
REMARK       I    between atoms: N_9  and  C_10 
REMARK    4  A    between atoms: C_10  and  C_12 
REMARK    5  A    between atoms: C_16  and  C_17 
REMARK    6  A    between atoms: C_17  and  N_18 
REMARK    7  A    between atoms: N_18  and  C_19 
REMARK       I    between atoms: N_18  and  C_22 
REMARK    8  A    between atoms: C_22  and  C_24 
REMARK    9  A    between atoms: C_29  and  C_33 
ROOT
HETATM    1  C   UNL     1       8.445  29.331  55.839  1.00  0.00     0.165 C 
ENDROOT
BRANCH   1   2
HETATM    2  C   UNL     1       8.025  27.878  55.831  1.00  0.00    -0.039 A 
HETATM    3  C   UNL     1       8.236  27.066  56.953  1.00  0.00     0.009 A 
HETATM    4  C   UNL     1       7.827  25.732  56.953  1.00  0.00     0.002 A 
HETATM    5  C   UNL     1       7.186  25.193  55.837  1.00  0.00     0.017 A 
HETATM    6  C   UNL     1       6.943  25.994  54.714  1.00  0.00     0.032 A 
HETATM    7  C   UNL     1       7.379  27.328  54.712  1.00  0.00     0.026 A 
BRANCH   6   8
HETATM    8  C   UNL     1       6.239  25.484  53.503  1.00  0.00     0.251 C 
HETATM    9  N   UNL     1       5.991  26.393  52.488  1.00  0.00    -0.355 N 
HETATM   10  H   UNL     1       6.486  27.277  52.499  1.00  0.00     0.162 HD
HETATM   11  O   UNL     1       5.924  24.299  53.413  1.00  0.00    -0.268 OA
BRANCH   9  12
HETATM   12  C   UNL     1       5.469  25.943  51.208  1.00  0.00     0.153 C 
BRANCH  12  13
HETATM   13  C   UNL     1       5.030  27.119  50.306  1.00  0.00     0.292 C 
BRANCH  13  14
HETATM   14  N   UNL     1       4.101  26.781  49.202  1.00  0.00     0.093 N 
HETATM   15  C   UNL     1       4.835  26.728  47.914  1.00  0.00     0.300 C 
HETATM   16  C   UNL     1       5.273  28.099  47.346  1.00  0.00     0.264 C 
HETATM   17  N   UNL     1       4.086  29.046  47.264  1.00  0.00    -0.072 N 
HETATM   18  C   UNL     1       4.478  30.398  46.751  1.00  0.00     0.269 C 
HETATM   19  H   UNL     1       3.425  28.636  46.593  1.00  0.00     0.279 HD
HETATM   20  C   UNL     1       3.355  29.143  48.595  1.00  0.00     0.264 C 
HETATM   21  C   UNL     1       2.972  27.729  49.079  1.00  0.00     0.300 C 
ENDBRANCH  13  14
ENDBRANCH  12  13
ENDBRANCH   9  12
ENDBRANCH   6   8
ENDBRANCH   1   2
BRANCH   1  22
HETATM   22  N   UNL     1       8.451  29.927  57.176  1.00  0.00    -0.337 N 
HETATM   23  C   UNL     1       7.208  30.333  57.720  1.00  0.00     0.280 C 
HETATM   24  O   UNL     1       6.184  30.210  57.036  1.00  0.00    -0.265 OA
BRANCH  22  25
HETATM   25  C   UNL     1       9.700  29.947  57.902  1.00  0.00     0.088 A 
HETATM   26  C   UNL     1      11.054  29.788  57.251  1.00  0.00     0.027 A 
HETATM   27  C   UNL     1      10.643  31.121  57.787  1.00  0.00     0.027 A 
ENDBRANCH  22  25
BRANCH  23  28
HETATM   28  C   UNL     1       7.155  30.908  59.074  1.00  0.00     0.166 A 
HETATM   29  N   UNL     1       8.039  30.723  60.036  1.00  0.00    -0.235 NA
HETATM   30  C   UNL     1       7.697  31.472  61.150  1.00  0.00     0.075 A 
HETATM   31  C   UNL     1       8.435  31.564  62.345  1.00  0.00     0.034 A 
HETATM   32  C   UNL     1       6.513  32.200  61.042  1.00  0.00     0.036 A 
HETATM   33  C   UNL     1       7.980  32.386  63.385  1.00  0.00     0.014 A 
HETATM   34  C   UNL     1       6.792  33.116  63.263  1.00  0.00    -0.022 A 
HETATM   35  C   UNL     1       6.040  33.019  62.082  1.00  0.00     0.033 A 
HETATM   36  S   UNL     1       5.823  31.916  59.494  1.00  0.00    -0.063 SA
BRANCH  34  37
HETATM   37  C   UNL     1       6.358  33.983  64.346  1.00  0.00     0.010 A 
HETATM   38  C   UNL     1       5.485  35.098  64.346  1.00  0.00     0.152 A 
HETATM   39  N   UNL     1       5.337  35.640  65.556  1.00  0.00    -0.187 NA
HETATM   40  N   UNL     1       6.113  34.877  66.341  1.00  0.00    -0.289 N 
HETATM   41  H   UNL     1       6.165  35.099  67.330  1.00  0.00     0.188 HD
HETATM   42  C   UNL     1       6.747  33.873  65.665  1.00  0.00     0.123 A 
ENDBRANCH  34  37
ENDBRANCH  23  28
ENDBRANCH   1  22
TORSDOF 9
ENDMDL
MODEL 10
REMARK VINA RESULT:      -9.2      4.189     12.938
REMARK  9 active torsions:
REMARK  status: ('A' for Active; 'I' for Inactive)
REMARK    1  A    between atoms: N_6  and  C_7 
REMARK    2  A    between atoms: C_7  and  C_8 
REMARK    3  A    between atoms: C_8  and  N_9 
REMARK       I    between atoms: N_9  and  C_10 
REMARK    4  A    between atoms: C_10  and  C_12 
REMARK    5  A    between atoms: C_16  and  C_17 
REMARK    6  A    between atoms: C_17  and  N_18 
REMARK    7  A    between atoms: N_18  and  C_19 
REMARK       I    between atoms: N_18  and  C_22 
REMARK    8  A    between atoms: C_22  and  C_24 
REMARK    9  A    between atoms: C_29  and  C_33 
ROOT
HETATM    1  C   UNL     1       8.099  28.992  55.587  1.00  0.00     0.165 C 
ENDROOT
BRANCH   1   2
HETATM    2  C   UNL     1       7.714  27.533  55.489  1.00  0.00    -0.039 A 
HETATM    3  C   UNL     1       7.901  26.670  56.577  1.00  0.00     0.009 A 
HETATM    4  C   UNL     1       7.524  25.329  56.494  1.00  0.00     0.002 A 
HETATM    5  C   UNL     1       6.938  24.834  55.328  1.00  0.00     0.017 A 
HETATM    6  C   UNL     1       6.720  25.685  54.238  1.00  0.00     0.032 A 
HETATM    7  C   UNL     1       7.125  27.027  54.319  1.00  0.00     0.026 A 
BRANCH   6   8
HETATM    8  C   UNL     1       6.075  25.222  52.975  1.00  0.00     0.251 C 
HETATM    9  N   UNL     1       5.555  26.196  52.139  1.00  0.00    -0.355 N 
HETATM   10  H   UNL     1       5.830  27.159  52.289  1.00  0.00     0.162 HD
HETATM   11  O   UNL     1       6.039  24.027  52.691  1.00  0.00    -0.268 OA
BRANCH   9  12
HETATM   12  C   UNL     1       5.069  25.846  50.815  1.00  0.00     0.153 C 
BRANCH  12  13
HETATM   13  C   UNL     1       4.884  27.085  49.910  1.00  0.00     0.292 C 
BRANCH  13  14
HETATM   14  N   UNL     1       4.947  26.840  48.450  1.00  0.00     0.093 N 
HETATM   15  C   UNL     1       4.966  28.128  47.715  1.00  0.00     0.300 C 
HETATM   16  C   UNL     1       3.623  28.897  47.695  1.00  0.00     0.264 C 
HETATM   17  N   UNL     1       2.501  27.998  47.200  1.00  0.00    -0.072 N 
HETATM   18  C   UNL     1       1.176  28.697  47.200  1.00  0.00     0.269 C 
HETATM   19  H   UNL     1       2.724  27.751  46.227  1.00  0.00     0.279 HD
HETATM   20  C   UNL     1       2.445  26.693  47.981  1.00  0.00     0.264 C 
HETATM   21  C   UNL     1       3.828  26.011  47.949  1.00  0.00     0.300 C 
ENDBRANCH  13  14
ENDBRANCH  12  13
ENDBRANCH   9  12
ENDBRANCH   6   8
ENDBRANCH   1   2
BRANCH   1  22
HETATM   22  N   UNL     1       7.667  29.625  56.833  1.00  0.00    -0.337 N 
HETATM   23  C   UNL     1       8.656  29.894  57.811  1.00  0.00     0.280 C 
HETATM   24  O   UNL     1       9.824  29.549  57.594  1.00  0.00    -0.265 OA
BRANCH  22  25
HETATM   25  C   UNL     1       6.289  30.047  56.936  1.00  0.00     0.088 A 
HETATM   26  C   UNL     1       5.234  29.732  55.902  1.00  0.00     0.027 A 
HETATM   27  C   UNL     1       5.194  29.051  57.231  1.00  0.00     0.027 A 
ENDBRANCH  22  25
BRANCH  23  28
HETATM   28  C   UNL     1       8.280  30.560  59.068  1.00  0.00     0.166 A 
HETATM   29  N   UNL     1       8.754  30.287  60.269  1.00  0.00    -0.235 NA
HETATM   30  C   UNL     1       8.219  31.159  61.204  1.00  0.00     0.075 A 
HETATM   31  C   UNL     1       8.535  31.200  62.575  1.00  0.00     0.034 A 
HETATM   32  C   UNL     1       7.294  32.076  60.707  1.00  0.00     0.036 A 
HETATM   33  C   UNL     1       7.934  32.159  63.402  1.00  0.00     0.014 A 
HETATM   34  C   UNL     1       7.010  33.077  62.890  1.00  0.00    -0.022 A 
HETATM   35  C   UNL     1       6.675  33.035  61.528  1.00  0.00     0.033 A 
HETATM   36  S   UNL     1       7.100  31.814  59.020  1.00  0.00    -0.063 SA
BRANCH  34  37
HETATM   37  C   UNL     1       6.422  34.080  63.764  1.00  0.00     0.010 A 
HETATM   38  C   UNL     1       5.761  35.295  63.465  1.00  0.00     0.152 A 
HETATM   39  N   UNL     1       5.360  35.949  64.557  1.00  0.00    -0.187 NA
HETATM   40  N   UNL     1       5.762  35.158  65.564  1.00  0.00    -0.289 N 
HETATM   41  H   UNL     1       5.566  35.452  66.515  1.00  0.00     0.188 HD
HETATM   42  C   UNL     1       6.404  34.028  65.143  1.00  0.00     0.123 A 
ENDBRANCH  34  37
ENDBRANCH  23  28
ENDBRANCH   1  22
TORSDOF 9
ENDMDL
