MODEL 1
REMARK VINA RESULT:     -10.3      0.000      0.000
REMARK  4 active torsions:
REMARK  status: ('A' for Active; 'I' for Inactive)
REMARK    1  A    between atoms: C_2  and  C_3 
REMARK    2  A    between atoms: C_4  and  C_5 
REMARK       I    between atoms: C_5  and  N_6 
REMARK    3  A    between atoms: N_6  and  C_7 
REMARK    4  A    between atoms: C_14  and  C_15 
REMARK       I    between atoms: C_15  and  N_16 
ROOT
HETATM    1  C   UNL     1       8.137  28.588  57.473  1.00  0.00     0.035 A 
HETATM    2  C   UNL     1       7.645  29.492  58.424  1.00  0.00     0.046 A 
HETATM    3  C   UNL     1       8.430  30.600  58.807  1.00  0.00     0.030 A 
HETATM    4  C   UNL     1       9.678  30.772  58.222  1.00  0.00     0.063 A 
HETATM    5  N   UNL     1      10.181  31.918  58.774  1.00  0.00    -0.277 N 
HETATM    6  H   UNL     1      11.074  32.353  58.574  1.00  0.00     0.189 HD
HETATM    7  N   UNL     1       9.377  32.501  59.678  1.00  0.00    -0.168 NA
HETATM    8  C   UNL     1       8.290  31.696  59.712  1.00  0.00     0.156 A 
HETATM    9  C   UNL     1      10.203  29.889  57.277  1.00  0.00     0.034 A 
HETATM   10  C   UNL     1       9.409  28.791  56.920  1.00  0.00     0.032 A 
ENDROOT
BRANCH   1  11
HETATM   11  N   UNL     1       7.415  27.463  57.014  1.00  0.00    -0.327 N 
HETATM   12  C   UNL     1       6.735  27.346  55.822  1.00  0.00     0.227 C 
HETATM   13  O   UNL     1       6.583  28.202  54.965  1.00  0.00    -0.273 OA
HETATM   14  H   UNL     1       7.442  26.645  57.603  1.00  0.00     0.169 HD
BRANCH  12  15
HETATM   15  C   UNL     1       6.146  26.004  55.558  1.00  0.00     0.087 A 
HETATM   16  C   UNL     1       6.904  24.821  56.155  1.00  0.00     0.032 A 
HETATM   17  C   UNL     1       5.473  25.086  56.541  1.00  0.00     0.025 A 
BRANCH  16  18
HETATM   18  C   UNL     1       7.322  23.706  55.234  1.00  0.00    -0.053 A 
HETATM   19  C   UNL     1       7.578  22.424  55.754  1.00  0.00     0.009 A 
HETATM   20  C   UNL     1       7.921  21.354  54.925  1.00  0.00     0.024 A 
HETATM   21  C   UNL     1       8.016  21.552  53.552  1.00  0.00     0.034 A 
HETATM   22  C   UNL     1       7.769  22.810  53.007  1.00  0.00     0.024 A 
HETATM   23 CL   UNL     1       8.431  20.239  52.522  1.00  0.00    -0.084 Cl
HETATM   24  C   UNL     1       7.420  23.875  53.844  1.00  0.00     0.009 A 
ENDBRANCH  16  18
ENDBRANCH  12  15
ENDBRANCH   1  11
BRANCH   8  25
HETATM   25  C   UNL     1       7.155  31.986  60.600  1.00  0.00     0.270 C 
HETATM   26  N   UNL     1       7.082  31.172  61.697  1.00  0.00    -0.365 N 
HETATM   27  H   UNL     1       7.782  30.448  61.813  1.00  0.00     0.159 HD
HETATM   28  H   UNL     1       6.326  31.290  62.355  1.00  0.00     0.159 HD
HETATM   29  O   UNL     1       6.324  32.867  60.409  1.00  0.00    -0.266 OA
ENDBRANCH   8  25
TORSDOF 4
ENDMDL
MODEL 2
REMARK VINA RESULT:     -10.2      5.436      9.599
REMARK  4 active torsions:
REMARK  status: ('A' for Active; 'I' for Inactive)
REMARK    1  A    between atoms: C_2  and  C_3 
REMARK    2  A    between atoms: C_4  and  C_5 
REMARK       I    between atoms: C_5  and  N_6 
REMARK    3  A    between atoms: N_6  and  C_7 
REMARK    4  A    between atoms: C_14  and  C_15 
REMARK       I    between atoms: C_15  and  N_16 
ROOT
HETATM    1  C   UNL     1       8.536  29.813  58.155  1.00  0.00     0.035 A 
HETATM    2  C   UNL     1       7.304  29.367  57.658  1.00  0.00     0.046 A 
HETATM    3  C   UNL     1       7.202  28.949  56.313  1.00  0.00     0.030 A 
HETATM    4  C   UNL     1       8.337  28.986  55.512  1.00  0.00     0.063 A 
HETATM    5  N   UNL     1       7.933  28.516  54.293  1.00  0.00    -0.277 N 
HETATM    6  H   UNL     1       8.502  28.398  53.463  1.00  0.00     0.189 HD
HETATM    7  N   UNL     1       6.632  28.191  54.224  1.00  0.00    -0.168 NA
HETATM    8  C   UNL     1       6.164  28.456  55.465  1.00  0.00     0.156 A 
HETATM    9  C   UNL     1       9.578  29.429  55.971  1.00  0.00     0.034 A 
HETATM   10  C   UNL     1       9.651  29.848  57.307  1.00  0.00     0.032 A 
ENDROOT
BRANCH   1  11
HETATM   11  N   UNL     1       8.737  30.229  59.490  1.00  0.00    -0.327 N 
HETATM   12  C   UNL     1       8.862  31.524  59.943  1.00  0.00     0.227 C 
HETATM   13  O   UNL     1       8.877  32.547  59.277  1.00  0.00    -0.273 OA
HETATM   14  H   UNL     1       8.740  29.502  60.188  1.00  0.00     0.169 HD
BRANCH  12  15
HETATM   15  C   UNL     1       8.966  31.671  61.421  1.00  0.00     0.087 A 
HETATM   16  C   UNL     1       7.744  31.222  62.218  1.00  0.00     0.032 A 
HETATM   17  C   UNL     1       9.085  30.577  62.447  1.00  0.00     0.025 A 
BRANCH  16  18
HETATM   18  C   UNL     1       7.120  32.202  63.175  1.00  0.00    -0.053 A 
HETATM   19  C   UNL     1       5.721  32.342  63.223  1.00  0.00     0.009 A 
HETATM   20  C   UNL     1       5.104  33.206  64.131  1.00  0.00     0.024 A 
HETATM   21  C   UNL     1       5.883  33.950  65.010  1.00  0.00     0.034 A 
HETATM   22  C   UNL     1       7.271  33.833  64.985  1.00  0.00     0.024 A 
HETATM   23 CL   UNL     1       5.133  35.010  66.136  1.00  0.00    -0.084 Cl
HETATM   24  C   UNL     1       7.881  32.961  64.077  1.00  0.00     0.009 A 
ENDBRANCH  16  18
ENDBRANCH  12  15
ENDBRANCH   1  11
BRANCH   8  25
HETATM   25  C   UNL     1       4.753  28.237  55.811  1.00  0.00     0.270 C 
HETATM   26  N   UNL     1       4.536  27.144  56.605  1.00  0.00    -0.365 N 
HETATM   27  H   UNL     1       5.330  26.578  56.882  1.00  0.00     0.159 HD
HETATM   28  H   UNL     1       3.595  26.908  56.882  1.00  0.00     0.159 HD
HETATM   29  O   UNL     1       3.824  28.944  55.441  1.00  0.00    -0.266 OA
ENDBRANCH   8  25
TORSDOF 4
ENDMDL
MODEL 3
REMARK VINA RESULT:     -10.0      1.876      2.943
REMARK  4 active torsions:
REMARK  status: ('A' for Active; 'I' for Inactive)
REMARK    1  A    between atoms: C_2  and  C_3 
REMARK    2  A    between atoms: C_4  and  C_5 
REMARK       I    between atoms: C_5  and  N_6 
REMARK    3  A    between atoms: N_6  and  C_7 
REMARK    4  A    between atoms: C_14  and  C_15 
REMARK       I    between atoms: C_15  and  N_16 
ROOT
HETATM    1  C   UNL     1       6.952  28.179  56.087  1.00  0.00     0.035 A 
HETATM    2  C   UNL     1       7.929  29.001  56.663  1.00  0.00     0.046 A 
HETATM    3  C   UNL     1       7.546  30.018  57.564  1.00  0.00     0.030 A 
HETATM    4  C   UNL     1       6.198  30.174  57.864  1.00  0.00     0.063 A 
HETATM    5  N   UNL     1       6.145  31.208  58.758  1.00  0.00    -0.277 N 
HETATM    6  H   UNL     1       5.319  31.594  59.200  1.00  0.00     0.189 HD
HETATM    7  N   UNL     1       7.337  31.749  59.057  1.00  0.00    -0.168 NA
HETATM    8  C   UNL     1       8.215  31.026  58.324  1.00  0.00     0.156 A 
HETATM    9  C   UNL     1       5.197  29.379  57.305  1.00  0.00     0.034 A 
HETATM   10  C   UNL     1       5.602  28.383  56.406  1.00  0.00     0.032 A 
ENDROOT
BRANCH   1  11
HETATM   11  N   UNL     1       7.243  27.125  55.193  1.00  0.00    -0.327 N 
HETATM   12  C   UNL     1       7.207  27.174  53.817  1.00  0.00     0.227 C 
HETATM   13  O   UNL     1       6.867  28.112  53.114  1.00  0.00    -0.273 OA
HETATM   14  H   UNL     1       7.557  26.262  55.608  1.00  0.00     0.169 HD
BRANCH  12  15
HETATM   15  C   UNL     1       7.661  25.934  53.127  1.00  0.00     0.087 A 
HETATM   16  C   UNL     1       6.724  24.735  53.237  1.00  0.00     0.032 A 
HETATM   17  C   UNL     1       7.080  25.305  51.891  1.00  0.00     0.025 A 
BRANCH  16  18
HETATM   18  C   UNL     1       7.283  23.441  53.765  1.00  0.00    -0.053 A 
HETATM   19  C   UNL     1       7.266  23.181  55.148  1.00  0.00     0.009 A 
HETATM   20  C   UNL     1       7.733  21.972  55.670  1.00  0.00     0.024 A 
HETATM   21  C   UNL     1       8.229  20.999  54.810  1.00  0.00     0.034 A 
HETATM   22  C   UNL     1       8.259  21.227  53.437  1.00  0.00     0.024 A 
HETATM   23 CL   UNL     1       8.798  19.504  55.443  1.00  0.00    -0.084 Cl
HETATM   24  C   UNL     1       7.784  22.438  52.921  1.00  0.00     0.009 A 
ENDBRANCH  16  18
ENDBRANCH  12  15
ENDBRANCH   1  11
BRANCH   8  25
HETATM   25  C   UNL     1       9.656  31.309  58.362  1.00  0.00     0.270 C 
HETATM   26  N   UNL     1      10.435  30.317  57.832  1.00  0.00    -0.365 N 
HETATM   27  H   UNL     1       9.983  29.484  57.472  1.00  0.00     0.159 HD
HETATM   28  H   UNL     1      11.438  30.420  57.827  1.00  0.00     0.159 HD
HETATM   29  O   UNL     1      10.157  32.329  58.821  1.00  0.00    -0.266 OA
ENDBRANCH   8  25
TORSDOF 4
ENDMDL
MODEL 4
REMARK VINA RESULT:      -9.8      2.194      2.613
REMARK  4 active torsions:
REMARK  status: ('A' for Active; 'I' for Inactive)
REMARK    1  A    between atoms: C_2  and  C_3 
REMARK    2  A    between atoms: C_4  and  C_5 
REMARK       I    between atoms: C_5  and  N_6 
REMARK    3  A    between atoms: N_6  and  C_7 
REMARK    4  A    between atoms: C_14  and  C_15 
REMARK       I    between atoms: C_15  and  N_16 
ROOT
HETATM    1  C   UNL     1       7.692  28.427  56.302  1.00  0.00     0.035 A 
HETATM    2  C   UNL     1       6.501  29.083  56.638  1.00  0.00     0.046 A 
HETATM    3  C   UNL     1       6.524  30.138  57.575  1.00  0.00     0.030 A 
HETATM    4  C   UNL     1       7.738  30.505  58.141  1.00  0.00     0.063 A 
HETATM    5  N   UNL     1       7.446  31.544  58.981  1.00  0.00    -0.277 N 
HETATM    6  H   UNL     1       8.095  32.067  59.558  1.00  0.00     0.189 HD
HETATM    7  N   UNL     1       6.145  31.877  59.024  1.00  0.00    -0.168 NA
HETATM    8  C   UNL     1       5.561  31.014  58.161  1.00  0.00     0.156 A 
HETATM    9  C   UNL     1       8.943  29.870  57.836  1.00  0.00     0.034 A 
HETATM   10  C   UNL     1       8.893  28.819  56.910  1.00  0.00     0.032 A 
ENDROOT
BRANCH   1  11
HETATM   11  N   UNL     1       7.769  27.376  55.360  1.00  0.00    -0.327 N 
HETATM   12  C   UNL     1       7.375  27.416  54.041  1.00  0.00     0.227 C 
HETATM   13  O   UNL     1       6.838  28.341  53.453  1.00  0.00    -0.273 OA
HETATM   14  H   UNL     1       8.204  26.524  55.678  1.00  0.00     0.169 HD
BRANCH  12  15
HETATM   15  C   UNL     1       7.667  26.186  53.255  1.00  0.00     0.087 A 
HETATM   16  C   UNL     1       6.697  25.025  53.459  1.00  0.00     0.032 A 
HETATM   17  C   UNL     1       6.889  25.630  52.094  1.00  0.00     0.025 A 
BRANCH  16  18
HETATM   18  C   UNL     1       7.261  23.689  53.860  1.00  0.00    -0.053 A 
HETATM   19  C   UNL     1       7.268  23.307  55.215  1.00  0.00     0.009 A 
HETATM   20  C   UNL     1       7.739  22.056  55.620  1.00  0.00     0.024 A 
HETATM   21  C   UNL     1       8.217  21.162  54.669  1.00  0.00     0.034 A 
HETATM   22  C   UNL     1       8.224  21.511  53.321  1.00  0.00     0.024 A 
HETATM   23 CL   UNL     1       8.792  19.616  55.156  1.00  0.00    -0.084 Cl
HETATM   24  C   UNL     1       7.745  22.763  52.922  1.00  0.00     0.009 A 
ENDBRANCH  16  18
ENDBRANCH  12  15
ENDBRANCH   1  11
BRANCH   8  25
HETATM   25  C   UNL     1       4.112  31.043  57.919  1.00  0.00     0.270 C 
HETATM   26  N   UNL     1       3.380  30.316  58.818  1.00  0.00    -0.365 N 
HETATM   27  H   UNL     1       3.869  29.819  59.555  1.00  0.00     0.159 HD
HETATM   28  H   UNL     1       2.378  30.267  58.722  1.00  0.00     0.159 HD
HETATM   29  O   UNL     1       3.567  31.650  57.004  1.00  0.00    -0.266 OA
ENDBRANCH   8  25
TORSDOF 4
ENDMDL
MODEL 5
REMARK VINA RESULT:      -9.7      2.325      2.860
REMARK  4 active torsions:
REMARK  status: ('A' for Active; 'I' for Inactive)
REMARK    1  A    between atoms: C_2  and  C_3 
REMARK    2  A    between atoms: C_4  and  C_5 
REMARK       I    between atoms: C_5  and  N_6 
REMARK    3  A    between atoms: N_6  and  C_7 
REMARK    4  A    between atoms: C_14  and  C_15 
REMARK       I    between atoms: C_15  and  N_16 
ROOT
HETATM    1  C   UNL     1       8.365  28.851  57.379  1.00  0.00     0.035 A 
HETATM    2  C   UNL     1       7.796  29.631  58.394  1.00  0.00     0.046 A 
HETATM    3  C   UNL     1       8.537  30.690  58.962  1.00  0.00     0.030 A 
HETATM    4  C   UNL     1       9.821  30.937  58.491  1.00  0.00     0.063 A 
HETATM    5  N   UNL     1      10.268  32.011  59.210  1.00  0.00    -0.277 N 
HETATM    6  H   UNL     1      11.167  32.471  59.127  1.00  0.00     0.189 HD
HETATM    7  N   UNL     1       9.395  32.477  60.118  1.00  0.00    -0.168 NA
HETATM    8  C   UNL     1       8.320  31.668  59.979  1.00  0.00     0.156 A 
HETATM    9  C   UNL     1      10.422  30.177  57.486  1.00  0.00     0.034 A 
HETATM   10  C   UNL     1       9.670  29.126  56.946  1.00  0.00     0.032 A 
ENDROOT
BRANCH   1  11
HETATM   11  N   UNL     1       7.692  27.786  56.739  1.00  0.00    -0.327 N 
HETATM   12  C   UNL     1       7.572  26.492  57.193  1.00  0.00     0.227 C 
HETATM   13  O   UNL     1       8.064  26.007  58.199  1.00  0.00    -0.273 OA
HETATM   14  H   UNL     1       7.209  28.014  55.884  1.00  0.00     0.169 HD
BRANCH  12  15
HETATM   15  C   UNL     1       6.718  25.604  56.355  1.00  0.00     0.087 A 
HETATM   16  C   UNL     1       7.345  25.123  55.050  1.00  0.00     0.032 A 
HETATM   17  C   UNL     1       6.900  24.134  56.094  1.00  0.00     0.025 A 
BRANCH  16  18
HETATM   18  C   UNL     1       6.597  25.369  53.767  1.00  0.00    -0.053 A 
HETATM   19  C   UNL     1       6.894  26.502  52.988  1.00  0.00     0.009 A 
HETATM   20  C   UNL     1       6.253  26.739  51.769  1.00  0.00     0.024 A 
HETATM   21  C   UNL     1       5.298  25.840  51.309  1.00  0.00     0.034 A 
HETATM   22  C   UNL     1       4.982  24.710  52.059  1.00  0.00     0.024 A 
HETATM   23 CL   UNL     1       4.510  26.119  49.806  1.00  0.00    -0.084 Cl
HETATM   24  C   UNL     1       5.632  24.476  53.276  1.00  0.00     0.009 A 
ENDBRANCH  16  18
ENDBRANCH  12  15
ENDBRANCH   1  11
BRANCH   8  25
HETATM   25  C   UNL     1       7.122  31.843  60.812  1.00  0.00     0.270 C 
HETATM   26  N   UNL     1       7.111  31.075  61.944  1.00  0.00    -0.365 N 
HETATM   27  H   UNL     1       7.895  30.456  62.119  1.00  0.00     0.159 HD
HETATM   28  H   UNL     1       6.322  31.120  62.570  1.00  0.00     0.159 HD
HETATM   29  O   UNL     1       6.191  32.597  60.551  1.00  0.00    -0.266 OA
ENDBRANCH   8  25
TORSDOF 4
ENDMDL
MODEL 6
REMARK VINA RESULT:      -9.4      5.734     10.699
REMARK  4 active torsions:
REMARK  status: ('A' for Active; 'I' for Inactive)
REMARK    1  A    between atoms: C_2  and  C_3 
REMARK    2  A    between atoms: C_4  and  C_5 
REMARK       I    between atoms: C_5  and  N_6 
REMARK    3  A    between atoms: N_6  and  C_7 
REMARK    4  A    between atoms: C_14  and  C_15 
REMARK       I    between atoms: C_15  and  N_16 
ROOT
HETATM    1  C   UNL     1       7.932  31.322  59.856  1.00  0.00     0.035 A 
HETATM    2  C   UNL     1       7.770  30.383  58.829  1.00  0.00     0.046 A 
HETATM    3  C   UNL     1       8.809  30.178  57.897  1.00  0.00     0.030 A 
HETATM    4  C   UNL     1       9.981  30.914  58.027  1.00  0.00     0.063 A 
HETATM    5  N   UNL     1      10.788  30.491  57.008  1.00  0.00    -0.277 N 
HETATM    6  H   UNL     1      11.727  30.808  56.798  1.00  0.00     0.189 HD
HETATM    7  N   UNL     1      10.241  29.554  56.216  1.00  0.00    -0.168 NA
HETATM    8  C   UNL     1       9.015  29.351  56.751  1.00  0.00     0.156 A 
HETATM    9  C   UNL     1      10.176  31.862  59.033  1.00  0.00     0.034 A 
HETATM   10  C   UNL     1       9.125  32.054  59.940  1.00  0.00     0.032 A 
ENDROOT
BRANCH   1  11
HETATM   11  N   UNL     1       6.956  31.579  60.845  1.00  0.00    -0.327 N 
HETATM   12  C   UNL     1       7.071  31.359  62.199  1.00  0.00     0.227 C 
HETATM   13  O   UNL     1       8.009  30.854  62.794  1.00  0.00    -0.273 OA
HETATM   14  H   UNL     1       6.104  32.016  60.527  1.00  0.00     0.169 HD
BRANCH  12  15
HETATM   15  C   UNL     1       5.914  31.820  63.016  1.00  0.00     0.087 A 
HETATM   16  C   UNL     1       5.937  33.291  63.423  1.00  0.00     0.032 A 
HETATM   17  C   UNL     1       4.804  32.744  62.598  1.00  0.00     0.025 A 
BRANCH  16  18
HETATM   18  C   UNL     1       5.813  33.626  64.886  1.00  0.00    -0.053 A 
HETATM   19  C   UNL     1       6.969  33.832  65.660  1.00  0.00     0.009 A 
HETATM   20  C   UNL     1       6.892  34.191  67.008  1.00  0.00     0.024 A 
HETATM   21  C   UNL     1       5.648  34.348  67.607  1.00  0.00     0.034 A 
HETATM   22  C   UNL     1       4.485  34.150  66.866  1.00  0.00     0.024 A 
HETATM   23 CL   UNL     1       5.542  34.798  69.263  1.00  0.00    -0.084 Cl
HETATM   24  C   UNL     1       4.570  33.797  65.516  1.00  0.00     0.009 A 
ENDBRANCH  16  18
ENDBRANCH  12  15
ENDBRANCH   1  11
BRANCH   8  25
HETATM   25  C   UNL     1       8.077  28.386  56.163  1.00  0.00     0.270 C 
HETATM   26  N   UNL     1       7.567  28.768  54.953  1.00  0.00    -0.365 N 
HETATM   27  H   UNL     1       7.852  29.660  54.564  1.00  0.00     0.159 HD
HETATM   28  H   UNL     1       6.904  28.173  54.481  1.00  0.00     0.159 HD
HETATM   29  O   UNL     1       7.752  27.323  56.679  1.00  0.00    -0.266 OA
ENDBRANCH   8  25
TORSDOF 4
ENDMDL
MODEL 7
REMARK VINA RESULT:      -9.4      4.524      9.188
REMARK  4 active torsions:
REMARK  status: ('A' for Active; 'I' for Inactive)
REMARK    1  A    between atoms: C_2  and  C_3 
REMARK    2  A    between atoms: C_4  and  C_5 
REMARK       I    between atoms: C_5  and  N_6 
REMARK    3  A    between atoms: N_6  and  C_7 
REMARK    4  A    between atoms: C_14  and  C_15 
REMARK       I    between atoms: C_15  and  N_16 
ROOT
HETATM    1  C   UNL     1       7.241  25.768  55.243  1.00  0.00     0.035 A 
HETATM    2  C   UNL     1       7.626  24.533  55.782  1.00  0.00     0.046 A 
HETATM    3  C   UNL     1       8.084  23.508  54.926  1.00  0.00     0.030 A 
HETATM    4  C   UNL     1       8.148  23.755  53.560  1.00  0.00     0.063 A 
HETATM    5  N   UNL     1       8.635  22.602  53.009  1.00  0.00    -0.277 N 
HETATM    6  H   UNL     1       8.819  22.422  52.028  1.00  0.00     0.189 HD
HETATM    7  N   UNL     1       8.879  21.620  53.892  1.00  0.00    -0.168 NA
HETATM    8  C   UNL     1       8.541  22.165  55.083  1.00  0.00     0.156 A 
HETATM    9  C   UNL     1       7.768  24.969  52.988  1.00  0.00     0.034 A 
HETATM   10  C   UNL     1       7.306  25.967  53.857  1.00  0.00     0.032 A 
ENDROOT
BRANCH   1  11
HETATM   11  N   UNL     1       6.790  26.856  56.022  1.00  0.00    -0.327 N 
HETATM   12  C   UNL     1       7.456  27.459  57.066  1.00  0.00     0.227 C 
HETATM   13  O   UNL     1       8.531  27.138  57.548  1.00  0.00    -0.273 OA
HETATM   14  H   UNL     1       5.908  27.263  55.752  1.00  0.00     0.169 HD
BRANCH  12  15
HETATM   15  C   UNL     1       6.781  28.655  57.643  1.00  0.00     0.087 A 
HETATM   16  C   UNL     1       7.610  29.936  57.665  1.00  0.00     0.032 A 
HETATM   17  C   UNL     1       6.306  29.883  56.915  1.00  0.00     0.025 A 
BRANCH  16  18
HETATM   18  C   UNL     1       7.782  30.648  58.980  1.00  0.00    -0.053 A 
HETATM   19  C   UNL     1       6.900  31.684  59.339  1.00  0.00     0.009 A 
HETATM   20  C   UNL     1       7.000  32.335  60.571  1.00  0.00     0.024 A 
HETATM   21  C   UNL     1       7.993  31.959  61.468  1.00  0.00     0.034 A 
HETATM   22  C   UNL     1       8.882  30.938  61.141  1.00  0.00     0.024 A 
HETATM   23 CL   UNL     1       8.119  32.750  62.990  1.00  0.00    -0.084 Cl
HETATM   24  C   UNL     1       8.772  30.287  59.908  1.00  0.00     0.009 A 
ENDBRANCH  16  18
ENDBRANCH  12  15
ENDBRANCH   1  11
BRANCH   8  25
HETATM   25  C   UNL     1       8.659  21.399  56.332  1.00  0.00     0.270 C 
HETATM   26  N   UNL     1       9.206  20.155  56.175  1.00  0.00    -0.365 N 
HETATM   27  H   UNL     1       9.474  19.855  55.245  1.00  0.00     0.159 HD
HETATM   28  H   UNL     1       9.313  19.553  56.977  1.00  0.00     0.159 HD
HETATM   29  O   UNL     1       8.307  21.800  57.435  1.00  0.00    -0.266 OA
ENDBRANCH   8  25
TORSDOF 4
ENDMDL
MODEL 8
REMARK VINA RESULT:      -9.2      1.879      2.724
REMARK  4 active torsions:
REMARK  status: ('A' for Active; 'I' for Inactive)
REMARK    1  A    between atoms: C_2  and  C_3 
REMARK    2  A    between atoms: C_4  and  C_5 
REMARK       I    between atoms: C_5  and  N_6 
REMARK    3  A    between atoms: N_6  and  C_7 
REMARK    4  A    between atoms: C_14  and  C_15 
REMARK       I    between atoms: C_15  and  N_16 
ROOT
HETATM    1  C   UNL     1       6.441  30.040  57.059  1.00  0.00     0.035 A 
HETATM    2  C   UNL     1       7.268  30.613  58.035  1.00  0.00     0.046 A 
HETATM    3  C   UNL     1       6.714  31.482  58.999  1.00  0.00     0.030 A 
HETATM    4  C   UNL     1       5.350  31.746  58.958  1.00  0.00     0.063 A 
HETATM    5  N   UNL     1       5.115  32.592  60.006  1.00  0.00    -0.277 N 
HETATM    6  H   UNL     1       4.225  32.988  60.286  1.00  0.00     0.189 HD
HETATM    7  N   UNL     1       6.207  32.916  60.718  1.00  0.00    -0.168 NA
HETATM    8  C   UNL     1       7.206  32.239  60.105  1.00  0.00     0.156 A 
HETATM    9  C   UNL     1       4.498  31.199  57.998  1.00  0.00     0.034 A 
HETATM   10  C   UNL     1       5.073  30.347  57.046  1.00  0.00     0.032 A 
ENDROOT
BRANCH   1  11
HETATM   11  N   UNL     1       6.903  29.144  56.069  1.00  0.00    -0.327 N 
HETATM   12  C   UNL     1       7.182  27.806  56.229  1.00  0.00     0.227 C 
HETATM   13  O   UNL     1       7.136  27.154  57.261  1.00  0.00    -0.273 OA
HETATM   14  H   UNL     1       6.990  29.517  55.136  1.00  0.00     0.169 HD
BRANCH  12  15
HETATM   15  C   UNL     1       7.559  27.083  54.983  1.00  0.00     0.087 A 
HETATM   16  C   UNL     1       6.559  26.036  54.498  1.00  0.00     0.032 A 
HETATM   17  C   UNL     1       6.927  27.204  53.623  1.00  0.00     0.025 A 
BRANCH  16  18
HETATM   18  C   UNL     1       7.056  24.634  54.262  1.00  0.00    -0.053 A 
HETATM   19  C   UNL     1       7.120  23.723  55.332  1.00  0.00     0.009 A 
HETATM   20  C   UNL     1       7.531  22.401  55.143  1.00  0.00     0.024 A 
HETATM   21  C   UNL     1       7.886  21.968  53.870  1.00  0.00     0.034 A 
HETATM   22  C   UNL     1       7.833  22.847  52.791  1.00  0.00     0.024 A 
HETATM   23 CL   UNL     1       8.385  20.341  53.625  1.00  0.00    -0.084 Cl
HETATM   24  C   UNL     1       7.416  24.168  52.988  1.00  0.00     0.009 A 
ENDBRANCH  16  18
ENDBRANCH  12  15
ENDBRANCH   1  11
BRANCH   8  25
HETATM   25  C   UNL     1       8.592  32.330  60.582  1.00  0.00     0.270 C 
HETATM   26  N   UNL     1       8.752  32.002  61.901  1.00  0.00    -0.365 N 
HETATM   27  H   UNL     1       7.935  31.738  62.439  1.00  0.00     0.159 HD
HETATM   28  H   UNL     1       9.669  32.049  62.318  1.00  0.00     0.159 HD
HETATM   29  O   UNL     1       9.549  32.668  59.894  1.00  0.00    -0.266 OA
ENDBRANCH   8  25
TORSDOF 4
ENDMDL
MODEL 9
REMARK VINA RESULT:      -9.2      5.581      9.050
REMARK  4 active torsions:
REMARK  status: ('A' for Active; 'I' for Inactive)
REMARK    1  A    between atoms: C_2  and  C_3 
REMARK    2  A    between atoms: C_4  and  C_5 
REMARK       I    between atoms: C_5  and  N_6 
REMARK    3  A    between atoms: N_6  and  C_7 
REMARK    4  A    between atoms: C_14  and  C_15 
REMARK       I    between atoms: C_15  and  N_16 
ROOT
HETATM    1  C   UNL     1       5.384  33.143  63.596  1.00  0.00     0.035 A 
HETATM    2  C   UNL     1       5.558  33.385  64.965  1.00  0.00     0.046 A 
HETATM    3  C   UNL     1       4.561  34.076  65.686  1.00  0.00     0.030 A 
HETATM    4  C   UNL     1       3.420  34.498  65.015  1.00  0.00     0.063 A 
HETATM    5  N   UNL     1       2.650  35.112  65.963  1.00  0.00    -0.277 N 
HETATM    6  H   UNL     1       1.739  35.536  65.832  1.00  0.00     0.189 HD
HETATM    7  N   UNL     1       3.194  35.141  67.191  1.00  0.00    -0.168 NA
HETATM    8  C   UNL     1       4.379  34.507  67.036  1.00  0.00     0.156 A 
HETATM    9  C   UNL     1       3.215  34.281  63.652  1.00  0.00     0.034 A 
HETATM   10  C   UNL     1       4.224  33.601  62.956  1.00  0.00     0.032 A 
ENDROOT
BRANCH   1  11
HETATM   11  N   UNL     1       6.317  32.442  62.800  1.00  0.00    -0.327 N 
HETATM   12  C   UNL     1       7.683  32.402  62.967  1.00  0.00     0.227 C 
HETATM   13  O   UNL     1       8.349  33.003  63.795  1.00  0.00    -0.273 OA
HETATM   14  H   UNL     1       5.934  31.873  62.061  1.00  0.00     0.169 HD
BRANCH  12  15
HETATM   15  C   UNL     1       8.410  31.497  62.034  1.00  0.00     0.087 A 
HETATM   16  C   UNL     1       8.647  32.048  60.630  1.00  0.00     0.032 A 
HETATM   17  C   UNL     1       9.808  31.655  61.503  1.00  0.00     0.025 A 
BRANCH  16  18
HETATM   18  C   UNL     1       8.177  31.230  59.457  1.00  0.00    -0.053 A 
HETATM   19  C   UNL     1       6.911  31.475  58.892  1.00  0.00     0.009 A 
HETATM   20  C   UNL     1       6.461  30.769  57.774  1.00  0.00     0.024 A 
HETATM   21  C   UNL     1       7.276  29.799  57.200  1.00  0.00     0.034 A 
HETATM   22  C   UNL     1       8.533  29.534  57.737  1.00  0.00     0.024 A 
HETATM   23 CL   UNL     1       6.734  28.930  55.819  1.00  0.00    -0.084 Cl
HETATM   24  C   UNL     1       8.979  30.249  58.853  1.00  0.00     0.009 A 
ENDBRANCH  16  18
ENDBRANCH  12  15
ENDBRANCH   1  11
BRANCH   8  25
HETATM   25  C   UNL     1       5.302  34.328  68.165  1.00  0.00     0.270 C 
HETATM   26  N   UNL     1       6.503  34.964  68.011  1.00  0.00    -0.365 N 
HETATM   27  H   UNL     1       6.671  35.487  67.159  1.00  0.00     0.159 HD
HETATM   28  H   UNL     1       7.205  34.886  68.731  1.00  0.00     0.159 HD
HETATM   29  O   UNL     1       5.057  33.673  69.172  1.00  0.00    -0.266 OA
ENDBRANCH   8  25
TORSDOF 4
ENDMDL
MODEL 10
REMARK VINA RESULT:      -9.1      4.388      9.100
REMARK  4 active torsions:
REMARK  status: ('A' for Active; 'I' for Inactive)
REMARK    1  A    between atoms: C_2  and  C_3 
REMARK    2  A    between atoms: C_4  and  C_5 
REMARK       I    between atoms: C_5  and  N_6 
REMARK    3  A    between atoms: N_6  and  C_7 
REMARK    4  A    between atoms: C_14  and  C_15 
REMARK       I    between atoms: C_15  and  N_16 
ROOT
HETATM    1  C   UNL     1       7.711  27.293  56.797  1.00  0.00     0.035 A 
HETATM    2  C   UNL     1       7.016  27.131  55.591  1.00  0.00     0.046 A 
HETATM    3  C   UNL     1       6.853  25.840  55.045  1.00  0.00     0.030 A 
HETATM    4  C   UNL     1       7.386  24.752  55.727  1.00  0.00     0.063 A 
HETATM    5  N   UNL     1       7.059  23.659  54.973  1.00  0.00    -0.277 N 
HETATM    6  H   UNL     1       7.280  22.690  55.171  1.00  0.00     0.189 HD
HETATM    7  N   UNL     1       6.373  23.938  53.853  1.00  0.00    -0.168 NA
HETATM    8  C   UNL     1       6.240  25.284  53.881  1.00  0.00     0.156 A 
HETATM    9  C   UNL     1       8.089  24.876  56.926  1.00  0.00     0.034 A 
HETATM   10  C   UNL     1       8.246  26.169  57.442  1.00  0.00     0.032 A 
ENDROOT
BRANCH   1  11
HETATM   11  N   UNL     1       7.905  28.542  57.427  1.00  0.00    -0.327 N 
HETATM   12  C   UNL     1       9.062  29.289  57.445  1.00  0.00     0.227 C 
HETATM   13  O   UNL     1      10.147  28.993  56.971  1.00  0.00    -0.273 OA
HETATM   14  H   UNL     1       7.095  28.950  57.868  1.00  0.00     0.169 HD
BRANCH  12  15
HETATM   15  C   UNL     1       8.947  30.620  58.105  1.00  0.00     0.087 A 
HETATM   16  C   UNL     1       9.447  30.688  59.546  1.00  0.00     0.032 A 
HETATM   17  C   UNL     1      10.060  31.558  58.482  1.00  0.00     0.025 A 
BRANCH  16  18
HETATM   18  C   UNL     1       8.507  31.206  60.601  1.00  0.00    -0.053 A 
HETATM   19  C   UNL     1       8.905  31.221  61.950  1.00  0.00     0.009 A 
HETATM   20  C   UNL     1       8.078  31.738  62.951  1.00  0.00     0.024 A 
HETATM   21  C   UNL     1       6.830  32.249  62.614  1.00  0.00     0.034 A 
HETATM   22  C   UNL     1       6.408  32.248  61.287  1.00  0.00     0.024 A 
HETATM   23 CL   UNL     1       5.809  32.895  63.838  1.00  0.00    -0.084 Cl
HETATM   24  C   UNL     1       7.244  31.734  60.290  1.00  0.00     0.009 A 
ENDBRANCH  16  18
ENDBRANCH  12  15
ENDBRANCH   1  11
BRANCH   8  25
HETATM   25  C   UNL     1       5.540  26.004  52.808  1.00  0.00     0.270 C 
HETATM   26  N   UNL     1       4.219  26.247  53.068  1.00  0.00    -0.365 N 
HETATM   27  H   UNL     1       3.827  25.919  53.943  1.00  0.00     0.159 HD
HETATM   28  H   UNL     1       3.655  26.724  52.381  1.00  0.00     0.159 HD
HETATM   29  O   UNL     1       6.056  26.369  51.758  1.00  0.00    -0.266 OA
ENDBRANCH   8  25
TORSDOF 4
ENDMDL
