MODEL 1
REMARK VINA RESULT:      -9.3      0.000      0.000
REMARK  8 active torsions:
REMARK  status: ('A' for Active; 'I' for Inactive)
REMARK    1  A    between atoms: C_2  and  C_3 
REMARK    2  A    between atoms: C_3  and  O_4 
REMARK    3  A    between atoms: O_4  and  C_5 
REMARK    4  A    between atoms: C_7  and  C_8 
REMARK    5  A    between atoms: N_9  and  C_10 
REMARK    6  A    between atoms: C_10  and  C_11 
REMARK    7  A    between atoms: C_24  and  C_25 
REMARK    8  A    between atoms: C_26  and  O_27 
ROOT
HETATM    1  C   UNL     1       5.657  25.545  54.386  1.00  0.00     0.159 A 
HETATM    2  N   UNL     1       5.113  26.521  53.399  1.00  0.00    -0.329 N 
HETATM    3  C   UNL     1       5.770  26.514  52.164  1.00  0.00     0.273 A 
HETATM    4  O   UNL     1       5.547  27.195  51.180  1.00  0.00    -0.266 OA
HETATM    5  C   UNL     1       6.724  25.483  52.310  1.00  0.00     0.129 A 
HETATM    6  C   UNL     1       6.672  24.881  53.533  1.00  0.00     0.034 A 
HETATM    7  N   UNL     1       7.668  24.869  51.583  1.00  0.00    -0.272 N 
HETATM    8  H   UNL     1       7.972  25.059  50.632  1.00  0.00     0.189 HD
HETATM    9  N   UNL     1       8.243  23.853  52.276  1.00  0.00    -0.173 NA
HETATM   10  C   UNL     1       7.579  23.811  53.462  1.00  0.00     0.101 A 
ENDROOT
BRANCH   1  11
HETATM   11  C   UNL     1       6.410  26.192  55.531  1.00  0.00    -0.028 A 
HETATM   12  C   UNL     1       7.297  27.274  55.335  1.00  0.00     0.046 A 
HETATM   13  C   UNL     1       8.000  27.838  56.402  1.00  0.00     0.069 A 
HETATM   14  C   UNL     1       7.824  27.317  57.684  1.00  0.00     0.037 A 
HETATM   15  C   UNL     1       6.955  26.250  57.901  1.00  0.00     0.003 A 
HETATM   16  C   UNL     1       6.249  25.695  56.834  1.00  0.00     0.010 A 
BRANCH  13  17
HETATM   17  O   UNL     1       8.878  28.885  56.327  1.00  0.00    -0.348 OA
BRANCH  17  18
HETATM   18  C   UNL     1       8.838  29.848  57.378  1.00  0.00     0.202 C 
BRANCH  18  19
HETATM   19  C   UNL     1      10.252  30.233  57.693  1.00  0.00    -0.011 C 
HETATM   20  C   UNL     1      11.335  29.698  57.113  1.00  0.00     0.009 C 
ENDBRANCH  18  19
ENDBRANCH  17  18
ENDBRANCH  13  17
ENDBRANCH   1  11
BRANCH   2  21
HETATM   21  C   UNL     1       3.914  27.294  53.653  1.00  0.00     0.167 C 
BRANCH  21  22
HETATM   22  C   UNL     1       4.146  28.544  54.459  1.00  0.00    -0.023 A 
HETATM   23  C   UNL     1       4.391  29.749  53.803  1.00  0.00     0.125 A 
HETATM   24  N   UNL     1       4.572  30.937  54.424  1.00  0.00    -0.273 NA
HETATM   25  C   UNL     1       4.487  30.937  55.770  1.00  0.00     0.116 A 
HETATM   26  C   UNL     1       4.231  29.805  56.522  1.00  0.00     0.020 A 
HETATM   27  C   UNL     1       4.048  28.597  55.854  1.00  0.00     0.012 A 
ENDBRANCH  21  22
ENDBRANCH   2  21
BRANCH  10  28
HETATM   28  C   UNL     1       7.866  22.755  54.435  1.00  0.00     0.028 A 
HETATM   29  C   UNL     1       7.879  21.399  54.063  1.00  0.00     0.078 A 
HETATM   30  C   UNL     1       8.165  20.397  54.988  1.00  0.00     0.037 A 
HETATM   31  C   UNL     1       8.417  20.732  56.317  1.00  0.00     0.003 A 
HETATM   32  C   UNL     1       8.377  22.067  56.716  1.00  0.00     0.001 A 
HETATM   33  C   UNL     1       8.100  23.072  55.782  1.00  0.00     0.017 A 
BRANCH  29  34
HETATM   34  O   UNL     1       7.600  20.986  52.785  1.00  0.00    -0.360 OA
HETATM   35  H   UNL     1       8.418  20.547  52.457  1.00  0.00     0.217 HD
ENDBRANCH  29  34
ENDBRANCH  10  28
TORSDOF 8
ENDMDL
MODEL 2
REMARK VINA RESULT:      -8.9      2.119      6.405
REMARK  8 active torsions:
REMARK  status: ('A' for Active; 'I' for Inactive)
REMARK    1  A    between atoms: C_2  and  C_3 
REMARK    2  A    between atoms: C_3  and  O_4 
REMARK    3  A    between atoms: O_4  and  C_5 
REMARK    4  A    between atoms: C_7  and  C_8 
REMARK    5  A    between atoms: N_9  and  C_10 
REMARK    6  A    between atoms: C_10  and  C_11 
REMARK    7  A    between atoms: C_24  and  C_25 
REMARK    8  A    between atoms: C_26  and  O_27 
ROOT
HETATM    1  C   UNL     1       6.561  27.220  53.889  1.00  0.00     0.159 A 
HETATM    2  N   UNL     1       5.321  27.047  53.079  1.00  0.00    -0.329 N 
HETATM    3  C   UNL     1       4.248  27.841  53.498  1.00  0.00     0.273 A 
HETATM    4  O   UNL     1       3.125  27.909  53.033  1.00  0.00    -0.266 OA
HETATM    5  C   UNL     1       4.794  28.592  54.562  1.00  0.00     0.129 A 
HETATM    6  C   UNL     1       6.108  28.304  54.794  1.00  0.00     0.034 A 
HETATM    7  N   UNL     1       4.421  29.555  55.415  1.00  0.00    -0.272 N 
HETATM    8  H   UNL     1       3.517  30.006  55.521  1.00  0.00     0.189 HD
HETATM    9  N   UNL     1       5.455  29.943  56.206  1.00  0.00    -0.173 NA
HETATM   10  C   UNL     1       6.523  29.219  55.777  1.00  0.00     0.101 A 
ENDROOT
BRANCH   1  11
HETATM   11  C   UNL     1       6.884  26.029  54.769  1.00  0.00    -0.028 A 
HETATM   12  C   UNL     1       7.848  25.062  54.406  1.00  0.00     0.046 A 
HETATM   13  C   UNL     1       8.111  23.960  55.222  1.00  0.00     0.069 A 
HETATM   14  C   UNL     1       7.403  23.811  56.414  1.00  0.00     0.037 A 
HETATM   15  C   UNL     1       6.447  24.751  56.792  1.00  0.00     0.003 A 
HETATM   16  C   UNL     1       6.193  25.855  55.979  1.00  0.00     0.010 A 
BRANCH  13  17
HETATM   17  O   UNL     1       9.021  22.969  54.970  1.00  0.00    -0.348 OA
BRANCH  17  18
HETATM   18  C   UNL     1       8.548  21.624  55.011  1.00  0.00     0.202 C 
BRANCH  18  19
HETATM   19  C   UNL     1       7.916  21.326  53.684  1.00  0.00    -0.011 C 
HETATM   20  C   UNL     1       8.368  20.415  52.812  1.00  0.00     0.009 C 
ENDBRANCH  18  19
ENDBRANCH  17  18
ENDBRANCH  13  17
ENDBRANCH   1  11
BRANCH   2  21
HETATM   21  C   UNL     1       5.287  26.244  51.874  1.00  0.00     0.167 C 
BRANCH  21  22
HETATM   22  C   UNL     1       5.165  27.043  50.604  1.00  0.00    -0.023 A 
HETATM   23  C   UNL     1       5.692  28.332  50.551  1.00  0.00     0.125 A 
HETATM   24  N   UNL     1       5.674  29.122  49.453  1.00  0.00    -0.273 NA
HETATM   25  C   UNL     1       5.123  28.601  48.338  1.00  0.00     0.116 A 
HETATM   26  C   UNL     1       4.587  27.327  48.273  1.00  0.00     0.020 A 
HETATM   27  C   UNL     1       4.620  26.537  49.419  1.00  0.00     0.012 A 
ENDBRANCH  21  22
ENDBRANCH   2  21
BRANCH  10  28
HETATM   28  C   UNL     1       7.853  29.453  56.340  1.00  0.00     0.028 A 
HETATM   29  C   UNL     1       8.023  29.844  57.680  1.00  0.00     0.078 A 
HETATM   30  C   UNL     1       9.291  30.055  58.218  1.00  0.00     0.037 A 
HETATM   31  C   UNL     1      10.419  29.904  57.413  1.00  0.00     0.003 A 
HETATM   32  C   UNL     1      10.273  29.549  56.074  1.00  0.00     0.001 A 
HETATM   33  C   UNL     1       8.999  29.328  55.539  1.00  0.00     0.017 A 
BRANCH  29  34
HETATM   34  O   UNL     1       6.962  30.054  58.524  1.00  0.00    -0.360 OA
HETATM   35  H   UNL     1       7.352  30.287  59.397  1.00  0.00     0.217 HD
ENDBRANCH  29  34
ENDBRANCH  10  28
TORSDOF 8
ENDMDL
MODEL 3
REMARK VINA RESULT:      -8.7      2.801      6.838
REMARK  8 active torsions:
REMARK  status: ('A' for Active; 'I' for Inactive)
REMARK    1  A    between atoms: C_2  and  C_3 
REMARK    2  A    between atoms: C_3  and  O_4 
REMARK    3  A    between atoms: O_4  and  C_5 
REMARK    4  A    between atoms: C_7  and  C_8 
REMARK    5  A    between atoms: N_9  and  C_10 
REMARK    6  A    between atoms: C_10  and  C_11 
REMARK    7  A    between atoms: C_24  and  C_25 
REMARK    8  A    between atoms: C_26  and  O_27 
ROOT
HETATM    1  C   UNL     1       4.247  27.863  53.702  1.00  0.00     0.159 A 
HETATM    2  N   UNL     1       4.347  28.729  54.911  1.00  0.00    -0.329 N 
HETATM    3  C   UNL     1       4.470  30.094  54.629  1.00  0.00     0.273 A 
HETATM    4  O   UNL     1       4.570  31.025  55.407  1.00  0.00    -0.266 OA
HETATM    5  C   UNL     1       4.394  30.143  53.220  1.00  0.00     0.129 A 
HETATM    6  C   UNL     1       4.229  28.913  52.655  1.00  0.00     0.034 A 
HETATM    7  N   UNL     1       4.396  31.056  52.239  1.00  0.00    -0.272 N 
HETATM    8  H   UNL     1       4.498  32.065  52.300  1.00  0.00     0.189 HD
HETATM    9  N   UNL     1       4.216  30.477  51.024  1.00  0.00    -0.173 NA
HETATM   10  C   UNL     1       4.040  29.154  51.283  1.00  0.00     0.101 A 
ENDROOT
BRANCH   1  11
HETATM   11  C   UNL     1       5.483  27.023  53.451  1.00  0.00    -0.028 A 
HETATM   12  C   UNL     1       5.422  25.622  53.278  1.00  0.00     0.046 A 
HETATM   13  C   UNL     1       6.578  24.866  53.072  1.00  0.00     0.069 A 
HETATM   14  C   UNL     1       7.815  25.509  53.044  1.00  0.00     0.037 A 
HETATM   15  C   UNL     1       7.900  26.889  53.212  1.00  0.00     0.003 A 
HETATM   16  C   UNL     1       6.743  27.641  53.409  1.00  0.00     0.010 A 
BRANCH  13  17
HETATM   17  O   UNL     1       6.633  23.511  52.891  1.00  0.00    -0.348 OA
BRANCH  17  18
HETATM   18  C   UNL     1       7.923  22.903  52.905  1.00  0.00     0.202 C 
BRANCH  18  19
HETATM   19  C   UNL     1       7.754  21.493  53.387  1.00  0.00    -0.011 C 
HETATM   20  C   UNL     1       8.382  20.430  52.868  1.00  0.00     0.009 C 
ENDBRANCH  18  19
ENDBRANCH  17  18
ENDBRANCH  13  17
ENDBRANCH   1  11
BRANCH   2  21
HETATM   21  C   UNL     1       4.175  28.211  56.253  1.00  0.00     0.167 C 
BRANCH  21  22
HETATM   22  C   UNL     1       5.336  27.390  56.749  1.00  0.00    -0.023 A 
HETATM   23  C   UNL     1       6.454  28.032  57.279  1.00  0.00     0.125 A 
HETATM   24  N   UNL     1       7.533  27.395  57.789  1.00  0.00    -0.273 NA
HETATM   25  C   UNL     1       7.496  26.047  57.794  1.00  0.00     0.116 A 
HETATM   26  C   UNL     1       6.431  25.308  57.310  1.00  0.00     0.020 A 
HETATM   27  C   UNL     1       5.335  25.991  56.792  1.00  0.00     0.012 A 
ENDBRANCH  21  22
ENDBRANCH   2  21
BRANCH  10  28
HETATM   28  C   UNL     1       3.712  28.223  50.202  1.00  0.00     0.028 A 
HETATM   29  C   UNL     1       2.533  28.362  49.448  1.00  0.00     0.078 A 
HETATM   30  C   UNL     1       2.229  27.483  48.411  1.00  0.00     0.037 A 
HETATM   31  C   UNL     1       3.090  26.425  48.124  1.00  0.00     0.003 A 
HETATM   32  C   UNL     1       4.247  26.248  48.879  1.00  0.00     0.001 A 
HETATM   33  C   UNL     1       4.555  27.139  49.913  1.00  0.00     0.017 A 
BRANCH  29  34
HETATM   34  O   UNL     1       1.616  29.351  49.696  1.00  0.00    -0.360 OA
HETATM   35  H   UNL     1       1.707  29.574  50.650  1.00  0.00     0.217 HD
ENDBRANCH  29  34
ENDBRANCH  10  28
TORSDOF 8
ENDMDL
MODEL 4
REMARK VINA RESULT:      -8.7      2.600      7.638
REMARK  8 active torsions:
REMARK  status: ('A' for Active; 'I' for Inactive)
REMARK    1  A    between atoms: C_2  and  C_3 
REMARK    2  A    between atoms: C_3  and  O_4 
REMARK    3  A    between atoms: O_4  and  C_5 
REMARK    4  A    between atoms: C_7  and  C_8 
REMARK    5  A    between atoms: N_9  and  C_10 
REMARK    6  A    between atoms: C_10  and  C_11 
REMARK    7  A    between atoms: C_24  and  C_25 
REMARK    8  A    between atoms: C_26  and  O_27 
ROOT
HETATM    1  C   UNL     1       6.282  25.293  55.746  1.00  0.00     0.159 A 
HETATM    2  N   UNL     1       7.167  24.323  56.450  1.00  0.00    -0.329 N 
HETATM    3  C   UNL     1       8.184  24.918  57.205  1.00  0.00     0.273 A 
HETATM    4  O   UNL     1       9.046  24.381  57.876  1.00  0.00    -0.266 OA
HETATM    5  C   UNL     1       7.939  26.299  57.047  1.00  0.00     0.129 A 
HETATM    6  C   UNL     1       6.853  26.560  56.264  1.00  0.00     0.034 A 
HETATM    7  N   UNL     1       8.437  27.469  57.473  1.00  0.00    -0.272 N 
HETATM    8  H   UNL     1       9.240  27.647  58.069  1.00  0.00     0.189 HD
HETATM    9  N   UNL     1       7.703  28.515  57.014  1.00  0.00    -0.173 NA
HETATM   10  C   UNL     1       6.676  27.953  56.322  1.00  0.00     0.101 A 
ENDROOT
BRANCH   1  11
HETATM   11  C   UNL     1       6.476  25.315  54.243  1.00  0.00    -0.028 A 
HETATM   12  C   UNL     1       5.388  25.337  53.342  1.00  0.00     0.046 A 
HETATM   13  C   UNL     1       5.591  25.332  51.960  1.00  0.00     0.069 A 
HETATM   14  C   UNL     1       6.894  25.297  51.464  1.00  0.00     0.037 A 
HETATM   15  C   UNL     1       7.983  25.275  52.334  1.00  0.00     0.003 A 
HETATM   16  C   UNL     1       7.775  25.289  53.713  1.00  0.00     0.010 A 
BRANCH  13  17
HETATM   17  O   UNL     1       4.615  25.354  51.001  1.00  0.00    -0.348 OA
BRANCH  17  18
HETATM   18  C   UNL     1       4.751  26.312  49.954  1.00  0.00     0.202 C 
BRANCH  18  19
HETATM   19  C   UNL     1       4.532  27.670  50.552  1.00  0.00    -0.011 C 
HETATM   20  C   UNL     1       5.300  28.741  50.310  1.00  0.00     0.009 C 
ENDBRANCH  18  19
ENDBRANCH  17  18
ENDBRANCH  13  17
ENDBRANCH   1  11
BRANCH   2  21
HETATM   21  C   UNL     1       6.896  22.899  56.471  1.00  0.00     0.167 C 
BRANCH  21  22
HETATM   22  C   UNL     1       7.716  22.103  55.490  1.00  0.00    -0.023 A 
HETATM   23  C   UNL     1       8.700  21.237  55.962  1.00  0.00     0.125 A 
HETATM   24  N   UNL     1       9.465  20.446  55.176  1.00  0.00    -0.273 NA
HETATM   25  C   UNL     1       9.230  20.498  53.849  1.00  0.00     0.116 A 
HETATM   26  C   UNL     1       8.266  21.307  53.274  1.00  0.00     0.020 A 
HETATM   27  C   UNL     1       7.494  22.110  54.108  1.00  0.00     0.012 A 
ENDBRANCH  21  22
ENDBRANCH   2  21
BRANCH  10  28
HETATM   28  C   UNL     1       5.611  28.789  55.766  1.00  0.00     0.028 A 
HETATM   29  C   UNL     1       4.700  29.465  56.597  1.00  0.00     0.078 A 
HETATM   30  C   UNL     1       3.695  30.270  56.065  1.00  0.00     0.037 A 
HETATM   31  C   UNL     1       3.564  30.394  54.684  1.00  0.00     0.003 A 
HETATM   32  C   UNL     1       4.434  29.707  53.840  1.00  0.00     0.001 A 
HETATM   33  C   UNL     1       5.449  28.907  54.376  1.00  0.00     0.017 A 
BRANCH  29  34
HETATM   34  O   UNL     1       4.737  29.360  57.964  1.00  0.00    -0.360 OA
HETATM   35  H   UNL     1       4.699  30.281  58.307  1.00  0.00     0.217 HD
ENDBRANCH  29  34
ENDBRANCH  10  28
TORSDOF 8
ENDMDL
MODEL 5
REMARK VINA RESULT:      -8.7      9.319     13.836
REMARK  8 active torsions:
REMARK  status: ('A' for Active; 'I' for Inactive)
REMARK    1  A    between atoms: C_2  and  C_3 
REMARK    2  A    between atoms: C_3  and  O_4 
REMARK    3  A    between atoms: O_4  and  C_5 
REMARK    4  A    between atoms: C_7  and  C_8 
REMARK    5  A    between atoms: N_9  and  C_10 
REMARK    6  A    between atoms: C_10  and  C_11 
REMARK    7  A    between atoms: C_24  and  C_25 
REMARK    8  A    between atoms: C_26  and  O_27 
ROOT
HETATM    1  C   UNL     1       5.868  34.865  62.478  1.00  0.00     0.159 A 
HETATM    2  N   UNL     1       5.290  33.732  61.701  1.00  0.00    -0.329 N 
HETATM    3  C   UNL     1       4.331  34.114  60.757  1.00  0.00     0.273 A 
HETATM    4  O   UNL     1       3.698  33.414  59.989  1.00  0.00    -0.266 OA
HETATM    5  C   UNL     1       4.311  35.522  60.867  1.00  0.00     0.129 A 
HETATM    6  C   UNL     1       5.189  35.995  61.797  1.00  0.00     0.034 A 
HETATM    7  N   UNL     1       3.704  36.571  60.296  1.00  0.00    -0.272 N 
HETATM    8  H   UNL     1       2.995  36.587  59.568  1.00  0.00     0.189 HD
HETATM    9  N   UNL     1       4.164  37.745  60.801  1.00  0.00    -0.173 NA
HETATM   10  C   UNL     1       5.137  37.394  61.684  1.00  0.00     0.101 A 
ENDROOT
BRANCH   1  11
HETATM   11  C   UNL     1       5.421  34.901  63.926  1.00  0.00    -0.028 A 
HETATM   12  C   UNL     1       6.264  34.500  64.986  1.00  0.00     0.046 A 
HETATM   13  C   UNL     1       5.821  34.518  66.311  1.00  0.00     0.069 A 
HETATM   14  C   UNL     1       4.520  34.936  66.587  1.00  0.00     0.037 A 
HETATM   15  C   UNL     1       3.670  35.337  65.558  1.00  0.00     0.003 A 
HETATM   16  C   UNL     1       4.119  35.324  64.237  1.00  0.00     0.010 A 
BRANCH  13  17
HETATM   17  O   UNL     1       6.550  34.155  67.410  1.00  0.00    -0.348 OA
BRANCH  17  18
HETATM   18  C   UNL     1       6.080  34.599  68.681  1.00  0.00     0.202 C 
BRANCH  18  19
HETATM   19  C   UNL     1       7.194  35.363  69.334  1.00  0.00    -0.011 C 
HETATM   20  C   UNL     1       8.381  34.841  69.668  1.00  0.00     0.009 C 
ENDBRANCH  18  19
ENDBRANCH  17  18
ENDBRANCH  13  17
ENDBRANCH   1  11
BRANCH   2  21
HETATM   21  C   UNL     1       5.795  32.378  61.812  1.00  0.00     0.167 C 
BRANCH  21  22
HETATM   22  C   UNL     1       7.204  32.203  61.308  1.00  0.00    -0.023 A 
HETATM   23  C   UNL     1       7.476  32.390  59.955  1.00  0.00     0.125 A 
HETATM   24  N   UNL     1       8.708  32.299  59.402  1.00  0.00    -0.273 NA
HETATM   25  C   UNL     1       9.731  32.027  60.238  1.00  0.00     0.116 A 
HETATM   26  C   UNL     1       9.577  31.842  61.601  1.00  0.00     0.020 A 
HETATM   27  C   UNL     1       8.298  31.942  62.141  1.00  0.00     0.012 A 
ENDBRANCH  21  22
ENDBRANCH   2  21
BRANCH  10  28
HETATM   28  C   UNL     1       5.938  38.422  62.352  1.00  0.00     0.028 A 
HETATM   29  C   UNL     1       6.856  39.213  61.641  1.00  0.00     0.078 A 
HETATM   30  C   UNL     1       7.607  40.199  62.277  1.00  0.00     0.037 A 
HETATM   31  C   UNL     1       7.473  40.395  63.650  1.00  0.00     0.003 A 
HETATM   32  C   UNL     1       6.594  39.600  64.382  1.00  0.00     0.001 A 
HETATM   33  C   UNL     1       5.833  38.617  63.739  1.00  0.00     0.017 A 
BRANCH  29  34
HETATM   34  O   UNL     1       7.076  39.054  60.296  1.00  0.00    -0.360 OA
HETATM   35  H   UNL     1       6.304  38.548  59.953  1.00  0.00     0.217 HD
ENDBRANCH  29  34
ENDBRANCH  10  28
TORSDOF 8
ENDMDL
MODEL 6
REMARK VINA RESULT:      -8.3      2.211      6.891
REMARK  8 active torsions:
REMARK  status: ('A' for Active; 'I' for Inactive)
REMARK    1  A    between atoms: C_2  and  C_3 
REMARK    2  A    between atoms: C_3  and  O_4 
REMARK    3  A    between atoms: O_4  and  C_5 
REMARK    4  A    between atoms: C_7  and  C_8 
REMARK    5  A    between atoms: N_9  and  C_10 
REMARK    6  A    between atoms: C_10  and  C_11 
REMARK    7  A    between atoms: C_24  and  C_25 
REMARK    8  A    between atoms: C_26  and  O_27 
ROOT
HETATM    1  C   UNL     1       6.245  28.929  55.021  1.00  0.00     0.159 A 
HETATM    2  N   UNL     1       5.387  28.846  53.805  1.00  0.00    -0.329 N 
HETATM    3  C   UNL     1       4.182  29.550  53.904  1.00  0.00     0.273 A 
HETATM    4  O   UNL     1       3.295  29.659  53.079  1.00  0.00    -0.266 OA
HETATM    5  C   UNL     1       4.264  30.156  55.177  1.00  0.00     0.129 A 
HETATM    6  C   UNL     1       5.427  29.866  55.829  1.00  0.00     0.034 A 
HETATM    7  N   UNL     1       3.548  30.982  55.951  1.00  0.00    -0.272 N 
HETATM    8  H   UNL     1       2.635  31.395  55.779  1.00  0.00     0.189 HD
HETATM    9  N   UNL     1       4.205  31.277  57.102  1.00  0.00    -0.173 NA
HETATM   10  C   UNL     1       5.404  30.642  56.999  1.00  0.00     0.101 A 
ENDROOT
BRANCH   1  11
HETATM   11  C   UNL     1       6.319  27.634  55.804  1.00  0.00    -0.028 A 
HETATM   12  C   UNL     1       7.543  26.978  56.064  1.00  0.00     0.046 A 
HETATM   13  C   UNL     1       7.584  25.772  56.767  1.00  0.00     0.069 A 
HETATM   14  C   UNL     1       6.391  25.204  57.214  1.00  0.00     0.037 A 
HETATM   15  C   UNL     1       5.172  25.833  56.969  1.00  0.00     0.003 A 
HETATM   16  C   UNL     1       5.137  27.041  56.274  1.00  0.00     0.010 A 
BRANCH  13  17
HETATM   17  O   UNL     1       8.709  25.056  57.076  1.00  0.00    -0.348 OA
BRANCH  17  18
HETATM   18  C   UNL     1       8.616  23.634  57.007  1.00  0.00     0.202 C 
BRANCH  18  19
HETATM   19  C   UNL     1       9.072  23.216  55.641  1.00  0.00    -0.011 C 
HETATM   20  C   UNL     1       8.714  22.076  55.035  1.00  0.00     0.009 C 
ENDBRANCH  18  19
ENDBRANCH  17  18
ENDBRANCH  13  17
ENDBRANCH   1  11
BRANCH   2  21
HETATM   21  C   UNL     1       5.837  28.218  52.579  1.00  0.00     0.167 C 
BRANCH  21  22
HETATM   22  C   UNL     1       6.088  26.738  52.701  1.00  0.00    -0.023 A 
HETATM   23  C   UNL     1       5.010  25.871  52.863  1.00  0.00     0.125 A 
HETATM   24  N   UNL     1       5.116  24.524  52.942  1.00  0.00    -0.273 NA
HETATM   25  C   UNL     1       6.356  24.005  52.836  1.00  0.00     0.116 A 
HETATM   26  C   UNL     1       7.494  24.771  52.655  1.00  0.00     0.020 A 
HETATM   27  C   UNL     1       7.354  26.154  52.577  1.00  0.00     0.012 A 
ENDBRANCH  21  22
ENDBRANCH   2  21
BRANCH  10  28
HETATM   28  C   UNL     1       6.430  30.824  58.028  1.00  0.00     0.028 A 
HETATM   29  C   UNL     1       6.532  32.021  58.758  1.00  0.00     0.078 A 
HETATM   30  C   UNL     1       7.501  32.186  59.745  1.00  0.00     0.037 A 
HETATM   31  C   UNL     1       8.409  31.161  60.004  1.00  0.00     0.003 A 
HETATM   32  C   UNL     1       8.348  29.978  59.271  1.00  0.00     0.001 A 
HETATM   33  C   UNL     1       7.367  29.811  58.287  1.00  0.00     0.017 A 
BRANCH  29  34
HETATM   34  O   UNL     1       5.704  33.091  58.533  1.00  0.00    -0.360 OA
HETATM   35  H   UNL     1       5.523  33.484  59.417  1.00  0.00     0.217 HD
ENDBRANCH  29  34
ENDBRANCH  10  28
TORSDOF 8
ENDMDL
MODEL 7
REMARK VINA RESULT:      -8.3      3.765      8.300
REMARK  8 active torsions:
REMARK  status: ('A' for Active; 'I' for Inactive)
REMARK    1  A    between atoms: C_2  and  C_3 
REMARK    2  A    between atoms: C_3  and  O_4 
REMARK    3  A    between atoms: O_4  and  C_5 
REMARK    4  A    between atoms: C_7  and  C_8 
REMARK    5  A    between atoms: N_9  and  C_10 
REMARK    6  A    between atoms: C_10  and  C_11 
REMARK    7  A    between atoms: C_24  and  C_25 
REMARK    8  A    between atoms: C_26  and  O_27 
ROOT
HETATM    1  C   UNL     1       7.503  29.340  58.262  1.00  0.00     0.159 A 
HETATM    2  N   UNL     1       8.568  28.701  57.438  1.00  0.00    -0.329 N 
HETATM    3  C   UNL     1       9.730  29.468  57.308  1.00  0.00     0.273 A 
HETATM    4  O   UNL     1      10.751  29.206  56.700  1.00  0.00    -0.266 OA
HETATM    5  C   UNL     1       9.459  30.605  58.100  1.00  0.00     0.129 A 
HETATM    6  C   UNL     1       8.230  30.559  58.691  1.00  0.00     0.034 A 
HETATM    7  N   UNL     1      10.069  31.731  58.494  1.00  0.00    -0.272 N 
HETATM    8  H   UNL     1      10.989  32.084  58.248  1.00  0.00     0.189 HD
HETATM    9  N   UNL     1       9.292  32.440  59.354  1.00  0.00    -0.173 NA
HETATM   10  C   UNL     1       8.178  31.682  59.534  1.00  0.00     0.101 A 
ENDROOT
BRANCH   1  11
HETATM   11  C   UNL     1       6.308  29.809  57.457  1.00  0.00    -0.028 A 
HETATM   12  C   UNL     1       6.298  31.044  56.771  1.00  0.00     0.046 A 
HETATM   13  C   UNL     1       5.176  31.466  56.055  1.00  0.00     0.069 A 
HETATM   14  C   UNL     1       4.043  30.653  56.024  1.00  0.00     0.037 A 
HETATM   15  C   UNL     1       4.030  29.431  56.692  1.00  0.00     0.003 A 
HETATM   16  C   UNL     1       5.155  29.009  57.399  1.00  0.00     0.010 A 
BRANCH  13  17
HETATM   17  O   UNL     1       5.058  32.637  55.356  1.00  0.00    -0.348 OA
BRANCH  17  18
HETATM   18  C   UNL     1       4.100  33.584  55.825  1.00  0.00     0.202 C 
BRANCH  18  19
HETATM   19  C   UNL     1       4.686  34.263  57.027  1.00  0.00    -0.011 C 
HETATM   20  C   UNL     1       3.974  34.910  57.959  1.00  0.00     0.009 C 
ENDBRANCH  18  19
ENDBRANCH  17  18
ENDBRANCH  13  17
ENDBRANCH   1  11
BRANCH   2  21
HETATM   21  C   UNL     1       8.459  27.341  56.949  1.00  0.00     0.167 C 
BRANCH  21  22
HETATM   22  C   UNL     1       7.644  27.203  55.690  1.00  0.00    -0.023 A 
HETATM   23  C   UNL     1       6.711  26.174  55.585  1.00  0.00     0.125 A 
HETATM   24  N   UNL     1       5.899  25.981  54.520  1.00  0.00    -0.273 NA
HETATM   25  C   UNL     1       6.002  26.869  53.510  1.00  0.00     0.116 A 
HETATM   26  C   UNL     1       6.879  27.938  53.516  1.00  0.00     0.020 A 
HETATM   27  C   UNL     1       7.702  28.111  54.625  1.00  0.00     0.012 A 
ENDBRANCH  21  22
ENDBRANCH   2  21
BRANCH  10  28
HETATM   28  C   UNL     1       7.150  32.090  60.493  1.00  0.00     0.028 A 
HETATM   29  C   UNL     1       7.421  32.165  61.871  1.00  0.00     0.078 A 
HETATM   30  C   UNL     1       6.444  32.567  62.780  1.00  0.00     0.037 A 
HETATM   31  C   UNL     1       5.163  32.876  62.329  1.00  0.00     0.003 A 
HETATM   32  C   UNL     1       4.862  32.777  60.972  1.00  0.00     0.001 A 
HETATM   33  C   UNL     1       5.847  32.384  60.060  1.00  0.00     0.017 A 
BRANCH  29  34
HETATM   34  O   UNL     1       8.644  31.837  62.397  1.00  0.00    -0.360 OA
HETATM   35  H   UNL     1       8.576  32.002  63.365  1.00  0.00     0.217 HD
ENDBRANCH  29  34
ENDBRANCH  10  28
TORSDOF 8
ENDMDL
MODEL 8
REMARK VINA RESULT:      -8.2      4.145      8.462
REMARK  8 active torsions:
REMARK  status: ('A' for Active; 'I' for Inactive)
REMARK    1  A    between atoms: C_2  and  C_3 
REMARK    2  A    between atoms: C_3  and  O_4 
REMARK    3  A    between atoms: O_4  and  C_5 
REMARK    4  A    between atoms: C_7  and  C_8 
REMARK    5  A    between atoms: N_9  and  C_10 
REMARK    6  A    between atoms: C_10  and  C_11 
REMARK    7  A    between atoms: C_24  and  C_25 
REMARK    8  A    between atoms: C_26  and  O_27 
ROOT
HETATM    1  C   UNL     1       7.052  29.784  57.957  1.00  0.00     0.159 A 
HETATM    2  N   UNL     1       7.571  29.136  56.719  1.00  0.00    -0.329 N 
HETATM    3  C   UNL     1       8.853  29.555  56.347  1.00  0.00     0.273 A 
HETATM    4  O   UNL     1       9.522  29.203  55.393  1.00  0.00    -0.266 OA
HETATM    5  C   UNL     1       9.214  30.450  57.378  1.00  0.00     0.129 A 
HETATM    6  C   UNL     1       8.245  30.582  58.330  1.00  0.00     0.034 A 
HETATM    7  N   UNL     1      10.261  31.204  57.742  1.00  0.00    -0.272 N 
HETATM    8  H   UNL     1      11.149  31.342  57.268  1.00  0.00     0.189 HD
HETATM    9  N   UNL     1      10.034  31.827  58.926  1.00  0.00    -0.173 NA
HETATM   10  C   UNL     1       8.812  31.389  59.331  1.00  0.00     0.101 A 
ENDROOT
BRANCH   1  11
HETATM   11  C   UNL     1       5.933  30.774  57.702  1.00  0.00    -0.028 A 
HETATM   12  C   UNL     1       5.054  31.200  58.723  1.00  0.00     0.046 A 
HETATM   13  C   UNL     1       4.015  32.095  58.458  1.00  0.00     0.069 A 
HETATM   14  C   UNL     1       3.840  32.570  57.159  1.00  0.00     0.037 A 
HETATM   15  C   UNL     1       4.694  32.164  56.135  1.00  0.00     0.003 A 
HETATM   16  C   UNL     1       5.736  31.277  56.405  1.00  0.00     0.010 A 
BRANCH  13  17
HETATM   17  O   UNL     1       3.111  32.572  59.367  1.00  0.00    -0.348 OA
BRANCH  17  18
HETATM   18  C   UNL     1       3.498  32.560  60.740  1.00  0.00     0.202 C 
BRANCH  18  19
HETATM   19  C   UNL     1       3.367  33.960  61.260  1.00  0.00    -0.011 C 
HETATM   20  C   UNL     1       3.990  35.027  60.741  1.00  0.00     0.009 C 
ENDBRANCH  18  19
ENDBRANCH  17  18
ENDBRANCH  13  17
ENDBRANCH   1  11
BRANCH   2  21
HETATM   21  C   UNL     1       6.869  28.056  56.056  1.00  0.00     0.167 C 
BRANCH  21  22
HETATM   22  C   UNL     1       7.442  26.690  56.328  1.00  0.00    -0.023 A 
HETATM   23  C   UNL     1       7.885  26.375  57.611  1.00  0.00     0.125 A 
HETATM   24  N   UNL     1       8.378  25.170  57.976  1.00  0.00    -0.273 NA
HETATM   25  C   UNL     1       8.417  24.215  57.024  1.00  0.00     0.116 A 
HETATM   26  C   UNL     1       7.986  24.413  55.724  1.00  0.00     0.020 A 
HETATM   27  C   UNL     1       7.483  25.663  55.378  1.00  0.00     0.012 A 
ENDBRANCH  21  22
ENDBRANCH   2  21
BRANCH  10  28
HETATM   28  C   UNL     1       8.279  31.777  60.638  1.00  0.00     0.028 A 
HETATM   29  C   UNL     1       8.483  30.981  61.778  1.00  0.00     0.078 A 
HETATM   30  C   UNL     1       7.986  31.360  63.024  1.00  0.00     0.037 A 
HETATM   31  C   UNL     1       7.249  32.535  63.148  1.00  0.00     0.003 A 
HETATM   32  C   UNL     1       7.006  33.324  62.025  1.00  0.00     0.001 A 
HETATM   33  C   UNL     1       7.515  32.947  60.778  1.00  0.00     0.017 A 
BRANCH  29  34
HETATM   34  O   UNL     1       9.161  29.789  61.731  1.00  0.00    -0.360 OA
HETATM   35  H   UNL     1      10.117  30.021  61.744  1.00  0.00     0.217 HD
ENDBRANCH  29  34
ENDBRANCH  10  28
TORSDOF 8
ENDMDL
MODEL 9
REMARK VINA RESULT:      -7.9      8.032     11.456
REMARK  8 active torsions:
REMARK  status: ('A' for Active; 'I' for Inactive)
REMARK    1  A    between atoms: C_2  and  C_3 
REMARK    2  A    between atoms: C_3  and  O_4 
REMARK    3  A    between atoms: O_4  and  C_5 
REMARK    4  A    between atoms: C_7  and  C_8 
REMARK    5  A    between atoms: N_9  and  C_10 
REMARK    6  A    between atoms: C_10  and  C_11 
REMARK    7  A    between atoms: C_24  and  C_25 
REMARK    8  A    between atoms: C_26  and  O_27 
ROOT
HETATM    1  C   UNL     1       3.634  34.734  60.327  1.00  0.00     0.159 A 
HETATM    2  N   UNL     1       2.355  35.204  59.722  1.00  0.00    -0.329 N 
HETATM    3  C   UNL     1       1.236  35.032  60.543  1.00  0.00     0.273 A 
HETATM    4  O   UNL     1       0.075  35.319  60.316  1.00  0.00    -0.266 OA
HETATM    5  C   UNL     1       1.782  34.495  61.729  1.00  0.00     0.129 A 
HETATM    6  C   UNL     1       3.137  34.345  61.669  1.00  0.00     0.034 A 
HETATM    7  N   UNL     1       1.374  34.109  62.946  1.00  0.00    -0.272 N 
HETATM    8  H   UNL     1       0.434  34.088  63.332  1.00  0.00     0.189 HD
HETATM    9  N   UNL     1       2.420  33.722  63.720  1.00  0.00    -0.173 NA
HETATM   10  C   UNL     1       3.525  33.933  62.955  1.00  0.00     0.101 A 
ENDROOT
BRANCH   1  11
HETATM   11  C   UNL     1       4.183  33.475  59.688  1.00  0.00    -0.028 A 
HETATM   12  C   UNL     1       5.563  33.291  59.445  1.00  0.00     0.046 A 
HETATM   13  C   UNL     1       6.043  32.132  58.832  1.00  0.00     0.069 A 
HETATM   14  C   UNL     1       5.140  31.142  58.447  1.00  0.00     0.037 A 
HETATM   15  C   UNL     1       3.775  31.300  58.676  1.00  0.00     0.003 A 
HETATM   16  C   UNL     1       3.300  32.456  59.296  1.00  0.00     0.010 A 
BRANCH  13  17
HETATM   17  O   UNL     1       7.353  31.851  58.552  1.00  0.00    -0.348 OA
BRANCH  17  18
HETATM   18  C   UNL     1       8.099  31.158  59.551  1.00  0.00     0.202 C 
BRANCH  18  19
HETATM   19  C   UNL     1       8.963  32.165  60.250  1.00  0.00    -0.011 C 
HETATM   20  C   UNL     1       9.795  31.883  61.261  1.00  0.00     0.009 C 
ENDBRANCH  18  19
ENDBRANCH  17  18
ENDBRANCH  13  17
ENDBRANCH   1  11
BRANCH   2  21
HETATM   21  C   UNL     1       2.309  35.915  58.461  1.00  0.00     0.167 C 
BRANCH  21  22
HETATM   22  C   UNL     1       3.253  37.086  58.380  1.00  0.00    -0.023 A 
HETATM   23  C   UNL     1       3.019  38.212  59.167  1.00  0.00     0.125 A 
HETATM   24  N   UNL     1       3.821  39.301  59.205  1.00  0.00    -0.273 NA
HETATM   25  C   UNL     1       4.927  39.267  58.434  1.00  0.00     0.116 A 
HETATM   26  C   UNL     1       5.267  38.195  57.629  1.00  0.00     0.020 A 
HETATM   27  C   UNL     1       4.422  37.088  57.611  1.00  0.00     0.012 A 
ENDBRANCH  21  22
ENDBRANCH   2  21
BRANCH  10  28
HETATM   28  C   UNL     1       4.863  33.721  63.511  1.00  0.00     0.028 A 
HETATM   29  C   UNL     1       5.309  34.431  64.638  1.00  0.00     0.078 A 
HETATM   30  C   UNL     1       6.578  34.218  65.173  1.00  0.00     0.037 A 
HETATM   31  C   UNL     1       7.440  33.305  64.569  1.00  0.00     0.003 A 
HETATM   32  C   UNL     1       7.032  32.613  63.430  1.00  0.00     0.001 A 
HETATM   33  C   UNL     1       5.753  32.821  62.902  1.00  0.00     0.017 A 
BRANCH  29  34
HETATM   34  O   UNL     1       4.537  35.377  65.264  1.00  0.00    -0.360 OA
HETATM   35  H   UNL     1       3.645  35.314  64.852  1.00  0.00     0.217 HD
ENDBRANCH  29  34
ENDBRANCH  10  28
TORSDOF 8
ENDMDL
MODEL 10
REMARK VINA RESULT:      -7.9      7.501     10.676
REMARK  8 active torsions:
REMARK  status: ('A' for Active; 'I' for Inactive)
REMARK    1  A    between atoms: C_2  and  C_3 
REMARK    2  A    between atoms: C_3  and  O_4 
REMARK    3  A    between atoms: O_4  and  C_5 
REMARK    4  A    between atoms: C_7  and  C_8 
REMARK    5  A    between atoms: N_9  and  C_10 
REMARK    6  A    between atoms: C_10  and  C_11 
REMARK    7  A    between atoms: C_24  and  C_25 
REMARK    8  A    between atoms: C_26  and  O_27 
ROOT
HETATM    1  C   UNL     1       3.804  34.695  60.191  1.00  0.00     0.159 A 
HETATM    2  N   UNL     1       2.541  35.217  59.596  1.00  0.00    -0.329 N 
HETATM    3  C   UNL     1       1.423  35.094  60.428  1.00  0.00     0.273 A 
HETATM    4  O   UNL     1       0.273  35.429  60.210  1.00  0.00    -0.266 OA
HETATM    5  C   UNL     1       1.956  34.536  61.610  1.00  0.00     0.129 A 
HETATM    6  C   UNL     1       3.303  34.329  61.538  1.00  0.00     0.034 A 
HETATM    7  N   UNL     1       1.543  34.171  62.831  1.00  0.00    -0.272 N 
HETATM    8  H   UNL     1       0.607  34.190  63.226  1.00  0.00     0.189 HD
HETATM    9  N   UNL     1       2.579  33.741  63.597  1.00  0.00    -0.173 NA
HETATM   10  C   UNL     1       3.685  33.904  62.822  1.00  0.00     0.101 A 
ENDROOT
BRANCH   1  11
HETATM   11  C   UNL     1       4.295  33.412  59.550  1.00  0.00    -0.028 A 
HETATM   12  C   UNL     1       5.662  33.176  59.284  1.00  0.00     0.046 A 
HETATM   13  C   UNL     1       6.087  31.996  58.669  1.00  0.00     0.069 A 
HETATM   14  C   UNL     1       5.141  31.038  58.307  1.00  0.00     0.037 A 
HETATM   15  C   UNL     1       3.787  31.249  58.559  1.00  0.00     0.003 A 
HETATM   16  C   UNL     1       3.367  32.425  59.181  1.00  0.00     0.010 A 
BRANCH  13  17
HETATM   17  O   UNL     1       7.380  31.664  58.368  1.00  0.00    -0.348 OA
BRANCH  17  18
HETATM   18  C   UNL     1       7.936  30.533  59.035  1.00  0.00     0.202 C 
BRANCH  18  19
HETATM   19  C   UNL     1       8.485  31.006  60.348  1.00  0.00    -0.011 C 
HETATM   20  C   UNL     1       9.226  32.111  60.510  1.00  0.00     0.009 C 
ENDBRANCH  18  19
ENDBRANCH  17  18
ENDBRANCH  13  17
ENDBRANCH   1  11
BRANCH   2  21
HETATM   21  C   UNL     1       2.514  35.926  58.334  1.00  0.00     0.167 C 
BRANCH  21  22
HETATM   22  C   UNL     1       2.031  35.098  57.172  1.00  0.00    -0.023 A 
HETATM   23  C   UNL     1       0.689  35.153  56.801  1.00  0.00     0.125 A 
HETATM   24  N   UNL     1       0.157  34.485  55.752  1.00  0.00    -0.273 NA
HETATM   25  C   UNL     1       1.003  33.735  55.017  1.00  0.00     0.116 A 
HETATM   26  C   UNL     1       2.356  33.623  55.284  1.00  0.00     0.020 A 
HETATM   27  C   UNL     1       2.875  34.322  56.369  1.00  0.00     0.012 A 
ENDBRANCH  21  22
ENDBRANCH   2  21
BRANCH  10  28
HETATM   28  C   UNL     1       5.018  33.637  63.366  1.00  0.00     0.028 A 
HETATM   29  C   UNL     1       5.713  32.455  63.055  1.00  0.00     0.078 A 
HETATM   30  C   UNL     1       6.987  32.210  63.564  1.00  0.00     0.037 A 
HETATM   31  C   UNL     1       7.581  33.134  64.420  1.00  0.00     0.003 A 
HETATM   32  C   UNL     1       6.898  34.298  64.768  1.00  0.00     0.001 A 
HETATM   33  C   UNL     1       5.623  34.547  64.247  1.00  0.00     0.017 A 
BRANCH  29  34
HETATM   34  O   UNL     1       5.179  31.478  62.255  1.00  0.00    -0.360 OA
HETATM   35  H   UNL     1       4.259  31.765  62.054  1.00  0.00     0.217 HD
ENDBRANCH  29  34
ENDBRANCH  10  28
TORSDOF 8
ENDMDL
