MODEL 1
REMARK VINA RESULT:      -9.2      0.000      0.000
REMARK  6 active torsions:
REMARK  status: ('A' for Active; 'I' for Inactive)
REMARK    1  A    between atoms: C_2  and  N_3 
REMARK       I    between atoms: N_3  and  C_4 
REMARK    2  A    between atoms: C_4  and  C_5 
REMARK    3  A    between atoms: C_5  and  O_6 
REMARK    4  A    between atoms: O_6  and  C_7 
REMARK    5  A    between atoms: C_10  and  N_11 
REMARK       I    between atoms: N_11  and  C_12 
REMARK    6  A    between atoms: C_12  and  C_13 
ROOT
HETATM    1  N   UNL     1       7.774  27.468  55.643  1.00  0.00    -0.322 N 
HETATM    2  C   UNL     1       7.425  26.160  55.923  1.00  0.00     0.277 C 
HETATM    3  O   UNL     1       7.098  25.714  57.018  1.00  0.00    -0.266 OA
HETATM    4  H   UNL     1       7.981  27.626  54.660  1.00  0.00     0.169 HD
ENDROOT
BRANCH   1   5
HETATM    5  C   UNL     1       7.981  28.525  56.544  1.00  0.00     0.035 A 
HETATM    6  C   UNL     1       9.246  28.939  56.972  1.00  0.00     0.032 A 
HETATM    7  C   UNL     1       9.381  30.054  57.806  1.00  0.00     0.039 A 
HETATM    8  C   UNL     1       8.250  30.758  58.206  1.00  0.00     0.069 A 
HETATM    9  C   UNL     1       6.981  30.327  57.833  1.00  0.00     0.039 A 
HETATM   10  C   UNL     1       6.849  29.215  56.996  1.00  0.00     0.032 A 
BRANCH   8  11
HETATM   11  O   UNL     1       8.370  31.859  59.007  1.00  0.00    -0.342 OA
BRANCH  11  12
HETATM   12  C   UNL     1       9.504  31.732  59.872  1.00  0.00     0.278 C 
BRANCH  12  13
HETATM   13  C   UNL     1       9.126  31.335  61.300  1.00  0.00     0.241 C 
HETATM   14  N   UNL     1       8.315  32.249  61.943  1.00  0.00    -0.360 N 
HETATM   15  H   UNL     1       7.866  32.938  61.345  1.00  0.00     0.162 HD
HETATM   16  O   UNL     1       9.548  30.312  61.832  1.00  0.00    -0.271 OA
BRANCH  14  17
HETATM   17  C   UNL     1       7.740  31.955  63.238  1.00  0.00     0.118 C 
HETATM   18  C   UNL     1       7.769  33.169  64.144  1.00  0.00     0.026 C 
ENDBRANCH  14  17
ENDBRANCH  12  13
ENDBRANCH  11  12
ENDBRANCH   8  11
ENDBRANCH   1   5
BRANCH   2  19
HETATM   19  C   UNL     1       7.522  25.303  54.726  1.00  0.00     0.157 A 
HETATM   20  N   UNL     1       7.572  25.831  53.482  1.00  0.00    -0.168 NA
HETATM   21  N   UNL     1       7.704  24.755  52.684  1.00  0.00    -0.277 N 
HETATM   22  H   UNL     1       7.767  24.901  51.683  1.00  0.00     0.189 HD
HETATM   23  C   UNL     1       7.760  23.560  53.348  1.00  0.00     0.063 A 
HETATM   24  C   UNL     1       7.625  23.881  54.693  1.00  0.00     0.029 A 
HETATM   25  C   UNL     1       7.925  22.250  52.890  1.00  0.00     0.032 A 
HETATM   26  C   UNL     1       7.648  22.842  55.644  1.00  0.00     0.023 A 
HETATM   27  C   UNL     1       7.802  21.513  55.217  1.00  0.00    -0.061 A 
HETATM   28  C   UNL     1       7.951  21.235  53.853  1.00  0.00     0.009 A 
HETATM   29  C   UNL     1       7.869  20.410  56.235  1.00  0.00     0.048 C 
ENDBRANCH   2  19
TORSDOF 6
ENDMDL
MODEL 2
REMARK VINA RESULT:      -9.2      5.396      9.031
REMARK  6 active torsions:
REMARK  status: ('A' for Active; 'I' for Inactive)
REMARK    1  A    between atoms: C_2  and  N_3 
REMARK       I    between atoms: N_3  and  C_4 
REMARK    2  A    between atoms: C_4  and  C_5 
REMARK    3  A    between atoms: C_5  and  O_6 
REMARK    4  A    between atoms: O_6  and  C_7 
REMARK    5  A    between atoms: C_10  and  N_11 
REMARK       I    between atoms: N_11  and  C_12 
REMARK    6  A    between atoms: C_12  and  C_13 
ROOT
HETATM    1  N   UNL     1       6.175  25.193  54.256  1.00  0.00    -0.322 N 
HETATM    2  C   UNL     1       7.226  25.551  55.080  1.00  0.00     0.277 C 
HETATM    3  O   UNL     1       7.751  26.657  55.149  1.00  0.00    -0.266 OA
HETATM    4  H   UNL     1       5.876  24.229  54.384  1.00  0.00     0.169 HD
ENDROOT
BRANCH   1   5
HETATM    5  C   UNL     1       5.584  25.942  53.226  1.00  0.00     0.035 A 
HETATM    6  C   UNL     1       4.790  27.070  53.447  1.00  0.00     0.032 A 
HETATM    7  C   UNL     1       4.303  27.816  52.369  1.00  0.00     0.039 A 
HETATM    8  C   UNL     1       4.617  27.436  51.069  1.00  0.00     0.069 A 
HETATM    9  C   UNL     1       5.361  26.285  50.829  1.00  0.00     0.039 A 
HETATM   10  C   UNL     1       5.850  25.544  51.909  1.00  0.00     0.032 A 
BRANCH   8  11
HETATM   11  O   UNL     1       4.162  28.166  50.006  1.00  0.00    -0.342 OA
BRANCH  11  12
HETATM   12  C   UNL     1       4.559  27.560  48.770  1.00  0.00     0.278 C 
BRANCH  12  13
HETATM   13  C   UNL     1       3.375  27.059  47.943  1.00  0.00     0.241 C 
HETATM   14  N   UNL     1       2.141  27.367  48.480  1.00  0.00    -0.360 N 
HETATM   15  H   UNL     1       2.141  28.079  49.205  1.00  0.00     0.162 HD
HETATM   16  O   UNL     1       3.522  26.404  46.914  1.00  0.00    -0.271 OA
BRANCH  14  17
HETATM   17  C   UNL     1       0.922  27.104  47.748  1.00  0.00     0.118 C 
HETATM   18  C   UNL     1       0.537  28.279  46.873  1.00  0.00     0.026 C 
ENDBRANCH  14  17
ENDBRANCH  12  13
ENDBRANCH  11  12
ENDBRANCH   8  11
ENDBRANCH   1   5
BRANCH   2  19
HETATM   19  C   UNL     1       7.701  24.409  55.884  1.00  0.00     0.157 A 
HETATM   20  N   UNL     1       7.858  24.504  57.223  1.00  0.00    -0.168 NA
HETATM   21  N   UNL     1       8.249  23.269  57.588  1.00  0.00    -0.277 N 
HETATM   22  H   UNL     1       8.429  23.090  58.569  1.00  0.00     0.189 HD
HETATM   23  C   UNL     1       8.336  22.375  56.556  1.00  0.00     0.063 A 
HETATM   24  C   UNL     1       7.999  23.095  55.418  1.00  0.00     0.029 A 
HETATM   25  C   UNL     1       8.665  21.017  56.530  1.00  0.00     0.032 A 
HETATM   26  C   UNL     1       7.994  22.434  54.173  1.00  0.00     0.023 A 
HETATM   27  C   UNL     1       8.330  21.072  54.110  1.00  0.00    -0.061 A 
HETATM   28  C   UNL     1       8.647  20.379  55.284  1.00  0.00     0.009 A 
HETATM   29  C   UNL     1       8.283  20.357  52.789  1.00  0.00     0.048 C 
ENDBRANCH   2  19
TORSDOF 6
ENDMDL
MODEL 3
REMARK VINA RESULT:      -8.8      6.594     10.188
REMARK  6 active torsions:
REMARK  status: ('A' for Active; 'I' for Inactive)
REMARK    1  A    between atoms: C_2  and  N_3 
REMARK       I    between atoms: N_3  and  C_4 
REMARK    2  A    between atoms: C_4  and  C_5 
REMARK    3  A    between atoms: C_5  and  O_6 
REMARK    4  A    between atoms: O_6  and  C_7 
REMARK    5  A    between atoms: C_10  and  N_11 
REMARK       I    between atoms: N_11  and  C_12 
REMARK    6  A    between atoms: C_12  and  C_13 
ROOT
HETATM    1  N   UNL     1       5.866  26.181  52.113  1.00  0.00    -0.322 N 
HETATM    2  C   UNL     1       5.454  25.287  53.086  1.00  0.00     0.277 C 
HETATM    3  O   UNL     1       4.332  24.805  53.199  1.00  0.00    -0.266 OA
HETATM    4  H   UNL     1       6.850  26.429  52.190  1.00  0.00     0.169 HD
ENDROOT
BRANCH   1   5
HETATM    5  C   UNL     1       5.085  26.843  51.154  1.00  0.00     0.035 A 
HETATM    6  C   UNL     1       4.554  28.123  51.338  1.00  0.00     0.032 A 
HETATM    7  C   UNL     1       3.855  28.756  50.305  1.00  0.00     0.039 A 
HETATM    8  C   UNL     1       3.694  28.109  49.084  1.00  0.00     0.069 A 
HETATM    9  C   UNL     1       4.169  26.815  48.902  1.00  0.00     0.039 A 
HETATM   10  C   UNL     1       4.871  26.187  49.935  1.00  0.00     0.032 A 
BRANCH   8  11
HETATM   11  O   UNL     1       3.027  28.723  48.060  1.00  0.00    -0.342 OA
BRANCH  11  12
HETATM   12  C   UNL     1       2.648  27.769  47.061  1.00  0.00     0.278 C 
BRANCH  12  13
HETATM   13  C   UNL     1       1.134  27.582  46.959  1.00  0.00     0.241 C 
HETATM   14  N   UNL     1       0.574  28.129  45.821  1.00  0.00    -0.360 N 
HETATM   15  H   UNL     1       1.227  28.367  45.080  1.00  0.00     0.162 HD
HETATM   16  O   UNL     1       0.478  27.029  47.839  1.00  0.00    -0.271 OA
BRANCH  14  17
HETATM   17  C   UNL     1      -0.818  27.907  45.494  1.00  0.00     0.118 C 
HETATM   18  C   UNL     1      -1.678  29.084  45.907  1.00  0.00     0.026 C 
ENDBRANCH  14  17
ENDBRANCH  12  13
ENDBRANCH  11  12
ENDBRANCH   8  11
ENDBRANCH   1   5
BRANCH   2  19
HETATM   19  C   UNL     1       6.537  24.984  54.040  1.00  0.00     0.157 A 
HETATM   20  N   UNL     1       6.825  25.815  55.068  1.00  0.00    -0.168 NA
HETATM   21  N   UNL     1       7.815  25.180  55.722  1.00  0.00    -0.277 N 
HETATM   22  H   UNL     1       8.204  25.617  56.550  1.00  0.00     0.189 HD
HETATM   23  C   UNL     1       8.170  23.975  55.182  1.00  0.00     0.063 A 
HETATM   24  C   UNL     1       7.362  23.822  54.064  1.00  0.00     0.029 A 
HETATM   25  C   UNL     1       9.109  23.019  55.581  1.00  0.00     0.032 A 
HETATM   26  C   UNL     1       7.493  22.654  53.286  1.00  0.00     0.023 A 
HETATM   27  C   UNL     1       8.434  21.678  53.653  1.00  0.00    -0.061 A 
HETATM   28  C   UNL     1       9.217  21.864  54.798  1.00  0.00     0.009 A 
HETATM   29  C   UNL     1       8.543  20.414  52.848  1.00  0.00     0.048 C 
ENDBRANCH   2  19
TORSDOF 6
ENDMDL
MODEL 4
REMARK VINA RESULT:      -8.5      5.427      7.958
REMARK  6 active torsions:
REMARK  status: ('A' for Active; 'I' for Inactive)
REMARK    1  A    between atoms: C_2  and  N_3 
REMARK       I    between atoms: N_3  and  C_4 
REMARK    2  A    between atoms: C_4  and  C_5 
REMARK    3  A    between atoms: C_5  and  O_6 
REMARK    4  A    between atoms: O_6  and  C_7 
REMARK    5  A    between atoms: C_10  and  N_11 
REMARK       I    between atoms: N_11  and  C_12 
REMARK    6  A    between atoms: C_12  and  C_13 
ROOT
HETATM    1  N   UNL     1       5.996  25.523  54.020  1.00  0.00    -0.322 N 
HETATM    2  C   UNL     1       7.139  25.833  54.736  1.00  0.00     0.277 C 
HETATM    3  O   UNL     1       7.789  26.869  54.651  1.00  0.00    -0.266 OA
HETATM    4  H   UNL     1       5.600  24.620  54.270  1.00  0.00     0.169 HD
ENDROOT
BRANCH   1   5
HETATM    5  C   UNL     1       5.420  26.230  52.953  1.00  0.00     0.035 A 
HETATM    6  C   UNL     1       4.672  27.400  53.113  1.00  0.00     0.032 A 
HETATM    7  C   UNL     1       4.199  28.097  51.997  1.00  0.00     0.039 A 
HETATM    8  C   UNL     1       4.481  27.626  50.719  1.00  0.00     0.069 A 
HETATM    9  C   UNL     1       5.178  26.435  50.542  1.00  0.00     0.039 A 
HETATM   10  C   UNL     1       5.653  25.743  51.660  1.00  0.00     0.032 A 
BRANCH   8  11
HETATM   11  O   UNL     1       4.040  28.308  49.619  1.00  0.00    -0.342 OA
BRANCH  11  12
HETATM   12  C   UNL     1       5.144  28.848  48.883  1.00  0.00     0.278 C 
BRANCH  12  13
HETATM   13  C   UNL     1       5.478  30.287  49.278  1.00  0.00     0.241 C 
HETATM   14  N   UNL     1       4.517  31.209  48.913  1.00  0.00    -0.360 N 
HETATM   15  H   UNL     1       3.612  30.824  48.657  1.00  0.00     0.162 HD
HETATM   16  O   UNL     1       6.532  30.589  49.832  1.00  0.00    -0.271 OA
BRANCH  14  17
HETATM   17  C   UNL     1       4.604  32.587  49.347  1.00  0.00     0.118 C 
HETATM   18  C   UNL     1       5.276  33.454  48.302  1.00  0.00     0.026 C 
ENDBRANCH  14  17
ENDBRANCH  12  13
ENDBRANCH  11  12
ENDBRANCH   8  11
ENDBRANCH   1   5
BRANCH   2  19
HETATM   19  C   UNL     1       7.538  24.729  55.628  1.00  0.00     0.157 A 
HETATM   20  N   UNL     1       7.635  24.901  56.965  1.00  0.00    -0.168 NA
HETATM   21  N   UNL     1       7.969  23.679  57.421  1.00  0.00    -0.277 N 
HETATM   22  H   UNL     1       8.097  23.555  58.419  1.00  0.00     0.189 HD
HETATM   23  C   UNL     1       8.076  22.722  56.450  1.00  0.00     0.063 A 
HETATM   24  C   UNL     1       7.817  23.381  55.255  1.00  0.00     0.029 A 
HETATM   25  C   UNL     1       8.363  21.356  56.521  1.00  0.00     0.032 A 
HETATM   26  C   UNL     1       7.849  22.646  54.054  1.00  0.00     0.023 A 
HETATM   27  C   UNL     1       8.145  21.273  54.088  1.00  0.00    -0.061 A 
HETATM   28  C   UNL     1       8.383  20.644  55.316  1.00  0.00     0.009 A 
HETATM   29  C   UNL     1       8.137  20.481  52.812  1.00  0.00     0.048 C 
ENDBRANCH   2  19
TORSDOF 6
ENDMDL
MODEL 5
REMARK VINA RESULT:      -8.1      1.759      2.288
REMARK  6 active torsions:
REMARK  status: ('A' for Active; 'I' for Inactive)
REMARK    1  A    between atoms: C_2  and  N_3 
REMARK       I    between atoms: N_3  and  C_4 
REMARK    2  A    between atoms: C_4  and  C_5 
REMARK    3  A    between atoms: C_5  and  O_6 
REMARK    4  A    between atoms: O_6  and  C_7 
REMARK    5  A    between atoms: C_10  and  N_11 
REMARK       I    between atoms: N_11  and  C_12 
REMARK    6  A    between atoms: C_12  and  C_13 
ROOT
HETATM    1  N   UNL     1       7.330  29.010  56.138  1.00  0.00    -0.322 N 
HETATM    2  C   UNL     1       6.672  27.795  56.076  1.00  0.00     0.277 C 
HETATM    3  O   UNL     1       6.150  27.204  57.015  1.00  0.00    -0.266 OA
HETATM    4  H   UNL     1       7.662  29.332  55.232  1.00  0.00     0.169 HD
ENDROOT
BRANCH   1   5
HETATM    5  C   UNL     1       7.681  29.752  57.277  1.00  0.00     0.035 A 
HETATM    6  C   UNL     1       8.939  29.691  57.883  1.00  0.00     0.032 A 
HETATM    7  C   UNL     1       9.245  30.521  58.965  1.00  0.00     0.039 A 
HETATM    8  C   UNL     1       8.293  31.419  59.437  1.00  0.00     0.069 A 
HETATM    9  C   UNL     1       7.019  31.455  58.881  1.00  0.00     0.039 A 
HETATM   10  C   UNL     1       6.717  30.626  57.796  1.00  0.00     0.032 A 
BRANCH   8  11
HETATM   11  O   UNL     1       8.585  32.249  60.484  1.00  0.00    -0.342 OA
BRANCH  11  12
HETATM   12  C   UNL     1       8.180  31.657  61.724  1.00  0.00     0.278 C 
BRANCH  12  13
HETATM   13  C   UNL     1       7.651  32.681  62.730  1.00  0.00     0.241 C 
HETATM   14  N   UNL     1       6.654  33.496  62.233  1.00  0.00    -0.360 N 
HETATM   15  H   UNL     1       6.217  33.182  61.371  1.00  0.00     0.162 HD
HETATM   16  O   UNL     1       8.111  32.787  63.864  1.00  0.00    -0.271 OA
BRANCH  14  17
HETATM   17  C   UNL     1       5.939  34.410  63.096  1.00  0.00     0.118 C 
HETATM   18  C   UNL     1       5.731  35.754  62.426  1.00  0.00     0.026 C 
ENDBRANCH  14  17
ENDBRANCH  12  13
ENDBRANCH  11  12
ENDBRANCH   8  11
ENDBRANCH   1   5
BRANCH   2  19
HETATM   19  C   UNL     1       6.690  27.235  54.711  1.00  0.00     0.157 A 
HETATM   20  N   UNL     1       6.269  27.956  53.647  1.00  0.00    -0.168 NA
HETATM   21  N   UNL     1       6.483  27.136  52.602  1.00  0.00    -0.277 N 
HETATM   22  H   UNL     1       6.242  27.464  51.674  1.00  0.00     0.189 HD
HETATM   23  C   UNL     1       7.037  25.929  52.932  1.00  0.00     0.063 A 
HETATM   24  C   UNL     1       7.171  25.953  54.314  1.00  0.00     0.029 A 
HETATM   25  C   UNL     1       7.435  24.844  52.146  1.00  0.00     0.032 A 
HETATM   26  C   UNL     1       7.726  24.832  54.962  1.00  0.00     0.023 A 
HETATM   27  C   UNL     1       8.126  23.720  54.203  1.00  0.00    -0.061 A 
HETATM   28  C   UNL     1       7.989  23.744  52.810  1.00  0.00     0.009 A 
HETATM   29  C   UNL     1       8.757  22.542  54.889  1.00  0.00     0.048 C 
ENDBRANCH   2  19
TORSDOF 6
ENDMDL
MODEL 6
REMARK VINA RESULT:      -8.1      6.170      9.220
REMARK  6 active torsions:
REMARK  status: ('A' for Active; 'I' for Inactive)
REMARK    1  A    between atoms: C_2  and  N_3 
REMARK       I    between atoms: N_3  and  C_4 
REMARK    2  A    between atoms: C_4  and  C_5 
REMARK    3  A    between atoms: C_5  and  O_6 
REMARK    4  A    between atoms: O_6  and  C_7 
REMARK    5  A    between atoms: C_10  and  N_11 
REMARK       I    between atoms: N_11  and  C_12 
REMARK    6  A    between atoms: C_12  and  C_13 
ROOT
HETATM    1  N   UNL     1       4.821  25.831  50.615  1.00  0.00    -0.322 N 
HETATM    2  C   UNL     1       4.751  26.865  49.700  1.00  0.00     0.277 C 
HETATM    3  O   UNL     1       5.405  27.902  49.724  1.00  0.00    -0.266 OA
HETATM    4  H   UNL     1       4.210  25.051  50.386  1.00  0.00     0.169 HD
ENDROOT
BRANCH   1   5
HETATM    5  C   UNL     1       5.519  25.794  51.833  1.00  0.00     0.035 A 
HETATM    6  C   UNL     1       6.876  25.480  51.938  1.00  0.00     0.032 A 
HETATM    7  C   UNL     1       7.525  25.545  53.175  1.00  0.00     0.039 A 
HETATM    8  C   UNL     1       6.815  25.931  54.307  1.00  0.00     0.069 A 
HETATM    9  C   UNL     1       5.451  26.195  54.230  1.00  0.00     0.039 A 
HETATM   10  C   UNL     1       4.807  26.133  52.991  1.00  0.00     0.032 A 
BRANCH   8  11
HETATM   11  O   UNL     1       7.441  26.015  55.520  1.00  0.00    -0.342 OA
BRANCH  11  12
HETATM   12  C   UNL     1       6.943  25.014  56.415  1.00  0.00     0.278 C 
BRANCH  12  13
HETATM   13  C   UNL     1       7.969  23.923  56.722  1.00  0.00     0.241 C 
HETATM   14  N   UNL     1       7.716  22.718  56.096  1.00  0.00    -0.360 N 
HETATM   15  H   UNL     1       7.047  22.751  55.332  1.00  0.00     0.162 HD
HETATM   16  O   UNL     1       8.908  24.101  57.494  1.00  0.00    -0.271 OA
BRANCH  14  17
HETATM   17  C   UNL     1       8.670  21.632  56.155  1.00  0.00     0.118 C 
HETATM   18  C   UNL     1       7.981  20.285  56.071  1.00  0.00     0.026 C 
ENDBRANCH  14  17
ENDBRANCH  12  13
ENDBRANCH  11  12
ENDBRANCH   8  11
ENDBRANCH   1   5
BRANCH   2  19
HETATM   19  C   UNL     1       3.739  26.603  48.659  1.00  0.00     0.157 A 
HETATM   20  N   UNL     1       3.675  25.412  48.021  1.00  0.00    -0.168 NA
HETATM   21  N   UNL     1       2.616  25.546  47.201  1.00  0.00    -0.277 N 
HETATM   22  H   UNL     1       2.362  24.764  46.609  1.00  0.00     0.189 HD
HETATM   23  C   UNL     1       1.981  26.754  47.288  1.00  0.00     0.063 A 
HETATM   24  C   UNL     1       2.703  27.481  48.225  1.00  0.00     0.029 A 
HETATM   25  C   UNL     1       0.847  27.256  46.644  1.00  0.00     0.032 A 
HETATM   26  C   UNL     1       2.284  28.789  48.540  1.00  0.00     0.023 A 
HETATM   27  C   UNL     1       1.154  29.328  47.902  1.00  0.00    -0.061 A 
HETATM   28  C   UNL     1       0.444  28.554  46.977  1.00  0.00     0.009 A 
HETATM   29  C   UNL     1       0.682  30.706  48.270  1.00  0.00     0.048 C 
ENDBRANCH   2  19
TORSDOF 6
ENDMDL
MODEL 7
REMARK VINA RESULT:      -8.1      2.513      3.101
REMARK  6 active torsions:
REMARK  status: ('A' for Active; 'I' for Inactive)
REMARK    1  A    between atoms: C_2  and  N_3 
REMARK       I    between atoms: N_3  and  C_4 
REMARK    2  A    between atoms: C_4  and  C_5 
REMARK    3  A    between atoms: C_5  and  O_6 
REMARK    4  A    between atoms: O_6  and  C_7 
REMARK    5  A    between atoms: C_10  and  N_11 
REMARK       I    between atoms: N_11  and  C_12 
REMARK    6  A    between atoms: C_12  and  C_13 
ROOT
HETATM    1  N   UNL     1       6.084  26.886  54.948  1.00  0.00    -0.322 N 
HETATM    2  C   UNL     1       6.003  25.538  55.247  1.00  0.00     0.277 C 
HETATM    3  O   UNL     1       5.515  25.048  56.259  1.00  0.00    -0.266 OA
HETATM    4  H   UNL     1       6.501  27.070  54.039  1.00  0.00     0.169 HD
ENDROOT
BRANCH   1   5
HETATM    5  C   UNL     1       5.779  27.980  55.774  1.00  0.00     0.035 A 
HETATM    6  C   UNL     1       6.675  28.525  56.697  1.00  0.00     0.032 A 
HETATM    7  C   UNL     1       6.333  29.668  57.427  1.00  0.00     0.039 A 
HETATM    8  C   UNL     1       5.095  30.270  57.226  1.00  0.00     0.069 A 
HETATM    9  C   UNL     1       4.171  29.710  56.350  1.00  0.00     0.039 A 
HETATM   10  C   UNL     1       4.518  28.570  55.619  1.00  0.00     0.032 A 
BRANCH   8  11
HETATM   11  O   UNL     1       4.754  31.397  57.920  1.00  0.00    -0.342 OA
BRANCH  11  12
HETATM   12  C   UNL     1       3.544  31.189  58.658  1.00  0.00     0.278 C 
BRANCH  12  13
HETATM   13  C   UNL     1       3.444  32.072  59.903  1.00  0.00     0.241 C 
HETATM   14  N   UNL     1       4.343  31.746  60.899  1.00  0.00    -0.360 N 
HETATM   15  H   UNL     1       5.113  31.145  60.619  1.00  0.00     0.162 HD
HETATM   16  O   UNL     1       2.604  32.962  60.012  1.00  0.00    -0.271 OA
BRANCH  14  17
HETATM   17  C   UNL     1       4.486  32.577  62.075  1.00  0.00     0.118 C 
HETATM   18  C   UNL     1       5.356  31.909  63.121  1.00  0.00     0.026 C 
ENDBRANCH  14  17
ENDBRANCH  12  13
ENDBRANCH  11  12
ENDBRANCH   8  11
ENDBRANCH   1   5
BRANCH   2  19
HETATM   19  C   UNL     1       6.622  24.710  54.195  1.00  0.00     0.157 A 
HETATM   20  N   UNL     1       6.769  25.167  52.932  1.00  0.00    -0.168 NA
HETATM   21  N   UNL     1       7.404  24.162  52.301  1.00  0.00    -0.277 N 
HETATM   22  H   UNL     1       7.632  24.275  51.319  1.00  0.00     0.189 HD
HETATM   23  C   UNL     1       7.691  23.085  53.094  1.00  0.00     0.063 A 
HETATM   24  C   UNL     1       7.175  23.404  54.344  1.00  0.00     0.029 A 
HETATM   25  C   UNL     1       8.357  21.887  52.828  1.00  0.00     0.032 A 
HETATM   26  C   UNL     1       7.320  22.477  55.395  1.00  0.00     0.023 A 
HETATM   27  C   UNL     1       7.975  21.257  55.158  1.00  0.00    -0.061 A 
HETATM   28  C   UNL     1       8.496  20.983  53.888  1.00  0.00     0.009 A 
HETATM   29  C   UNL     1       8.168  20.287  56.289  1.00  0.00     0.048 C 
ENDBRANCH   2  19
TORSDOF 6
ENDMDL
MODEL 8
REMARK VINA RESULT:      -8.0      2.564      9.895
REMARK  6 active torsions:
REMARK  status: ('A' for Active; 'I' for Inactive)
REMARK    1  A    between atoms: C_2  and  N_3 
REMARK       I    between atoms: N_3  and  C_4 
REMARK    2  A    between atoms: C_4  and  C_5 
REMARK    3  A    between atoms: C_5  and  O_6 
REMARK    4  A    between atoms: O_6  and  C_7 
REMARK    5  A    between atoms: C_10  and  N_11 
REMARK       I    between atoms: N_11  and  C_12 
REMARK    6  A    between atoms: C_12  and  C_13 
ROOT
HETATM    1  N   UNL     1       5.461  29.697  57.912  1.00  0.00    -0.322 N 
HETATM    2  C   UNL     1       5.381  31.053  57.654  1.00  0.00     0.277 C 
HETATM    3  O   UNL     1       5.466  31.590  56.554  1.00  0.00    -0.266 OA
HETATM    4  H   UNL     1       5.335  29.468  58.895  1.00  0.00     0.169 HD
ENDROOT
BRANCH   1   5
HETATM    5  C   UNL     1       5.802  28.662  57.026  1.00  0.00     0.035 A 
HETATM    6  C   UNL     1       4.884  28.030  56.183  1.00  0.00     0.032 A 
HETATM    7  C   UNL     1       5.311  27.065  55.267  1.00  0.00     0.039 A 
HETATM    8  C   UNL     1       6.661  26.736  55.189  1.00  0.00     0.069 A 
HETATM    9  C   UNL     1       7.580  27.317  56.057  1.00  0.00     0.039 A 
HETATM   10  C   UNL     1       7.150  28.284  56.969  1.00  0.00     0.032 A 
BRANCH   8  11
HETATM   11  O   UNL     1       7.095  25.807  54.286  1.00  0.00    -0.342 OA
BRANCH  11  12
HETATM   12  C   UNL     1       6.335  24.598  54.401  1.00  0.00     0.278 C 
BRANCH  12  13
HETATM   13  C   UNL     1       7.196  23.381  54.740  1.00  0.00     0.241 C 
HETATM   14  N   UNL     1       7.688  22.714  53.636  1.00  0.00    -0.360 N 
HETATM   15  H   UNL     1       7.641  23.222  52.757  1.00  0.00     0.162 HD
HETATM   16  O   UNL     1       7.389  23.013  55.896  1.00  0.00    -0.271 OA
BRANCH  14  17
HETATM   17  C   UNL     1       8.644  21.637  53.780  1.00  0.00     0.118 C 
HETATM   18  C   UNL     1       8.315  20.479  52.860  1.00  0.00     0.026 C 
ENDBRANCH  14  17
ENDBRANCH  12  13
ENDBRANCH  11  12
ENDBRANCH   8  11
ENDBRANCH   1   5
BRANCH   2  19
HETATM   19  C   UNL     1       5.211  31.834  58.894  1.00  0.00     0.157 A 
HETATM   20  N   UNL     1       4.013  32.355  59.242  1.00  0.00    -0.168 NA
HETATM   21  N   UNL     1       4.253  32.939  60.431  1.00  0.00    -0.277 N 
HETATM   22  H   UNL     1       3.486  33.405  60.902  1.00  0.00     0.189 HD
HETATM   23  C   UNL     1       5.538  32.807  60.879  1.00  0.00     0.063 A 
HETATM   24  C   UNL     1       6.202  32.100  59.885  1.00  0.00     0.029 A 
HETATM   25  C   UNL     1       6.159  33.231  62.057  1.00  0.00     0.032 A 
HETATM   26  C   UNL     1       7.567  31.799  60.062  1.00  0.00     0.023 A 
HETATM   27  C   UNL     1       8.224  32.220  61.230  1.00  0.00    -0.061 A 
HETATM   28  C   UNL     1       7.513  32.915  62.215  1.00  0.00     0.009 A 
HETATM   29  C   UNL     1       9.668  31.862  61.438  1.00  0.00     0.048 C 
ENDBRANCH   2  19
TORSDOF 6
ENDMDL
MODEL 9
REMARK VINA RESULT:      -8.0      2.424      9.213
REMARK  6 active torsions:
REMARK  status: ('A' for Active; 'I' for Inactive)
REMARK    1  A    between atoms: C_2  and  N_3 
REMARK       I    between atoms: N_3  and  C_4 
REMARK    2  A    between atoms: C_4  and  C_5 
REMARK    3  A    between atoms: C_5  and  O_6 
REMARK    4  A    between atoms: O_6  and  C_7 
REMARK    5  A    between atoms: C_10  and  N_11 
REMARK       I    between atoms: N_11  and  C_12 
REMARK    6  A    between atoms: C_12  and  C_13 
ROOT
HETATM    1  N   UNL     1       6.771  28.133  57.381  1.00  0.00    -0.322 N 
HETATM    2  C   UNL     1       7.242  29.312  56.830  1.00  0.00     0.277 C 
HETATM    3  O   UNL     1       7.926  29.418  55.818  1.00  0.00    -0.266 OA
HETATM    4  H   UNL     1       6.196  28.279  58.207  1.00  0.00     0.169 HD
ENDROOT
BRANCH   1   5
HETATM    5  C   UNL     1       7.085  26.815  57.013  1.00  0.00     0.035 A 
HETATM    6  C   UNL     1       8.336  26.230  57.225  1.00  0.00     0.032 A 
HETATM    7  C   UNL     1       8.552  24.885  56.910  1.00  0.00     0.039 A 
HETATM    8  C   UNL     1       7.512  24.123  56.387  1.00  0.00     0.069 A 
HETATM    9  C   UNL     1       6.276  24.704  56.119  1.00  0.00     0.039 A 
HETATM   10  C   UNL     1       6.063  26.048  56.439  1.00  0.00     0.032 A 
BRANCH   8  11
HETATM   11  O   UNL     1       7.704  22.803  56.089  1.00  0.00    -0.342 OA
BRANCH  11  12
HETATM   12  C   UNL     1       8.719  22.654  55.089  1.00  0.00     0.278 C 
BRANCH  12  13
HETATM   13  C   UNL     1       8.191  22.855  53.668  1.00  0.00     0.241 C 
HETATM   14  N   UNL     1       8.147  24.175  53.265  1.00  0.00    -0.360 N 
HETATM   15  H   UNL     1       8.680  24.827  53.833  1.00  0.00     0.162 HD
HETATM   16  O   UNL     1       7.803  21.920  52.972  1.00  0.00    -0.271 OA
BRANCH  14  17
HETATM   17  C   UNL     1       7.821  24.527  51.900  1.00  0.00     0.118 C 
HETATM   18  C   UNL     1       6.684  25.528  51.844  1.00  0.00     0.026 C 
ENDBRANCH  14  17
ENDBRANCH  12  13
ENDBRANCH  11  12
ENDBRANCH   8  11
ENDBRANCH   1   5
BRANCH   2  19
HETATM   19  C   UNL     1       6.851  30.483  57.637  1.00  0.00     0.157 A 
HETATM   20  N   UNL     1       5.864  31.317  57.240  1.00  0.00    -0.168 NA
HETATM   21  N   UNL     1       5.777  32.210  58.244  1.00  0.00    -0.277 N 
HETATM   22  H   UNL     1       5.088  32.949  58.173  1.00  0.00     0.189 HD
HETATM   23  C   UNL     1       6.644  31.987  59.277  1.00  0.00     0.063 A 
HETATM   24  C   UNL     1       7.379  30.869  58.904  1.00  0.00     0.029 A 
HETATM   25  C   UNL     1       6.834  32.654  60.490  1.00  0.00     0.032 A 
HETATM   26  C   UNL     1       8.369  30.383  59.782  1.00  0.00     0.023 A 
HETATM   27  C   UNL     1       8.593  31.037  61.005  1.00  0.00    -0.061 A 
HETATM   28  C   UNL     1       7.818  32.150  61.350  1.00  0.00     0.009 A 
HETATM   29  C   UNL     1       9.618  30.493  61.959  1.00  0.00     0.048 C 
ENDBRANCH   2  19
TORSDOF 6
ENDMDL
MODEL 10
REMARK VINA RESULT:      -7.4      2.745     10.336
REMARK  6 active torsions:
REMARK  status: ('A' for Active; 'I' for Inactive)
REMARK    1  A    between atoms: C_2  and  N_3 
REMARK       I    between atoms: N_3  and  C_4 
REMARK    2  A    between atoms: C_4  and  C_5 
REMARK    3  A    between atoms: C_5  and  O_6 
REMARK    4  A    between atoms: O_6  and  C_7 
REMARK    5  A    between atoms: C_10  and  N_11 
REMARK       I    between atoms: N_11  and  C_12 
REMARK    6  A    between atoms: C_12  and  C_13 
ROOT
HETATM    1  N   UNL     1       5.544  31.252  58.898  1.00  0.00    -0.322 N 
HETATM    2  C   UNL     1       5.416  32.583  58.544  1.00  0.00     0.277 C 
HETATM    3  O   UNL     1       5.712  33.079  57.463  1.00  0.00    -0.266 OA
HETATM    4  H   UNL     1       5.209  31.053  59.837  1.00  0.00     0.169 HD
ENDROOT
BRANCH   1   5
HETATM    5  C   UNL     1       6.169  30.218  58.182  1.00  0.00     0.035 A 
HETATM    6  C   UNL     1       7.531  29.922  58.281  1.00  0.00     0.032 A 
HETATM    7  C   UNL     1       8.069  28.824  57.602  1.00  0.00     0.039 A 
HETATM    8  C   UNL     1       7.240  28.018  56.828  1.00  0.00     0.069 A 
HETATM    9  C   UNL     1       5.893  28.330  56.675  1.00  0.00     0.039 A 
HETATM   10  C   UNL     1       5.358  29.426  57.359  1.00  0.00     0.032 A 
BRANCH   8  11
HETATM   11  O   UNL     1       7.749  26.932  56.173  1.00  0.00    -0.342 OA
BRANCH  11  12
HETATM   12  C   UNL     1       7.160  26.806  54.873  1.00  0.00     0.278 C 
BRANCH  12  13
HETATM   13  C   UNL     1       6.677  25.386  54.572  1.00  0.00     0.241 C 
HETATM   14  N   UNL     1       7.692  24.457  54.464  1.00  0.00    -0.360 N 
HETATM   15  H   UNL     1       8.596  24.746  54.828  1.00  0.00     0.162 HD
HETATM   16  O   UNL     1       5.491  25.118  54.400  1.00  0.00    -0.271 OA
BRANCH  14  17
HETATM   17  C   UNL     1       7.401  23.045  54.336  1.00  0.00     0.118 C 
HETATM   18  C   UNL     1       7.894  22.496  53.012  1.00  0.00     0.026 C 
ENDBRANCH  14  17
ENDBRANCH  12  13
ENDBRANCH  11  12
ENDBRANCH   8  11
ENDBRANCH   1   5
BRANCH   2  19
HETATM   19  C   UNL     1       4.894  33.394  59.661  1.00  0.00     0.157 A 
HETATM   20  N   UNL     1       3.739  34.088  59.550  1.00  0.00    -0.168 NA
HETATM   21  N   UNL     1       3.584  34.645  60.765  1.00  0.00    -0.277 N 
HETATM   22  H   UNL     1       2.768  35.223  60.931  1.00  0.00     0.189 HD
HETATM   23  C   UNL     1       4.569  34.334  61.661  1.00  0.00     0.063 A 
HETATM   24  C   UNL     1       5.458  33.527  60.963  1.00  0.00     0.029 A 
HETATM   25  C   UNL     1       4.745  34.678  63.004  1.00  0.00     0.032 A 
HETATM   26  C   UNL     1       6.596  33.034  61.632  1.00  0.00     0.023 A 
HETATM   27  C   UNL     1       6.809  33.370  62.979  1.00  0.00    -0.061 A 
HETATM   28  C   UNL     1       5.879  34.173  63.650  1.00  0.00     0.009 A 
HETATM   29  C   UNL     1       8.000  32.810  63.704  1.00  0.00     0.048 C 
ENDBRANCH   2  19
TORSDOF 6
ENDMDL
