MODEL 1
REMARK VINA RESULT:      -9.0      0.000      0.000
REMARK  4 active torsions:
REMARK  status: ('A' for Active; 'I' for Inactive)
REMARK    1  A    between atoms: C_5  and  C_6 
REMARK    2  A    between atoms: C_12  and  C_13 
REMARK    3  A    between atoms: C_13  and  N_14 
REMARK       I    between atoms: N_14  and  C_15 
REMARK       I    between atoms: C_15  and  N_16 
REMARK    4  A    between atoms: N_16  and  C_17 
ROOT
HETATM    1  C   UNL     1       6.674  26.463  57.103  1.00  0.00     0.168 C 
ENDROOT
BRANCH   1   2
HETATM    2  C   UNL     1       7.388  27.434  56.230  1.00  0.00     0.023 A 
HETATM    3  C   UNL     1       8.186  28.517  56.553  1.00  0.00     0.085 A 
HETATM    4  C   UNL     1       8.656  29.135  57.810  1.00  0.00     0.079 C 
HETATM    5  O   UNL     1       8.598  29.133  55.418  1.00  0.00    -0.217 OA
HETATM    6  N   UNL     1       8.080  28.488  54.322  1.00  0.00    -0.127 NA
HETATM    7  C   UNL     1       7.360  27.461  54.793  1.00  0.00     0.105 A 
BRANCH   7   8
HETATM    8  C   UNL     1       6.652  26.575  53.871  1.00  0.00    -0.004 A 
HETATM    9  C   UNL     1       5.396  26.045  54.191  1.00  0.00     0.014 A 
HETATM   10  C   UNL     1       4.730  25.211  53.289  1.00  0.00     0.001 A 
HETATM   11  C   UNL     1       5.319  24.890  52.066  1.00  0.00     0.000 A 
HETATM   12  C   UNL     1       6.577  25.396  51.746  1.00  0.00     0.001 A 
HETATM   13  C   UNL     1       7.242  26.233  52.645  1.00  0.00     0.014 A 
ENDBRANCH   7   8
ENDBRANCH   1   2
BRANCH   1  14
HETATM   14  N   UNL     1       7.576  25.476  57.651  1.00  0.00    -0.338 N 
HETATM   15  C   UNL     1       7.985  24.280  57.149  1.00  0.00     0.320 C 
HETATM   16  N   UNL     1       7.257  23.782  56.106  1.00  0.00    -0.309 N 
HETATM   17  O   UNL     1       8.964  23.760  57.674  1.00  0.00    -0.247 OA
HETATM   18  H   UNL     1       6.336  24.166  55.980  1.00  0.00     0.170 HD
HETATM   19  H   UNL     1       8.188  25.786  58.395  1.00  0.00     0.164 HD
BRANCH  16  20
HETATM   20  C   UNL     1       7.562  22.657  55.309  1.00  0.00     0.036 A 
HETATM   21  C   UNL     1       7.711  21.362  55.810  1.00  0.00     0.029 A 
HETATM   22  C   UNL     1       8.031  20.302  54.956  1.00  0.00     0.002 A 
HETATM   23  C   UNL     1       8.211  20.527  53.594  1.00  0.00     0.000 A 
HETATM   24  C   UNL     1       8.073  21.815  53.084  1.00  0.00     0.002 A 
HETATM   25  C   UNL     1       7.750  22.874  53.936  1.00  0.00     0.029 A 
ENDBRANCH  16  20
ENDBRANCH   1  14
TORSDOF 4
ENDMDL
MODEL 2
REMARK VINA RESULT:      -8.9      3.435      6.736
REMARK  4 active torsions:
REMARK  status: ('A' for Active; 'I' for Inactive)
REMARK    1  A    between atoms: C_5  and  C_6 
REMARK    2  A    between atoms: C_12  and  C_13 
REMARK    3  A    between atoms: C_13  and  N_14 
REMARK       I    between atoms: N_14  and  C_15 
REMARK       I    between atoms: C_15  and  N_16 
REMARK    4  A    between atoms: N_16  and  C_17 
ROOT
HETATM    1  C   UNL     1       7.920  29.283  58.517  1.00  0.00     0.168 C 
ENDROOT
BRANCH   1   2
HETATM    2  C   UNL     1       8.969  30.324  58.340  1.00  0.00     0.023 A 
HETATM    3  C   UNL     1       9.979  30.432  57.401  1.00  0.00     0.085 A 
HETATM    4  C   UNL     1      10.423  29.631  56.241  1.00  0.00     0.079 C 
HETATM    5  O   UNL     1      10.718  31.541  57.653  1.00  0.00    -0.217 OA
HETATM    6  N   UNL     1      10.228  32.185  58.762  1.00  0.00    -0.127 NA
HETATM    7  C   UNL     1       9.173  31.473  59.180  1.00  0.00     0.105 A 
BRANCH   7   8
HETATM    8  C   UNL     1       8.430  31.887  60.367  1.00  0.00    -0.004 A 
HETATM    9  C   UNL     1       7.124  32.385  60.271  1.00  0.00     0.014 A 
HETATM   10  C   UNL     1       6.425  32.763  61.420  1.00  0.00     0.001 A 
HETATM   11  C   UNL     1       7.029  32.658  62.673  1.00  0.00     0.000 A 
HETATM   12  C   UNL     1       8.334  32.181  62.778  1.00  0.00     0.001 A 
HETATM   13  C   UNL     1       9.033  31.799  61.631  1.00  0.00     0.014 A 
ENDBRANCH   7   8
ENDBRANCH   1   2
BRANCH   1  14
HETATM   14  N   UNL     1       6.924  29.346  57.471  1.00  0.00    -0.338 N 
HETATM   15  C   UNL     1       6.612  28.450  56.497  1.00  0.00     0.320 C 
HETATM   16  N   UNL     1       7.522  27.456  56.275  1.00  0.00    -0.309 N 
HETATM   17  O   UNL     1       5.548  28.614  55.909  1.00  0.00    -0.247 OA
HETATM   18  H   UNL     1       8.453  27.617  56.622  1.00  0.00     0.170 HD
HETATM   19  H   UNL     1       6.183  30.025  57.592  1.00  0.00     0.164 HD
BRANCH  16  20
HETATM   20  C   UNL     1       7.369  26.323  55.447  1.00  0.00     0.036 A 
HETATM   21  C   UNL     1       7.097  25.039  55.925  1.00  0.00     0.029 A 
HETATM   22  C   UNL     1       6.976  23.962  55.040  1.00  0.00     0.002 A 
HETATM   23  C   UNL     1       7.133  24.158  53.671  1.00  0.00     0.000 A 
HETATM   24  C   UNL     1       7.412  25.432  53.183  1.00  0.00     0.002 A 
HETATM   25  C   UNL     1       7.529  26.508  54.067  1.00  0.00     0.029 A 
ENDBRANCH  16  20
ENDBRANCH   1  14
TORSDOF 4
ENDMDL
MODEL 3
REMARK VINA RESULT:      -8.8      1.811      5.802
REMARK  4 active torsions:
REMARK  status: ('A' for Active; 'I' for Inactive)
REMARK    1  A    between atoms: C_5  and  C_6 
REMARK    2  A    between atoms: C_12  and  C_13 
REMARK    3  A    between atoms: C_13  and  N_14 
REMARK       I    between atoms: N_14  and  C_15 
REMARK       I    between atoms: C_15  and  N_16 
REMARK    4  A    between atoms: N_16  and  C_17 
ROOT
HETATM    1  C   UNL     1       6.352  25.044  55.420  1.00  0.00     0.168 C 
ENDROOT
BRANCH   1   2
HETATM    2  C   UNL     1       7.077  25.256  54.137  1.00  0.00     0.023 A 
HETATM    3  C   UNL     1       7.143  26.366  53.314  1.00  0.00     0.085 A 
HETATM    4  C   UNL     1       6.578  27.730  53.347  1.00  0.00     0.079 C 
HETATM    5  O   UNL     1       7.905  26.082  52.229  1.00  0.00    -0.217 OA
HETATM    6  N   UNL     1       8.350  24.785  52.297  1.00  0.00    -0.127 NA
HETATM    7  C   UNL     1       7.870  24.279  53.441  1.00  0.00     0.105 A 
BRANCH   7   8
HETATM    8  C   UNL     1       8.151  22.894  53.808  1.00  0.00    -0.004 A 
HETATM    9  C   UNL     1       8.905  22.580  54.946  1.00  0.00     0.014 A 
HETATM   10  C   UNL     1       9.151  21.248  55.286  1.00  0.00     0.001 A 
HETATM   11  C   UNL     1       8.656  20.218  54.487  1.00  0.00     0.000 A 
HETATM   12  C   UNL     1       7.921  20.519  53.342  1.00  0.00     0.001 A 
HETATM   13  C   UNL     1       7.671  21.850  53.002  1.00  0.00     0.014 A 
ENDBRANCH   7   8
ENDBRANCH   1   2
BRANCH   1  14
HETATM   14  N   UNL     1       7.265  24.924  56.534  1.00  0.00    -0.338 N 
HETATM   15  C   UNL     1       7.912  25.882  57.251  1.00  0.00     0.320 C 
HETATM   16  N   UNL     1       7.941  27.132  56.700  1.00  0.00    -0.309 N 
HETATM   17  O   UNL     1       8.409  25.540  58.318  1.00  0.00    -0.247 OA
HETATM   18  H   UNL     1       7.751  27.191  55.714  1.00  0.00     0.170 HD
HETATM   19  H   UNL     1       7.262  24.041  57.028  1.00  0.00     0.164 HD
BRANCH  16  20
HETATM   20  C   UNL     1       8.399  28.324  57.304  1.00  0.00     0.036 A 
HETATM   21  C   UNL     1       7.663  29.058  58.237  1.00  0.00     0.029 A 
HETATM   22  C   UNL     1       8.181  30.240  58.778  1.00  0.00     0.002 A 
HETATM   23  C   UNL     1       9.434  30.702  58.385  1.00  0.00     0.000 A 
HETATM   24  C   UNL     1      10.173  29.983  57.451  1.00  0.00     0.002 A 
HETATM   25  C   UNL     1       9.658  28.800  56.913  1.00  0.00     0.029 A 
ENDBRANCH  16  20
ENDBRANCH   1  14
TORSDOF 4
ENDMDL
MODEL 4
REMARK VINA RESULT:      -8.7      1.120      3.905
REMARK  4 active torsions:
REMARK  status: ('A' for Active; 'I' for Inactive)
REMARK    1  A    between atoms: C_5  and  C_6 
REMARK    2  A    between atoms: C_12  and  C_13 
REMARK    3  A    between atoms: C_13  and  N_14 
REMARK       I    between atoms: N_14  and  C_15 
REMARK       I    between atoms: C_15  and  N_16 
REMARK    4  A    between atoms: N_16  and  C_17 
ROOT
HETATM    1  C   UNL     1       6.489  26.540  56.849  1.00  0.00     0.168 C 
ENDROOT
BRANCH   1   2
HETATM    2  C   UNL     1       6.788  27.141  55.520  1.00  0.00     0.023 A 
HETATM    3  C   UNL     1       6.323  26.813  54.260  1.00  0.00     0.085 A 
HETATM    4  C   UNL     1       5.388  25.807  53.716  1.00  0.00     0.079 C 
HETATM    5  O   UNL     1       6.899  27.624  53.338  1.00  0.00    -0.217 OA
HETATM    6  N   UNL     1       7.762  28.494  53.956  1.00  0.00    -0.127 NA
HETATM    7  C   UNL     1       7.699  28.224  55.267  1.00  0.00     0.105 A 
BRANCH   7   8
HETATM    8  C   UNL     1       8.523  28.973  56.212  1.00  0.00    -0.004 A 
HETATM    9  C   UNL     1       8.013  29.395  57.447  1.00  0.00     0.014 A 
HETATM   10  C   UNL     1       8.822  30.098  58.343  1.00  0.00     0.001 A 
HETATM   11  C   UNL     1      10.143  30.395  58.009  1.00  0.00     0.000 A 
HETATM   12  C   UNL     1      10.654  29.997  56.776  1.00  0.00     0.001 A 
HETATM   13  C   UNL     1       9.848  29.291  55.880  1.00  0.00     0.014 A 
ENDBRANCH   7   8
ENDBRANCH   1   2
BRANCH   1  14
HETATM   14  N   UNL     1       7.579  25.714  57.318  1.00  0.00    -0.338 N 
HETATM   15  C   UNL     1       8.048  24.525  56.852  1.00  0.00     0.320 C 
HETATM   16  N   UNL     1       7.233  23.851  55.987  1.00  0.00    -0.309 N 
HETATM   17  O   UNL     1       9.152  24.167  57.247  1.00  0.00    -0.247 OA
HETATM   18  H   UNL     1       6.263  24.119  55.985  1.00  0.00     0.170 HD
HETATM   19  H   UNL     1       8.257  26.160  57.922  1.00  0.00     0.164 HD
BRANCH  16  20
HETATM   20  C   UNL     1       7.545  22.692  55.243  1.00  0.00     0.036 A 
HETATM   21  C   UNL     1       7.771  21.437  55.812  1.00  0.00     0.029 A 
HETATM   22  C   UNL     1       8.092  20.339  55.006  1.00  0.00     0.002 A 
HETATM   23  C   UNL     1       8.198  20.489  53.626  1.00  0.00     0.000 A 
HETATM   24  C   UNL     1       7.982  21.736  53.048  1.00  0.00     0.002 A 
HETATM   25  C   UNL     1       7.657  22.832  53.853  1.00  0.00     0.029 A 
ENDBRANCH  16  20
ENDBRANCH   1  14
TORSDOF 4
ENDMDL
MODEL 5
REMARK VINA RESULT:      -8.5      2.409      4.149
REMARK  4 active torsions:
REMARK  status: ('A' for Active; 'I' for Inactive)
REMARK    1  A    between atoms: C_5  and  C_6 
REMARK    2  A    between atoms: C_12  and  C_13 
REMARK    3  A    between atoms: C_13  and  N_14 
REMARK       I    between atoms: N_14  and  C_15 
REMARK       I    between atoms: C_15  and  N_16 
REMARK    4  A    between atoms: N_16  and  C_17 
ROOT
HETATM    1  C   UNL     1       4.888  26.250  52.734  1.00  0.00     0.168 C 
ENDROOT
BRANCH   1   2
HETATM    2  C   UNL     1       4.524  27.484  53.484  1.00  0.00     0.023 A 
HETATM    3  C   UNL     1       3.759  28.573  53.105  1.00  0.00     0.085 A 
HETATM    4  C   UNL     1       3.013  28.959  51.890  1.00  0.00     0.079 C 
HETATM    5  O   UNL     1       3.727  29.478  54.115  1.00  0.00    -0.217 OA
HETATM    6  N   UNL     1       4.472  29.023  55.174  1.00  0.00    -0.127 NA
HETATM    7  C   UNL     1       4.948  27.823  54.814  1.00  0.00     0.105 A 
BRANCH   7   8
HETATM    8  C   UNL     1       5.807  27.070  55.725  1.00  0.00    -0.004 A 
HETATM    9  C   UNL     1       5.319  25.972  56.446  1.00  0.00     0.014 A 
HETATM   10  C   UNL     1       6.161  25.257  57.301  1.00  0.00     0.001 A 
HETATM   11  C   UNL     1       7.493  25.639  57.453  1.00  0.00     0.000 A 
HETATM   12  C   UNL     1       7.984  26.740  56.755  1.00  0.00     0.001 A 
HETATM   13  C   UNL     1       7.146  27.455  55.897  1.00  0.00     0.014 A 
ENDBRANCH   7   8
ENDBRANCH   1   2
BRANCH   1  14
HETATM   14  N   UNL     1       6.315  26.157  52.522  1.00  0.00    -0.338 N 
HETATM   15  C   UNL     1       7.181  25.141  52.785  1.00  0.00     0.320 C 
HETATM   16  N   UNL     1       6.724  24.156  53.613  1.00  0.00    -0.309 N 
HETATM   17  O   UNL     1       8.287  25.201  52.259  1.00  0.00    -0.247 OA
HETATM   18  H   UNL     1       5.926  24.385  54.183  1.00  0.00     0.170 HD
HETATM   19  H   UNL     1       6.721  26.823  51.877  1.00  0.00     0.164 HD
BRANCH  16  20
HETATM   20  C   UNL     1       7.352  22.928  53.912  1.00  0.00     0.036 A 
HETATM   21  C   UNL     1       7.787  22.019  52.945  1.00  0.00     0.029 A 
HETATM   22  C   UNL     1       8.387  20.813  53.322  1.00  0.00     0.002 A 
HETATM   23  C   UNL     1       8.550  20.501  54.669  1.00  0.00     0.000 A 
HETATM   24  C   UNL     1       8.113  21.395  55.642  1.00  0.00     0.002 A 
HETATM   25  C   UNL     1       7.517  22.602  55.265  1.00  0.00     0.029 A 
ENDBRANCH  16  20
ENDBRANCH   1  14
TORSDOF 4
ENDMDL
MODEL 6
REMARK VINA RESULT:      -8.2      2.838      6.051
REMARK  4 active torsions:
REMARK  status: ('A' for Active; 'I' for Inactive)
REMARK    1  A    between atoms: C_5  and  C_6 
REMARK    2  A    between atoms: C_12  and  C_13 
REMARK    3  A    between atoms: C_13  and  N_14 
REMARK       I    between atoms: N_14  and  C_15 
REMARK       I    between atoms: C_15  and  N_16 
REMARK    4  A    between atoms: N_16  and  C_17 
ROOT
HETATM    1  C   UNL     1       5.544  25.076  54.112  1.00  0.00     0.168 C 
ENDROOT
BRANCH   1   2
HETATM    2  C   UNL     1       6.553  25.157  55.205  1.00  0.00     0.023 A 
HETATM    3  C   UNL     1       6.823  26.173  56.104  1.00  0.00     0.085 A 
HETATM    4  C   UNL     1       6.268  27.516  56.368  1.00  0.00     0.079 C 
HETATM    5  O   UNL     1       7.857  25.809  56.902  1.00  0.00    -0.217 OA
HETATM    6  N   UNL     1       8.303  24.560  56.548  1.00  0.00    -0.127 NA
HETATM    7  C   UNL     1       7.524  24.151  55.538  1.00  0.00     0.105 A 
BRANCH   7   8
HETATM    8  C   UNL     1       7.751  22.851  54.912  1.00  0.00    -0.004 A 
HETATM    9  C   UNL     1       7.769  21.672  55.669  1.00  0.00     0.014 A 
HETATM   10  C   UNL     1       7.976  20.437  55.049  1.00  0.00     0.001 A 
HETATM   11  C   UNL     1       8.177  20.371  53.671  1.00  0.00     0.000 A 
HETATM   12  C   UNL     1       8.180  21.539  52.911  1.00  0.00     0.001 A 
HETATM   13  C   UNL     1       7.970  22.774  53.528  1.00  0.00     0.014 A 
ENDBRANCH   7   8
ENDBRANCH   1   2
BRANCH   1  14
HETATM   14  N   UNL     1       4.886  26.345  53.898  1.00  0.00    -0.338 N 
HETATM   15  C   UNL     1       4.611  27.012  52.745  1.00  0.00     0.320 C 
HETATM   16  N   UNL     1       5.272  26.586  51.628  1.00  0.00    -0.309 N 
HETATM   17  O   UNL     1       3.801  27.930  52.812  1.00  0.00    -0.247 OA
HETATM   18  H   UNL     1       6.097  26.032  51.781  1.00  0.00     0.170 HD
HETATM   19  H   UNL     1       4.331  26.702  54.666  1.00  0.00     0.164 HD
BRANCH  16  20
HETATM   20  C   UNL     1       5.050  26.993  50.294  1.00  0.00     0.036 A 
HETATM   21  C   UNL     1       4.427  26.199  49.329  1.00  0.00     0.029 A 
HETATM   22  C   UNL     1       4.259  26.668  48.022  1.00  0.00     0.002 A 
HETATM   23  C   UNL     1       4.721  27.933  47.667  1.00  0.00     0.000 A 
HETATM   24  C   UNL     1       5.351  28.731  48.617  1.00  0.00     0.002 A 
HETATM   25  C   UNL     1       5.514  28.263  49.924  1.00  0.00     0.029 A 
ENDBRANCH  16  20
ENDBRANCH   1  14
TORSDOF 4
ENDMDL
MODEL 7
REMARK VINA RESULT:      -8.2      2.386      6.422
REMARK  4 active torsions:
REMARK  status: ('A' for Active; 'I' for Inactive)
REMARK    1  A    between atoms: C_5  and  C_6 
REMARK    2  A    between atoms: C_12  and  C_13 
REMARK    3  A    between atoms: C_13  and  N_14 
REMARK       I    between atoms: N_14  and  C_15 
REMARK       I    between atoms: C_15  and  N_16 
REMARK    4  A    between atoms: N_16  and  C_17 
ROOT
HETATM    1  C   UNL     1       7.624  27.268  54.597  1.00  0.00     0.168 C 
ENDROOT
BRANCH   1   2
HETATM    2  C   UNL     1       6.347  26.780  54.007  1.00  0.00     0.023 A 
HETATM    3  C   UNL     1       5.204  27.470  53.642  1.00  0.00     0.085 A 
HETATM    4  C   UNL     1       4.782  28.885  53.661  1.00  0.00     0.079 C 
HETATM    5  O   UNL     1       4.277  26.597  53.174  1.00  0.00    -0.217 OA
HETATM    6  N   UNL     1       4.772  25.317  53.228  1.00  0.00    -0.127 NA
HETATM    7  C   UNL     1       6.016  25.412  53.716  1.00  0.00     0.105 A 
BRANCH   7   8
HETATM    8  C   UNL     1       6.820  24.209  53.918  1.00  0.00    -0.004 A 
HETATM    9  C   UNL     1       6.923  23.605  55.177  1.00  0.00     0.014 A 
HETATM   10  C   UNL     1       7.687  22.447  55.345  1.00  0.00     0.001 A 
HETATM   11  C   UNL     1       8.363  21.890  54.260  1.00  0.00     0.000 A 
HETATM   12  C   UNL     1       8.283  22.494  53.007  1.00  0.00     0.001 A 
HETATM   13  C   UNL     1       7.517  23.650  52.836  1.00  0.00     0.014 A 
ENDBRANCH   7   8
ENDBRANCH   1   2
BRANCH   1  14
HETATM   14  N   UNL     1       7.732  26.921  55.995  1.00  0.00    -0.338 N 
HETATM   15  C   UNL     1       7.945  27.707  57.085  1.00  0.00     0.320 C 
HETATM   16  N   UNL     1       8.393  28.973  56.838  1.00  0.00    -0.309 N 
HETATM   17  O   UNL     1       7.718  27.211  58.183  1.00  0.00    -0.247 OA
HETATM   18  H   UNL     1       8.799  29.135  55.932  1.00  0.00     0.170 HD
HETATM   19  H   UNL     1       7.371  26.015  56.266  1.00  0.00     0.164 HD
BRANCH  16  20
HETATM   20  C   UNL     1       8.535  30.028  57.767  1.00  0.00     0.036 A 
HETATM   21  C   UNL     1       9.766  30.536  58.187  1.00  0.00     0.029 A 
HETATM   22  C   UNL     1       9.824  31.573  59.124  1.00  0.00     0.002 A 
HETATM   23  C   UNL     1       8.652  32.105  59.655  1.00  0.00     0.000 A 
HETATM   24  C   UNL     1       7.419  31.601  59.250  1.00  0.00     0.002 A 
HETATM   25  C   UNL     1       7.361  30.568  58.311  1.00  0.00     0.029 A 
ENDBRANCH  16  20
ENDBRANCH   1  14
TORSDOF 4
ENDMDL
MODEL 8
REMARK VINA RESULT:      -8.1      2.513      5.372
REMARK  4 active torsions:
REMARK  status: ('A' for Active; 'I' for Inactive)
REMARK    1  A    between atoms: C_5  and  C_6 
REMARK    2  A    between atoms: C_12  and  C_13 
REMARK    3  A    between atoms: C_13  and  N_14 
REMARK       I    between atoms: N_14  and  C_15 
REMARK       I    between atoms: C_15  and  N_16 
REMARK    4  A    between atoms: N_16  and  C_17 
ROOT
HETATM    1  C   UNL     1       7.608  28.081  54.795  1.00  0.00     0.168 C 
ENDROOT
BRANCH   1   2
HETATM    2  C   UNL     1       7.640  27.288  56.054  1.00  0.00     0.023 A 
HETATM    3  C   UNL     1       7.712  27.697  57.374  1.00  0.00     0.085 A 
HETATM    4  C   UNL     1       7.774  29.001  58.066  1.00  0.00     0.079 C 
HETATM    5  O   UNL     1       7.746  26.611  58.185  1.00  0.00    -0.217 OA
HETATM    6  N   UNL     1       7.710  25.464  57.431  1.00  0.00    -0.127 NA
HETATM    7  C   UNL     1       7.635  25.853  56.151  1.00  0.00     0.105 A 
BRANCH   7   8
HETATM    8  C   UNL     1       7.599  24.860  55.081  1.00  0.00    -0.004 A 
HETATM    9  C   UNL     1       6.708  24.979  54.007  1.00  0.00     0.014 A 
HETATM   10  C   UNL     1       6.698  24.025  52.987  1.00  0.00     0.001 A 
HETATM   11  C   UNL     1       7.571  22.938  53.037  1.00  0.00     0.000 A 
HETATM   12  C   UNL     1       8.449  22.800  54.110  1.00  0.00     0.001 A 
HETATM   13  C   UNL     1       8.462  23.755  55.129  1.00  0.00     0.014 A 
ENDBRANCH   7   8
ENDBRANCH   1   2
BRANCH   1  14
HETATM   14  N   UNL     1       6.292  28.617  54.536  1.00  0.00    -0.338 N 
HETATM   15  C   UNL     1       5.507  28.532  53.427  1.00  0.00     0.320 C 
HETATM   16  N   UNL     1       6.125  28.120  52.281  1.00  0.00    -0.309 N 
HETATM   17  O   UNL     1       4.326  28.832  53.556  1.00  0.00    -0.247 OA
HETATM   18  H   UNL     1       7.129  28.191  52.263  1.00  0.00     0.170 HD
HETATM   19  H   UNL     1       5.749  28.896  55.344  1.00  0.00     0.164 HD
BRANCH  16  20
HETATM   20  C   UNL     1       5.516  27.796  51.049  1.00  0.00     0.036 A 
HETATM   21  C   UNL     1       5.069  26.516  50.713  1.00  0.00     0.029 A 
HETATM   22  C   UNL     1       4.491  26.271  49.463  1.00  0.00     0.002 A 
HETATM   23  C   UNL     1       4.361  27.301  48.535  1.00  0.00     0.000 A 
HETATM   24  C   UNL     1       4.810  28.579  48.856  1.00  0.00     0.002 A 
HETATM   25  C   UNL     1       5.384  28.825  50.106  1.00  0.00     0.029 A 
ENDBRANCH  16  20
ENDBRANCH   1  14
TORSDOF 4
ENDMDL
MODEL 9
REMARK VINA RESULT:      -8.0      2.963      6.890
REMARK  4 active torsions:
REMARK  status: ('A' for Active; 'I' for Inactive)
REMARK    1  A    between atoms: C_5  and  C_6 
REMARK    2  A    between atoms: C_12  and  C_13 
REMARK    3  A    between atoms: C_13  and  N_14 
REMARK       I    between atoms: N_14  and  C_15 
REMARK       I    between atoms: C_15  and  N_16 
REMARK    4  A    between atoms: N_16  and  C_17 
ROOT
HETATM    1  C   UNL     1       7.312  27.404  57.119  1.00  0.00     0.168 C 
ENDROOT
BRANCH   1   2
HETATM    2  C   UNL     1       6.162  27.694  56.220  1.00  0.00     0.023 A 
HETATM    3  C   UNL     1       5.135  28.612  56.342  1.00  0.00     0.085 A 
HETATM    4  C   UNL     1       4.759  29.641  57.335  1.00  0.00     0.079 C 
HETATM    5  O   UNL     1       4.292  28.495  55.286  1.00  0.00    -0.217 OA
HETATM    6  N   UNL     1       4.728  27.496  54.451  1.00  0.00    -0.127 NA
HETATM    7  C   UNL     1       5.854  27.013  54.992  1.00  0.00     0.105 A 
BRANCH   7   8
HETATM    8  C   UNL     1       6.567  25.913  54.348  1.00  0.00    -0.004 A 
HETATM    9  C   UNL     1       6.519  24.612  54.865  1.00  0.00     0.014 A 
HETATM   10  C   UNL     1       7.198  23.572  54.226  1.00  0.00     0.001 A 
HETATM   11  C   UNL     1       7.938  23.823  53.072  1.00  0.00     0.000 A 
HETATM   12  C   UNL     1       8.008  25.117  52.559  1.00  0.00     0.001 A 
HETATM   13  C   UNL     1       7.328  26.158  53.194  1.00  0.00     0.014 A 
ENDBRANCH   7   8
ENDBRANCH   1   2
BRANCH   1  14
HETATM   14  N   UNL     1       8.363  28.385  56.974  1.00  0.00    -0.338 N 
HETATM   15  C   UNL     1       8.731  29.412  57.788  1.00  0.00     0.320 C 
HETATM   16  N   UNL     1       7.835  29.764  58.758  1.00  0.00    -0.309 N 
HETATM   17  O   UNL     1       9.825  29.925  57.579  1.00  0.00    -0.247 OA
HETATM   18  H   UNL     1       6.887  29.456  58.624  1.00  0.00     0.170 HD
HETATM   19  H   UNL     1       9.095  28.169  56.309  1.00  0.00     0.164 HD
BRANCH  16  20
HETATM   20  C   UNL     1       8.036  30.672  59.820  1.00  0.00     0.036 A 
HETATM   21  C   UNL     1       7.258  31.813  60.028  1.00  0.00     0.029 A 
HETATM   22  C   UNL     1       7.531  32.674  61.096  1.00  0.00     0.002 A 
HETATM   23  C   UNL     1       8.589  32.407  61.960  1.00  0.00     0.000 A 
HETATM   24  C   UNL     1       9.377  31.278  61.758  1.00  0.00     0.002 A 
HETATM   25  C   UNL     1       9.101  30.415  60.694  1.00  0.00     0.029 A 
ENDBRANCH  16  20
ENDBRANCH   1  14
TORSDOF 4
ENDMDL
MODEL 10
REMARK VINA RESULT:      -8.0      2.827      3.941
REMARK  4 active torsions:
REMARK  status: ('A' for Active; 'I' for Inactive)
REMARK    1  A    between atoms: C_5  and  C_6 
REMARK    2  A    between atoms: C_12  and  C_13 
REMARK    3  A    between atoms: C_13  and  N_14 
REMARK       I    between atoms: N_14  and  C_15 
REMARK       I    between atoms: C_15  and  N_16 
REMARK    4  A    between atoms: N_16  and  C_17 
ROOT
HETATM    1  C   UNL     1       5.286  25.958  56.507  1.00  0.00     0.168 C 
ENDROOT
BRANCH   1   2
HETATM    2  C   UNL     1       6.386  26.860  56.946  1.00  0.00     0.023 A 
HETATM    3  C   UNL     1       7.647  26.568  57.433  1.00  0.00     0.085 A 
HETATM    4  C   UNL     1       8.407  25.330  57.702  1.00  0.00     0.079 C 
HETATM    5  O   UNL     1       8.296  27.721  57.733  1.00  0.00    -0.217 OA
HETATM    6  N   UNL     1       7.485  28.796  57.467  1.00  0.00    -0.127 NA
HETATM    7  C   UNL     1       6.339  28.296  56.984  1.00  0.00     0.105 A 
BRANCH   7   8
HETATM    8  C   UNL     1       5.244  29.190  56.615  1.00  0.00    -0.004 A 
HETATM    9  C   UNL     1       4.821  29.313  55.286  1.00  0.00     0.014 A 
HETATM   10  C   UNL     1       3.764  30.164  54.956  1.00  0.00     0.001 A 
HETATM   11  C   UNL     1       3.127  30.907  55.950  1.00  0.00     0.000 A 
HETATM   12  C   UNL     1       3.552  30.806  57.273  1.00  0.00     0.001 A 
HETATM   13  C   UNL     1       4.607  29.954  57.605  1.00  0.00     0.014 A 
ENDBRANCH   7   8
ENDBRANCH   1   2
BRANCH   1  14
HETATM   14  N   UNL     1       5.323  25.726  55.081  1.00  0.00    -0.338 N 
HETATM   15  C   UNL     1       5.887  24.715  54.366  1.00  0.00     0.320 C 
HETATM   16  N   UNL     1       6.784  23.931  55.034  1.00  0.00    -0.309 N 
HETATM   17  O   UNL     1       5.542  24.600  53.196  1.00  0.00    -0.247 OA
HETATM   18  H   UNL     1       7.173  24.315  55.879  1.00  0.00     0.170 HD
HETATM   19  H   UNL     1       4.649  26.234  54.523  1.00  0.00     0.164 HD
BRANCH  16  20
HETATM   20  C   UNL     1       7.381  22.735  54.579  1.00  0.00     0.036 A 
HETATM   21  C   UNL     1       7.757  22.505  53.254  1.00  0.00     0.029 A 
HETATM   22  C   UNL     1       8.328  21.284  52.879  1.00  0.00     0.002 A 
HETATM   23  C   UNL     1       8.520  20.280  53.823  1.00  0.00     0.000 A 
HETATM   24  C   UNL     1       8.143  20.494  55.145  1.00  0.00     0.002 A 
HETATM   25  C   UNL     1       7.576  21.715  55.521  1.00  0.00     0.029 A 
ENDBRANCH  16  20
ENDBRANCH   1  14
TORSDOF 4
ENDMDL
