MODEL 1
REMARK VINA RESULT:      -9.4      0.000      0.000
REMARK  9 active torsions:
REMARK  status: ('A' for Active; 'I' for Inactive)
REMARK    1  A    between atoms: C_4  and  C_5 
REMARK    2  A    between atoms: C_6  and  N_7 
REMARK    3  A    between atoms: N_7  and  S_8 
REMARK    4  A    between atoms: C_17  and  C_18 
REMARK    5  A    between atoms: C_18  and  N_19 
REMARK    6  A    between atoms: N_19  and  C_21 
REMARK    7  A    between atoms: C_21  and  C_22 
REMARK    8  A    between atoms: C_24  and  C_25 
REMARK    9  A    between atoms: C_25  and  N_26 
ROOT
HETATM    1  C   UNL     1       9.235  30.057  58.062  1.00  0.00     0.079 C 
HETATM    2  C   UNL     1       8.106  30.749  58.711  1.00  0.00     0.078 A 
HETATM    3  O   UNL     1       8.273  31.126  60.017  1.00  0.00    -0.294 OA
HETATM    4  C   UNL     1       7.080  31.707  60.373  1.00  0.00     0.182 A 
HETATM    5  N   UNL     1       6.219  31.760  59.378  1.00  0.00    -0.224 NA
HETATM    6  C   UNL     1       6.834  31.109  58.336  1.00  0.00     0.092 A 
ENDROOT
BRANCH   6   7
HETATM    7  C   UNL     1       6.057  30.864  57.094  1.00  0.00     0.296 C 
BRANCH   7   8
HETATM    8  N   UNL     1       6.308  29.469  56.548  1.00  0.00    -0.065 N 
HETATM    9  H   UNL     1       7.341  29.381  56.632  1.00  0.00     0.280 HD
HETATM   10  C   UNL     1       5.977  29.331  55.105  1.00  0.00     0.270 C 
BRANCH   8  11
HETATM   11  C   UNL     1       5.822  28.326  57.408  1.00  0.00     0.280 C 
BRANCH  11  12
HETATM   12  C   UNL     1       6.206  26.940  56.965  1.00  0.00     0.009 A 
HETATM   13  S   UNL     1       7.842  26.429  56.970  1.00  0.00    -0.096 SA
HETATM   14  C   UNL     1       7.423  24.818  56.547  1.00  0.00     0.009 A 
HETATM   15  C   UNL     1       6.064  24.695  56.339  1.00  0.00     0.017 A 
HETATM   16  C   UNL     1       5.363  25.909  56.596  1.00  0.00     0.017 A 
BRANCH  14  17
HETATM   17  C   UNL     1       8.475  23.750  56.454  1.00  0.00     0.280 C 
BRANCH  17  18
HETATM   18  N   UNL     1       8.125  22.649  55.473  1.00  0.00    -0.067 N 
HETATM   19  H   UNL     1       7.116  22.485  55.586  1.00  0.00     0.280 HD
HETATM   20  C   UNL     1       8.363  23.038  54.030  1.00  0.00     0.235 C 
HETATM   21  C   UNL     1       7.841  21.934  53.120  1.00  0.00     0.028 C 
HETATM   22  C   UNL     1       8.480  20.589  53.444  1.00  0.00     0.003 C 
HETATM   23  C   UNL     1       8.321  20.242  54.920  1.00  0.00     0.028 C 
HETATM   24  C   UNL     1       8.831  21.357  55.822  1.00  0.00     0.235 C 
ENDBRANCH  17  18
ENDBRANCH  14  17
ENDBRANCH  11  12
ENDBRANCH   8  11
ENDBRANCH   7   8
ENDBRANCH   6   7
BRANCH   4  25
HETATM   25  C   UNL     1       6.930  32.145  61.760  1.00  0.00     0.044 A 
HETATM   26  C   UNL     1       5.669  32.266  62.387  1.00  0.00     0.057 A 
HETATM   27  C   UNL     1       5.580  32.711  63.715  1.00  0.00     0.031 A 
HETATM   28  C   UNL     1       6.731  33.032  64.432  1.00  0.00     0.002 A 
HETATM   29  C   UNL     1       7.978  32.914  63.830  1.00  0.00     0.001 A 
HETATM   30  C   UNL     1       8.076  32.477  62.508  1.00  0.00     0.018 A 
BRANCH  26  31
HETATM   31  N   UNL     1       4.433  31.986  61.711  1.00  0.00    -0.284 N 
HETATM   32  H   UNL     1       4.503  31.287  60.970  1.00  0.00     0.178 HD
BRANCH  31  33
HETATM   33  S   UNL     1       3.406  33.258  61.300  1.00  0.00     0.227 S 
HETATM   34  C   UNL     1       4.535  34.566  60.862  1.00  0.00     0.186 C 
HETATM   35  O   UNL     1       2.731  32.817  60.092  1.00  0.00    -0.206 OA
HETATM   36  O   UNL     1       2.603  33.668  62.430  1.00  0.00    -0.206 OA
ENDBRANCH  31  33
ENDBRANCH  26  31
ENDBRANCH   4  25
TORSDOF 9
ENDMDL
MODEL 2
REMARK VINA RESULT:      -9.0      1.576      2.040
REMARK  9 active torsions:
REMARK  status: ('A' for Active; 'I' for Inactive)
REMARK    1  A    between atoms: C_4  and  C_5 
REMARK    2  A    between atoms: C_6  and  N_7 
REMARK    3  A    between atoms: N_7  and  S_8 
REMARK    4  A    between atoms: C_17  and  C_18 
REMARK    5  A    between atoms: C_18  and  N_19 
REMARK    6  A    between atoms: N_19  and  C_21 
REMARK    7  A    between atoms: C_21  and  C_22 
REMARK    8  A    between atoms: C_24  and  C_25 
REMARK    9  A    between atoms: C_25  and  N_26 
ROOT
HETATM    1  C   UNL     1      10.317  31.671  58.573  1.00  0.00     0.079 C 
HETATM    2  C   UNL     1       9.055  31.570  59.331  1.00  0.00     0.078 A 
HETATM    3  O   UNL     1       8.896  32.418  60.394  1.00  0.00    -0.294 OA
HETATM    4  C   UNL     1       7.672  32.092  60.927  1.00  0.00     0.182 A 
HETATM    5  N   UNL     1       7.052  31.150  60.246  1.00  0.00    -0.224 NA
HETATM    6  C   UNL     1       7.938  30.772  59.267  1.00  0.00     0.092 A 
ENDROOT
BRANCH   6   7
HETATM    7  C   UNL     1       7.595  29.609  58.409  1.00  0.00     0.296 C 
BRANCH   7   8
HETATM    8  N   UNL     1       7.551  29.995  56.941  1.00  0.00    -0.065 N 
HETATM    9  H   UNL     1       7.903  30.973  56.959  1.00  0.00     0.280 HD
HETATM   10  C   UNL     1       6.173  30.041  56.383  1.00  0.00     0.270 C 
BRANCH   8  11
HETATM   11  C   UNL     1       8.559  29.312  56.048  1.00  0.00     0.280 C 
BRANCH  11  12
HETATM   12  C   UNL     1       8.077  28.106  55.288  1.00  0.00     0.009 A 
HETATM   13  S   UNL     1       7.648  26.659  56.100  1.00  0.00    -0.096 SA
HETATM   14  C   UNL     1       7.080  25.923  54.656  1.00  0.00     0.009 A 
HETATM   15  C   UNL     1       7.281  26.744  53.566  1.00  0.00     0.017 A 
HETATM   16  C   UNL     1       7.837  28.005  53.930  1.00  0.00     0.017 A 
BRANCH  14  17
HETATM   17  C   UNL     1       6.451  24.560  54.685  1.00  0.00     0.280 C 
BRANCH  17  18
HETATM   18  N   UNL     1       7.455  23.432  54.547  1.00  0.00    -0.067 N 
HETATM   19  H   UNL     1       8.377  23.886  54.495  1.00  0.00     0.280 HD
HETATM   20  C   UNL     1       7.474  22.501  55.739  1.00  0.00     0.235 C 
HETATM   21  C   UNL     1       8.611  21.502  55.577  1.00  0.00     0.028 C 
HETATM   22  C   UNL     1       8.498  20.727  54.270  1.00  0.00     0.003 C 
HETATM   23  C   UNL     1       8.385  21.669  53.077  1.00  0.00     0.028 C 
HETATM   24  C   UNL     1       7.255  22.673  53.253  1.00  0.00     0.235 C 
ENDBRANCH  17  18
ENDBRANCH  14  17
ENDBRANCH  11  12
ENDBRANCH   8  11
ENDBRANCH   7   8
ENDBRANCH   6   7
BRANCH   4  25
HETATM   25  C   UNL     1       7.257  32.791  62.142  1.00  0.00     0.044 A 
HETATM   26  C   UNL     1       6.066  33.549  62.213  1.00  0.00     0.057 A 
HETATM   27  C   UNL     1       5.725  34.218  63.399  1.00  0.00     0.031 A 
HETATM   28  C   UNL     1       6.550  34.138  64.519  1.00  0.00     0.002 A 
HETATM   29  C   UNL     1       7.723  33.394  64.465  1.00  0.00     0.001 A 
HETATM   30  C   UNL     1       8.073  32.729  63.288  1.00  0.00     0.018 A 
BRANCH  26  31
HETATM   31  N   UNL     1       5.176  33.709  61.098  1.00  0.00    -0.284 N 
HETATM   32  H   UNL     1       5.030  34.676  60.807  1.00  0.00     0.178 HD
BRANCH  31  33
HETATM   33  S   UNL     1       3.760  32.796  61.028  1.00  0.00     0.227 S 
HETATM   34  C   UNL     1       2.477  34.031  61.101  1.00  0.00     0.186 C 
HETATM   35  O   UNL     1       3.757  32.216  59.696  1.00  0.00    -0.206 OA
HETATM   36  O   UNL     1       3.650  31.913  62.167  1.00  0.00    -0.206 OA
ENDBRANCH  31  33
ENDBRANCH  26  31
ENDBRANCH   4  25
TORSDOF 9
ENDMDL
MODEL 3
REMARK VINA RESULT:      -9.0      1.781      2.571
REMARK  9 active torsions:
REMARK  status: ('A' for Active; 'I' for Inactive)
REMARK    1  A    between atoms: C_4  and  C_5 
REMARK    2  A    between atoms: C_6  and  N_7 
REMARK    3  A    between atoms: N_7  and  S_8 
REMARK    4  A    between atoms: C_17  and  C_18 
REMARK    5  A    between atoms: C_18  and  N_19 
REMARK    6  A    between atoms: N_19  and  C_21 
REMARK    7  A    between atoms: C_21  and  C_22 
REMARK    8  A    between atoms: C_24  and  C_25 
REMARK    9  A    between atoms: C_25  and  N_26 
ROOT
HETATM    1  C   UNL     1       4.345  33.681  56.602  1.00  0.00     0.079 C 
HETATM    2  C   UNL     1       5.057  32.578  57.274  1.00  0.00     0.078 A 
HETATM    3  O   UNL     1       5.936  32.917  58.269  1.00  0.00    -0.294 OA
HETATM    4  C   UNL     1       6.471  31.723  58.690  1.00  0.00     0.182 A 
HETATM    5  N   UNL     1       5.954  30.683  58.070  1.00  0.00    -0.224 NA
HETATM    6  C   UNL     1       5.099  31.211  57.133  1.00  0.00     0.092 A 
ENDROOT
BRANCH   6   7
HETATM    7  C   UNL     1       4.460  30.294  56.156  1.00  0.00     0.296 C 
BRANCH   7   8
HETATM    8  N   UNL     1       5.342  29.093  55.863  1.00  0.00    -0.065 N 
HETATM    9  H   UNL     1       6.243  29.367  56.302  1.00  0.00     0.280 HD
HETATM   10  C   UNL     1       5.609  28.895  54.413  1.00  0.00     0.270 C 
BRANCH   8  11
HETATM   11  C   UNL     1       5.000  27.825  56.608  1.00  0.00     0.280 C 
BRANCH  11  12
HETATM   12  C   UNL     1       6.134  26.872  56.874  1.00  0.00     0.009 A 
HETATM   13  S   UNL     1       5.911  25.176  56.769  1.00  0.00    -0.096 SA
HETATM   14  C   UNL     1       7.583  24.861  57.006  1.00  0.00     0.009 A 
HETATM   15  C   UNL     1       8.283  26.029  57.230  1.00  0.00     0.017 A 
HETATM   16  C   UNL     1       7.455  27.185  57.136  1.00  0.00     0.017 A 
BRANCH  14  17
HETATM   17  C   UNL     1       8.115  23.458  56.948  1.00  0.00     0.280 C 
BRANCH  17  18
HETATM   18  N   UNL     1       7.800  22.751  55.644  1.00  0.00    -0.067 N 
HETATM   19  H   UNL     1       6.774  22.705  55.593  1.00  0.00     0.280 HD
HETATM   20  C   UNL     1       8.281  23.509  54.425  1.00  0.00     0.235 C 
HETATM   21  C   UNL     1       7.786  22.803  53.170  1.00  0.00     0.028 C 
HETATM   22  C   UNL     1       8.232  21.347  53.129  1.00  0.00     0.003 C 
HETATM   23  C   UNL     1       7.829  20.609  54.401  1.00  0.00     0.028 C 
HETATM   24  C   UNL     1       8.315  21.329  55.651  1.00  0.00     0.235 C 
ENDBRANCH  17  18
ENDBRANCH  14  17
ENDBRANCH  11  12
ENDBRANCH   8  11
ENDBRANCH   7   8
ENDBRANCH   6   7
BRANCH   4  25
HETATM   25  C   UNL     1       7.517  31.775  59.711  1.00  0.00     0.044 A 
HETATM   26  C   UNL     1       7.230  31.747  61.094  1.00  0.00     0.057 A 
HETATM   27  C   UNL     1       8.271  31.821  62.033  1.00  0.00     0.031 A 
HETATM   28  C   UNL     1       9.596  31.915  61.614  1.00  0.00     0.002 A 
HETATM   29  C   UNL     1       9.894  31.939  60.256  1.00  0.00     0.001 A 
HETATM   30  C   UNL     1       8.865  31.872  59.315  1.00  0.00     0.018 A 
BRANCH  26  31
HETATM   31  N   UNL     1       5.892  31.684  61.612  1.00  0.00    -0.284 N 
HETATM   32  H   UNL     1       5.206  31.288  60.967  1.00  0.00     0.178 HD
BRANCH  31  33
HETATM   33  S   UNL     1       5.276  32.989  62.483  1.00  0.00     0.227 S 
HETATM   34  C   UNL     1       3.523  32.895  62.171  1.00  0.00     0.186 C 
HETATM   35  O   UNL     1       5.508  32.649  63.876  1.00  0.00    -0.206 OA
HETATM   36  O   UNL     1       5.792  34.243  61.981  1.00  0.00    -0.206 OA
ENDBRANCH  31  33
ENDBRANCH  26  31
ENDBRANCH   4  25
TORSDOF 9
ENDMDL
MODEL 4
REMARK VINA RESULT:      -8.9      3.241      4.633
REMARK  9 active torsions:
REMARK  status: ('A' for Active; 'I' for Inactive)
REMARK    1  A    between atoms: C_4  and  C_5 
REMARK    2  A    between atoms: C_6  and  N_7 
REMARK    3  A    between atoms: N_7  and  S_8 
REMARK    4  A    between atoms: C_17  and  C_18 
REMARK    5  A    between atoms: C_18  and  N_19 
REMARK    6  A    between atoms: N_19  and  C_21 
REMARK    7  A    between atoms: C_21  and  C_22 
REMARK    8  A    between atoms: C_24  and  C_25 
REMARK    9  A    between atoms: C_25  and  N_26 
ROOT
HETATM    1  C   UNL     1       6.935  26.292  56.988  1.00  0.00     0.079 C 
HETATM    2  C   UNL     1       6.626  27.722  57.168  1.00  0.00     0.078 A 
HETATM    3  O   UNL     1       7.424  28.429  58.028  1.00  0.00    -0.294 OA
HETATM    4  C   UNL     1       6.903  29.701  58.030  1.00  0.00     0.182 A 
HETATM    5  N   UNL     1       5.886  29.838  57.205  1.00  0.00    -0.224 NA
HETATM    6  C   UNL     1       5.664  28.583  56.694  1.00  0.00     0.092 A 
ENDROOT
BRANCH   6   7
HETATM    7  C   UNL     1       4.475  28.366  55.832  1.00  0.00     0.296 C 
BRANCH   7   8
HETATM    8  N   UNL     1       4.669  28.972  54.454  1.00  0.00    -0.065 N 
HETATM    9  H   UNL     1       5.703  29.058  54.393  1.00  0.00     0.280 HD
HETATM   10  C   UNL     1       4.112  30.346  54.329  1.00  0.00     0.270 C 
BRANCH   8  11
HETATM   11  C   UNL     1       4.357  28.069  53.285  1.00  0.00     0.280 C 
BRANCH  11  12
HETATM   12  C   UNL     1       5.115  26.770  53.216  1.00  0.00     0.009 A 
HETATM   13  S   UNL     1       6.821  26.730  53.382  1.00  0.00    -0.096 SA
HETATM   14  C   UNL     1       6.861  25.013  53.375  1.00  0.00     0.009 A 
HETATM   15  C   UNL     1       5.600  24.486  53.180  1.00  0.00     0.017 A 
HETATM   16  C   UNL     1       4.595  25.494  53.107  1.00  0.00     0.017 A 
BRANCH  14  17
HETATM   17  C   UNL     1       8.153  24.275  53.576  1.00  0.00     0.280 C 
BRANCH  17  18
HETATM   18  N   UNL     1       7.965  22.880  54.139  1.00  0.00    -0.067 N 
HETATM   19  H   UNL     1       6.967  22.808  54.376  1.00  0.00     0.280 HD
HETATM   20  C   UNL     1       8.273  21.787  53.140  1.00  0.00     0.235 C 
HETATM   21  C   UNL     1       7.910  20.437  53.744  1.00  0.00     0.028 C 
HETATM   22  C   UNL     1       8.630  20.200  55.066  1.00  0.00     0.003 C 
HETATM   23  C   UNL     1       8.393  21.349  56.039  1.00  0.00     0.028 C 
HETATM   24  C   UNL     1       8.746  22.695  55.422  1.00  0.00     0.235 C 
ENDBRANCH  17  18
ENDBRANCH  14  17
ENDBRANCH  11  12
ENDBRANCH   8  11
ENDBRANCH   7   8
ENDBRANCH   6   7
BRANCH   4  25
HETATM   25  C   UNL     1       7.511  30.678  58.932  1.00  0.00     0.044 A 
HETATM   26  C   UNL     1       8.902  30.723  59.176  1.00  0.00     0.057 A 
HETATM   27  C   UNL     1       9.432  31.669  60.068  1.00  0.00     0.031 A 
HETATM   28  C   UNL     1       8.597  32.577  60.715  1.00  0.00     0.002 A 
HETATM   29  C   UNL     1       7.227  32.547  60.482  1.00  0.00     0.001 A 
HETATM   30  C   UNL     1       6.690  31.606  59.600  1.00  0.00     0.018 A 
BRANCH  26  31
HETATM   31  N   UNL     1       9.830  29.806  58.576  1.00  0.00    -0.284 N 
HETATM   32  H   UNL     1      10.399  29.282  59.242  1.00  0.00     0.178 HD
BRANCH  31  33
HETATM   33  S   UNL     1      10.704  30.281  57.215  1.00  0.00     0.227 S 
HETATM   34  C   UNL     1       9.803  29.533  55.871  1.00  0.00     0.186 C 
HETATM   35  O   UNL     1      10.521  31.720  57.140  1.00  0.00    -0.206 OA
HETATM   36  O   UNL     1      12.050  29.756  57.249  1.00  0.00    -0.206 OA
ENDBRANCH  31  33
ENDBRANCH  26  31
ENDBRANCH   4  25
TORSDOF 9
ENDMDL
MODEL 5
REMARK VINA RESULT:      -8.9      1.883      2.641
REMARK  9 active torsions:
REMARK  status: ('A' for Active; 'I' for Inactive)
REMARK    1  A    between atoms: C_4  and  C_5 
REMARK    2  A    between atoms: C_6  and  N_7 
REMARK    3  A    between atoms: N_7  and  S_8 
REMARK    4  A    between atoms: C_17  and  C_18 
REMARK    5  A    between atoms: C_18  and  N_19 
REMARK    6  A    between atoms: N_19  and  C_21 
REMARK    7  A    between atoms: C_21  and  C_22 
REMARK    8  A    between atoms: C_24  and  C_25 
REMARK    9  A    between atoms: C_25  and  N_26 
ROOT
HETATM    1  C   UNL     1      11.090  29.684  57.006  1.00  0.00     0.079 C 
HETATM    2  C   UNL     1       9.774  29.765  57.668  1.00  0.00     0.078 A 
HETATM    3  O   UNL     1       9.655  30.640  58.715  1.00  0.00    -0.294 OA
HETATM    4  C   UNL     1       8.363  30.490  59.156  1.00  0.00     0.182 A 
HETATM    5  N   UNL     1       7.671  29.633  58.433  1.00  0.00    -0.224 NA
HETATM    6  C   UNL     1       8.566  29.126  57.523  1.00  0.00     0.092 A 
ENDROOT
BRANCH   6   7
HETATM    7  C   UNL     1       8.130  28.011  56.645  1.00  0.00     0.296 C 
BRANCH   7   8
HETATM    8  N   UNL     1       6.655  28.115  56.304  1.00  0.00    -0.065 N 
HETATM    9  H   UNL     1       6.429  29.088  56.591  1.00  0.00     0.280 HD
HETATM   10  C   UNL     1       5.795  27.214  57.116  1.00  0.00     0.270 C 
BRANCH   8  11
HETATM   11  C   UNL     1       6.316  28.133  54.832  1.00  0.00     0.280 C 
BRANCH  11  12
HETATM   12  C   UNL     1       6.276  26.800  54.134  1.00  0.00     0.009 A 
HETATM   13  S   UNL     1       7.718  25.997  53.671  1.00  0.00    -0.096 SA
HETATM   14  C   UNL     1       6.868  24.595  53.161  1.00  0.00     0.009 A 
HETATM   15  C   UNL     1       5.504  24.768  53.279  1.00  0.00     0.017 A 
HETATM   16  C   UNL     1       5.164  26.027  53.854  1.00  0.00     0.017 A 
BRANCH  14  17
HETATM   17  C   UNL     1       7.608  23.382  52.675  1.00  0.00     0.280 C 
BRANCH  17  18
HETATM   18  N   UNL     1       8.089  22.484  53.798  1.00  0.00    -0.067 N 
HETATM   19  H   UNL     1       9.091  22.687  53.907  1.00  0.00     0.280 HD
HETATM   20  C   UNL     1       7.421  22.777  55.123  1.00  0.00     0.235 C 
HETATM   21  C   UNL     1       8.075  21.937  56.212  1.00  0.00     0.028 C 
HETATM   22  C   UNL     1       8.024  20.450  55.882  1.00  0.00     0.003 C 
HETATM   23  C   UNL     1       8.615  20.169  54.504  1.00  0.00     0.028 C 
HETATM   24  C   UNL     1       7.965  21.023  53.425  1.00  0.00     0.235 C 
ENDBRANCH  17  18
ENDBRANCH  14  17
ENDBRANCH  11  12
ENDBRANCH   8  11
ENDBRANCH   7   8
ENDBRANCH   6   7
BRANCH   4  25
HETATM   25  C   UNL     1       7.959  31.254  60.336  1.00  0.00     0.044 A 
HETATM   26  C   UNL     1       6.921  32.212  60.302  1.00  0.00     0.057 A 
HETATM   27  C   UNL     1       6.588  32.933  61.459  1.00  0.00     0.031 A 
HETATM   28  C   UNL     1       7.270  32.709  62.654  1.00  0.00     0.002 A 
HETATM   29  C   UNL     1       8.290  31.766  62.703  1.00  0.00     0.001 A 
HETATM   30  C   UNL     1       8.632  31.048  61.556  1.00  0.00     0.018 A 
BRANCH  26  31
HETATM   31  N   UNL     1       6.190  32.527  59.107  1.00  0.00    -0.284 N 
HETATM   32  H   UNL     1       6.327  33.479  58.765  1.00  0.00     0.178 HD
BRANCH  31  33
HETATM   33  S   UNL     1       4.593  32.011  58.951  1.00  0.00     0.227 S 
HETATM   34  C   UNL     1       3.863  33.259  57.907  1.00  0.00     0.186 C 
HETATM   35  O   UNL     1       4.674  30.775  58.193  1.00  0.00    -0.206 OA
HETATM   36  O   UNL     1       3.921  31.995  60.230  1.00  0.00    -0.206 OA
ENDBRANCH  31  33
ENDBRANCH  26  31
ENDBRANCH   4  25
TORSDOF 9
ENDMDL
MODEL 6
REMARK VINA RESULT:      -8.8      3.398     10.697
REMARK  9 active torsions:
REMARK  status: ('A' for Active; 'I' for Inactive)
REMARK    1  A    between atoms: C_4  and  C_5 
REMARK    2  A    between atoms: C_6  and  N_7 
REMARK    3  A    between atoms: N_7  and  S_8 
REMARK    4  A    between atoms: C_17  and  C_18 
REMARK    5  A    between atoms: C_18  and  N_19 
REMARK    6  A    between atoms: N_19  and  C_21 
REMARK    7  A    between atoms: C_21  and  C_22 
REMARK    8  A    between atoms: C_24  and  C_25 
REMARK    9  A    between atoms: C_25  and  N_26 
ROOT
HETATM    1  C   UNL     1       5.886  29.881  56.374  1.00  0.00     0.079 C 
HETATM    2  C   UNL     1       6.851  28.803  56.661  1.00  0.00     0.078 A 
HETATM    3  O   UNL     1       6.691  27.625  55.981  1.00  0.00    -0.294 OA
HETATM    4  C   UNL     1       7.685  26.804  56.456  1.00  0.00     0.182 A 
HETATM    5  N   UNL     1       8.467  27.401  57.331  1.00  0.00    -0.224 NA
HETATM    6  C   UNL     1       7.919  28.647  57.512  1.00  0.00     0.092 A 
ENDROOT
BRANCH   6   7
HETATM    7  C   UNL     1       8.489  29.528  58.563  1.00  0.00     0.296 C 
BRANCH   7   8
HETATM    8  N   UNL     1       9.323  30.644  57.961  1.00  0.00    -0.065 N 
HETATM    9  H   UNL     1       8.614  31.190  57.431  1.00  0.00     0.280 HD
HETATM   10  C   UNL     1      10.327  30.167  56.973  1.00  0.00     0.270 C 
BRANCH   8  11
HETATM   11  C   UNL     1       9.851  31.672  58.933  1.00  0.00     0.280 C 
BRANCH  11  12
HETATM   12  C   UNL     1       9.084  31.841  60.217  1.00  0.00     0.009 A 
HETATM   13  S   UNL     1       7.449  32.355  60.212  1.00  0.00    -0.096 SA
HETATM   14  C   UNL     1       7.288  32.124  61.906  1.00  0.00     0.009 A 
HETATM   15  C   UNL     1       8.483  31.728  62.471  1.00  0.00     0.017 A 
HETATM   16  C   UNL     1       9.510  31.548  61.499  1.00  0.00     0.017 A 
BRANCH  14  17
HETATM   17  C   UNL     1       5.967  32.341  62.588  1.00  0.00     0.280 C 
BRANCH  17  18
HETATM   18  N   UNL     1       5.933  33.592  63.444  1.00  0.00    -0.067 N 
HETATM   19  H   UNL     1       6.896  33.726  63.779  1.00  0.00     0.280 HD
HETATM   20  C   UNL     1       5.545  34.832  62.670  1.00  0.00     0.235 C 
HETATM   21  C   UNL     1       5.688  36.051  63.572  1.00  0.00     0.028 C 
HETATM   22  C   UNL     1       4.862  35.910  64.845  1.00  0.00     0.003 C 
HETATM   23  C   UNL     1       5.188  34.612  65.574  1.00  0.00     0.028 C 
HETATM   24  C   UNL     1       5.057  33.400  64.662  1.00  0.00     0.235 C 
ENDBRANCH  17  18
ENDBRANCH  14  17
ENDBRANCH  11  12
ENDBRANCH   8  11
ENDBRANCH   7   8
ENDBRANCH   6   7
BRANCH   4  25
HETATM   25  C   UNL     1       7.718  25.429  55.960  1.00  0.00     0.044 A 
HETATM   26  C   UNL     1       7.647  25.115  54.584  1.00  0.00     0.057 A 
HETATM   27  C   UNL     1       7.662  23.776  54.164  1.00  0.00     0.031 A 
HETATM   28  C   UNL     1       7.754  22.743  55.094  1.00  0.00     0.002 A 
HETATM   29  C   UNL     1       7.829  23.037  56.451  1.00  0.00     0.001 A 
HETATM   30  C   UNL     1       7.809  24.366  56.879  1.00  0.00     0.018 A 
BRANCH  26  31
HETATM   31  N   UNL     1       7.519  26.115  53.562  1.00  0.00    -0.284 N 
HETATM   32  H   UNL     1       7.961  27.008  53.784  1.00  0.00     0.178 HD
BRANCH  31  33
HETATM   33  S   UNL     1       6.043  26.308  52.770  1.00  0.00     0.227 S 
HETATM   34  C   UNL     1       5.937  28.073  52.534  1.00  0.00     0.186 C 
HETATM   35  O   UNL     1       6.233  25.687  51.471  1.00  0.00    -0.206 OA
HETATM   36  O   UNL     1       4.944  25.863  53.597  1.00  0.00    -0.206 OA
ENDBRANCH  31  33
ENDBRANCH  26  31
ENDBRANCH   4  25
TORSDOF 9
ENDMDL
MODEL 7
REMARK VINA RESULT:      -8.8      1.850      2.718
REMARK  9 active torsions:
REMARK  status: ('A' for Active; 'I' for Inactive)
REMARK    1  A    between atoms: C_4  and  C_5 
REMARK    2  A    between atoms: C_6  and  N_7 
REMARK    3  A    between atoms: N_7  and  S_8 
REMARK    4  A    between atoms: C_17  and  C_18 
REMARK    5  A    between atoms: C_18  and  N_19 
REMARK    6  A    between atoms: N_19  and  C_21 
REMARK    7  A    between atoms: C_21  and  C_22 
REMARK    8  A    between atoms: C_24  and  C_25 
REMARK    9  A    between atoms: C_25  and  N_26 
ROOT
HETATM    1  C   UNL     1       8.381  31.315  58.809  1.00  0.00     0.079 C 
HETATM    2  C   UNL     1       7.249  31.755  59.645  1.00  0.00     0.078 A 
HETATM    3  O   UNL     1       7.539  32.184  60.913  1.00  0.00    -0.294 OA
HETATM    4  C   UNL     1       6.322  32.497  61.468  1.00  0.00     0.182 A 
HETATM    5  N   UNL     1       5.320  32.342  60.627  1.00  0.00    -0.224 NA
HETATM    6  C   UNL     1       5.884  31.821  59.488  1.00  0.00     0.092 A 
ENDROOT
BRANCH   6   7
HETATM    7  C   UNL     1       4.989  31.387  58.386  1.00  0.00     0.296 C 
BRANCH   7   8
HETATM    8  N   UNL     1       5.444  31.944  57.048  1.00  0.00    -0.065 N 
HETATM    9  H   UNL     1       6.473  32.018  57.178  1.00  0.00     0.280 HD
HETATM   10  C   UNL     1       4.942  33.317  56.777  1.00  0.00     0.270 C 
BRANCH   8  11
HETATM   11  C   UNL     1       5.341  31.003  55.872  1.00  0.00     0.280 C 
BRANCH  11  12
HETATM   12  C   UNL     1       6.004  29.660  56.024  1.00  0.00     0.009 A 
HETATM   13  S   UNL     1       5.080  28.217  56.085  1.00  0.00    -0.096 SA
HETATM   14  C   UNL     1       6.482  27.225  56.075  1.00  0.00     0.009 A 
HETATM   15  C   UNL     1       7.632  27.987  56.094  1.00  0.00     0.017 A 
HETATM   16  C   UNL     1       7.359  29.385  56.047  1.00  0.00     0.017 A 
BRANCH  14  17
HETATM   17  C   UNL     1       6.363  25.729  56.038  1.00  0.00     0.280 C 
BRANCH  17  18
HETATM   18  N   UNL     1       7.189  25.088  54.939  1.00  0.00    -0.067 N 
HETATM   19  H   UNL     1       8.153  25.410  55.093  1.00  0.00     0.280 HD
HETATM   20  C   UNL     1       7.199  23.577  55.007  1.00  0.00     0.235 C 
HETATM   21  C   UNL     1       8.171  23.035  53.967  1.00  0.00     0.028 C 
HETATM   22  C   UNL     1       7.827  23.525  52.566  1.00  0.00     0.003 C 
HETATM   23  C   UNL     1       7.725  25.046  52.522  1.00  0.00     0.028 C 
HETATM   24  C   UNL     1       6.763  25.580  53.573  1.00  0.00     0.235 C 
ENDBRANCH  17  18
ENDBRANCH  14  17
ENDBRANCH  11  12
ENDBRANCH   8  11
ENDBRANCH   7   8
ENDBRANCH   6   7
BRANCH   4  25
HETATM   25  C   UNL     1       6.307  32.919  62.868  1.00  0.00     0.044 A 
HETATM   26  C   UNL     1       5.109  33.087  63.598  1.00  0.00     0.057 A 
HETATM   27  C   UNL     1       5.151  33.514  64.935  1.00  0.00     0.031 A 
HETATM   28  C   UNL     1       6.370  33.769  65.558  1.00  0.00     0.002 A 
HETATM   29  C   UNL     1       7.557  33.604  64.854  1.00  0.00     0.001 A 
HETATM   30  C   UNL     1       7.525  33.184  63.522  1.00  0.00     0.018 A 
BRANCH  26  31
HETATM   31  N   UNL     1       3.809  32.877  63.024  1.00  0.00    -0.284 N 
HETATM   32  H   UNL     1       3.806  32.295  62.185  1.00  0.00     0.178 HD
BRANCH  31  33
HETATM   33  S   UNL     1       2.731  34.168  62.916  1.00  0.00     0.227 S 
HETATM   34  C   UNL     1       2.166  34.085  61.227  1.00  0.00     0.186 C 
HETATM   35  O   UNL     1       1.624  33.802  63.783  1.00  0.00    -0.206 OA
HETATM   36  O   UNL     1       3.400  35.429  63.143  1.00  0.00    -0.206 OA
ENDBRANCH  31  33
ENDBRANCH  26  31
ENDBRANCH   4  25
TORSDOF 9
ENDMDL
MODEL 8
REMARK VINA RESULT:      -8.5      2.167      3.698
REMARK  9 active torsions:
REMARK  status: ('A' for Active; 'I' for Inactive)
REMARK    1  A    between atoms: C_4  and  C_5 
REMARK    2  A    between atoms: C_6  and  N_7 
REMARK    3  A    between atoms: N_7  and  S_8 
REMARK    4  A    between atoms: C_17  and  C_18 
REMARK    5  A    between atoms: C_18  and  N_19 
REMARK    6  A    between atoms: N_19  and  C_21 
REMARK    7  A    between atoms: C_21  and  C_22 
REMARK    8  A    between atoms: C_24  and  C_25 
REMARK    9  A    between atoms: C_25  and  N_26 
ROOT
HETATM    1  C   UNL     1       3.335  34.661  57.929  1.00  0.00     0.079 C 
HETATM    2  C   UNL     1       4.334  33.813  58.604  1.00  0.00     0.078 A 
HETATM    3  O   UNL     1       4.614  34.100  59.913  1.00  0.00    -0.294 OA
HETATM    4  C   UNL     1       5.582  33.194  60.275  1.00  0.00     0.182 A 
HETATM    5  N   UNL     1       5.877  32.348  59.311  1.00  0.00    -0.224 NA
HETATM    6  C   UNL     1       5.137  32.761  58.230  1.00  0.00     0.092 A 
ENDROOT
BRANCH   6   7
HETATM    7  C   UNL     1       5.357  32.095  56.922  1.00  0.00     0.296 C 
BRANCH   7   8
HETATM    8  N   UNL     1       4.691  30.732  56.872  1.00  0.00    -0.065 N 
HETATM    9  H   UNL     1       4.817  30.461  55.876  1.00  0.00     0.280 HD
HETATM   10  C   UNL     1       3.226  30.779  57.126  1.00  0.00     0.270 C 
BRANCH   8  11
HETATM   11  C   UNL     1       5.410  29.619  57.596  1.00  0.00     0.280 C 
BRANCH  11  12
HETATM   12  C   UNL     1       6.045  28.557  56.738  1.00  0.00     0.009 A 
HETATM   13  S   UNL     1       5.091  27.498  55.786  1.00  0.00    -0.096 SA
HETATM   14  C   UNL     1       6.470  26.795  55.043  1.00  0.00     0.009 A 
HETATM   15  C   UNL     1       7.637  27.315  55.565  1.00  0.00     0.017 A 
HETATM   16  C   UNL     1       7.394  28.339  56.526  1.00  0.00     0.017 A 
BRANCH  14  17
HETATM   17  C   UNL     1       6.318  25.763  53.963  1.00  0.00     0.280 C 
BRANCH  17  18
HETATM   18  N   UNL     1       7.182  24.536  54.181  1.00  0.00    -0.067 N 
HETATM   19  H   UNL     1       8.151  24.878  54.200  1.00  0.00     0.280 HD
HETATM   20  C   UNL     1       6.918  23.849  55.502  1.00  0.00     0.235 C 
HETATM   21  C   UNL     1       7.931  22.729  55.697  1.00  0.00     0.028 C 
HETATM   22  C   UNL     1       7.903  21.737  54.541  1.00  0.00     0.003 C 
HETATM   23  C   UNL     1       8.076  22.444  53.201  1.00  0.00     0.028 C 
HETATM   24  C   UNL     1       7.068  23.571  53.021  1.00  0.00     0.235 C 
ENDBRANCH  17  18
ENDBRANCH  14  17
ENDBRANCH  11  12
ENDBRANCH   8  11
ENDBRANCH   7   8
ENDBRANCH   6   7
BRANCH   4  25
HETATM   25  C   UNL     1       6.144  33.308  61.621  1.00  0.00     0.044 A 
HETATM   26  C   UNL     1       6.979  32.316  62.182  1.00  0.00     0.057 A 
HETATM   27  C   UNL     1       7.474  32.466  63.487  1.00  0.00     0.031 A 
HETATM   28  C   UNL     1       7.156  33.594  64.239  1.00  0.00     0.002 A 
HETATM   29  C   UNL     1       6.340  34.581  63.699  1.00  0.00     0.001 A 
HETATM   30  C   UNL     1       5.837  34.438  62.403  1.00  0.00     0.018 A 
BRANCH  26  31
HETATM   31  N   UNL     1       7.330  31.109  61.488  1.00  0.00    -0.284 N 
HETATM   32  H   UNL     1       6.900  30.263  61.864  1.00  0.00     0.178 HD
BRANCH  31  33
HETATM   33  S   UNL     1       8.928  30.860  61.012  1.00  0.00     0.227 S 
HETATM   34  C   UNL     1       8.761  30.160  59.380  1.00  0.00     0.186 C 
HETATM   35  O   UNL     1       9.488  32.194  60.878  1.00  0.00    -0.206 OA
HETATM   36  O   UNL     1       9.591  29.915  61.880  1.00  0.00    -0.206 OA
ENDBRANCH  31  33
ENDBRANCH  26  31
ENDBRANCH   4  25
TORSDOF 9
ENDMDL
MODEL 9
REMARK VINA RESULT:      -8.5      2.376      3.711
REMARK  9 active torsions:
REMARK  status: ('A' for Active; 'I' for Inactive)
REMARK    1  A    between atoms: C_4  and  C_5 
REMARK    2  A    between atoms: C_6  and  N_7 
REMARK    3  A    between atoms: N_7  and  S_8 
REMARK    4  A    between atoms: C_17  and  C_18 
REMARK    5  A    between atoms: C_18  and  N_19 
REMARK    6  A    between atoms: N_19  and  C_21 
REMARK    7  A    between atoms: C_21  and  C_22 
REMARK    8  A    between atoms: C_24  and  C_25 
REMARK    9  A    between atoms: C_25  and  N_26 
ROOT
HETATM    1  C   UNL     1       5.454  26.501  57.038  1.00  0.00     0.079 C 
HETATM    2  C   UNL     1       5.618  27.967  57.043  1.00  0.00     0.078 A 
HETATM    3  O   UNL     1       6.596  28.483  57.852  1.00  0.00    -0.294 OA
HETATM    4  C   UNL     1       6.508  29.844  57.688  1.00  0.00     0.182 A 
HETATM    5  N   UNL     1       5.593  30.197  56.810  1.00  0.00    -0.224 NA
HETATM    6  C   UNL     1       4.984  29.024  56.434  1.00  0.00     0.092 A 
ENDROOT
BRANCH   6   7
HETATM    7  C   UNL     1       3.792  29.092  55.552  1.00  0.00     0.296 C 
BRANCH   7   8
HETATM    8  N   UNL     1       4.188  29.216  54.091  1.00  0.00    -0.065 N 
HETATM    9  H   UNL     1       5.217  29.074  54.128  1.00  0.00     0.280 HD
HETATM   10  C   UNL     1       3.958  30.573  53.528  1.00  0.00     0.270 C 
BRANCH   8  11
HETATM   11  C   UNL     1       3.746  28.088  53.189  1.00  0.00     0.280 C 
BRANCH  11  12
HETATM   12  C   UNL     1       4.833  27.227  52.605  1.00  0.00     0.009 A 
HETATM   13  S   UNL     1       6.145  26.683  53.564  1.00  0.00    -0.096 SA
HETATM   14  C   UNL     1       6.764  25.698  52.301  1.00  0.00     0.009 A 
HETATM   15  C   UNL     1       6.019  25.840  51.148  1.00  0.00     0.017 A 
HETATM   16  C   UNL     1       4.900  26.703  51.327  1.00  0.00     0.017 A 
BRANCH  14  17
HETATM   17  C   UNL     1       7.963  24.822  52.527  1.00  0.00     0.280 C 
BRANCH  17  18
HETATM   18  N   UNL     1       7.684  23.650  53.446  1.00  0.00    -0.067 N 
HETATM   19  H   UNL     1       6.659  23.585  53.511  1.00  0.00     0.280 HD
HETATM   20  C   UNL     1       8.187  22.332  52.899  1.00  0.00     0.235 C 
HETATM   21  C   UNL     1       7.727  21.202  53.811  1.00  0.00     0.028 C 
HETATM   22  C   UNL     1       8.184  21.417  55.248  1.00  0.00     0.003 C 
HETATM   23  C   UNL     1       7.756  22.785  55.766  1.00  0.00     0.028 C 
HETATM   24  C   UNL     1       8.207  23.907  54.842  1.00  0.00     0.235 C 
ENDBRANCH  17  18
ENDBRANCH  14  17
ENDBRANCH  11  12
ENDBRANCH   8  11
ENDBRANCH   7   8
ENDBRANCH   6   7
BRANCH   4  25
HETATM   25  C   UNL     1       7.392  30.680  58.500  1.00  0.00     0.044 A 
HETATM   26  C   UNL     1       6.907  31.548  59.504  1.00  0.00     0.057 A 
HETATM   27  C   UNL     1       7.799  32.344  60.239  1.00  0.00     0.031 A 
HETATM   28  C   UNL     1       9.169  32.283  59.996  1.00  0.00     0.002 A 
HETATM   29  C   UNL     1       9.661  31.430  59.014  1.00  0.00     0.001 A 
HETATM   30  C   UNL     1       8.781  30.638  58.273  1.00  0.00     0.018 A 
BRANCH  26  31
HETATM   31  N   UNL     1       5.509  31.695  59.798  1.00  0.00    -0.284 N 
HETATM   32  H   UNL     1       4.985  30.819  59.816  1.00  0.00     0.178 HD
BRANCH  31  33
HETATM   33  S   UNL     1       4.639  32.951  59.086  1.00  0.00     0.227 S 
HETATM   34  C   UNL     1       4.618  34.202  60.357  1.00  0.00     0.186 C 
HETATM   35  O   UNL     1       5.484  33.420  58.001  1.00  0.00    -0.206 OA
HETATM   36  O   UNL     1       3.286  32.544  58.783  1.00  0.00    -0.206 OA
ENDBRANCH  31  33
ENDBRANCH  26  31
ENDBRANCH   4  25
TORSDOF 9
ENDMDL
MODEL 10
REMARK VINA RESULT:      -8.5      3.103      9.995
REMARK  9 active torsions:
REMARK  status: ('A' for Active; 'I' for Inactive)
REMARK    1  A    between atoms: C_4  and  C_5 
REMARK    2  A    between atoms: C_6  and  N_7 
REMARK    3  A    between atoms: N_7  and  S_8 
REMARK    4  A    between atoms: C_17  and  C_18 
REMARK    5  A    between atoms: C_18  and  N_19 
REMARK    6  A    between atoms: N_19  and  C_21 
REMARK    7  A    between atoms: C_21  and  C_22 
REMARK    8  A    between atoms: C_24  and  C_25 
REMARK    9  A    between atoms: C_25  and  N_26 
ROOT
HETATM    1  C   UNL     1       9.698  30.313  58.216  1.00  0.00     0.079 C 
HETATM    2  C   UNL     1       8.583  29.401  57.901  1.00  0.00     0.078 A 
HETATM    3  O   UNL     1       8.906  28.121  57.538  1.00  0.00    -0.294 OA
HETATM    4  C   UNL     1       7.703  27.513  57.274  1.00  0.00     0.182 A 
HETATM    5  N   UNL     1       6.672  28.301  57.495  1.00  0.00    -0.224 NA
HETATM    6  C   UNL     1       7.214  29.515  57.839  1.00  0.00     0.092 A 
ENDROOT
BRANCH   6   7
HETATM    7  C   UNL     1       6.305  30.677  58.009  1.00  0.00     0.296 C 
BRANCH   7   8
HETATM    8  N   UNL     1       4.952  30.423  57.369  1.00  0.00    -0.065 N 
HETATM    9  H   UNL     1       4.883  29.386  57.401  1.00  0.00     0.280 HD
HETATM   10  C   UNL     1       4.891  30.818  55.937  1.00  0.00     0.270 C 
BRANCH   8  11
HETATM   11  C   UNL     1       3.749  30.844  58.179  1.00  0.00     0.280 C 
BRANCH  11  12
HETATM   12  C   UNL     1       3.834  32.180  58.868  1.00  0.00     0.009 A 
HETATM   13  S   UNL     1       4.020  32.291  60.568  1.00  0.00    -0.096 SA
HETATM   14  C   UNL     1       4.207  33.997  60.517  1.00  0.00     0.009 A 
HETATM   15  C   UNL     1       4.061  34.476  59.231  1.00  0.00     0.017 A 
HETATM   16  C   UNL     1       3.865  33.431  58.281  1.00  0.00     0.017 A 
BRANCH  14  17
HETATM   17  C   UNL     1       4.502  34.775  61.767  1.00  0.00     0.280 C 
BRANCH  17  18
HETATM   18  N   UNL     1       5.321  33.997  62.778  1.00  0.00    -0.067 N 
HETATM   19  H   UNL     1       4.928  33.047  62.783  1.00  0.00     0.280 HD
HETATM   20  C   UNL     1       6.781  33.882  62.399  1.00  0.00     0.235 C 
HETATM   21  C   UNL     1       7.484  32.961  63.387  1.00  0.00     0.028 C 
HETATM   22  C   UNL     1       7.320  33.444  64.823  1.00  0.00     0.003 C 
HETATM   23  C   UNL     1       5.850  33.650  65.173  1.00  0.00     0.028 C 
HETATM   24  C   UNL     1       5.152  34.560  64.172  1.00  0.00     0.235 C 
ENDBRANCH  17  18
ENDBRANCH  14  17
ENDBRANCH  11  12
ENDBRANCH   8  11
ENDBRANCH   7   8
ENDBRANCH   6   7
BRANCH   4  25
HETATM   25  C   UNL     1       7.736  26.137  56.780  1.00  0.00     0.044 A 
HETATM   26  C   UNL     1       7.011  25.720  55.641  1.00  0.00     0.057 A 
HETATM   27  C   UNL     1       7.062  24.382  55.222  1.00  0.00     0.031 A 
HETATM   28  C   UNL     1       7.831  23.451  55.917  1.00  0.00     0.002 A 
HETATM   29  C   UNL     1       8.553  23.847  57.037  1.00  0.00     0.001 A 
HETATM   30  C   UNL     1       8.505  25.176  57.465  1.00  0.00     0.018 A 
BRANCH  26  31
HETATM   31  N   UNL     1       6.169  26.606  54.886  1.00  0.00    -0.284 N 
HETATM   32  H   UNL     1       5.199  26.299  54.801  1.00  0.00     0.178 HD
BRANCH  31  33
HETATM   33  S   UNL     1       6.754  27.292  53.461  1.00  0.00     0.227 S 
HETATM   34  C   UNL     1       5.504  28.494  53.048  1.00  0.00     0.186 C 
HETATM   35  O   UNL     1       7.956  28.005  53.858  1.00  0.00    -0.206 OA
HETATM   36  O   UNL     1       6.849  26.308  52.407  1.00  0.00    -0.206 OA
ENDBRANCH  31  33
ENDBRANCH  26  31
ENDBRANCH   4  25
TORSDOF 9
ENDMDL
