MODEL 1
REMARK VINA RESULT:      -9.8      0.000      0.000
REMARK  8 active torsions:
REMARK  status: ('A' for Active; 'I' for Inactive)
REMARK    1  A    between atoms: C_4  and  C_5 
REMARK    2  A    between atoms: C_5  and  C_6 
REMARK    3  A    between atoms: C_6  and  C_7 
REMARK    4  A    between atoms: C_7  and  N_8 
REMARK    5  A    between atoms: C_17  and  C_18 
REMARK    6  A    between atoms: C_18  and  N_19 
REMARK    7  A    between atoms: C_23  and  O_24 
REMARK    8  A    between atoms: C_23  and  C_25 
ROOT
HETATM    1  N   UNL     1       7.537  24.844  57.419  1.00  0.00    -0.065 N 
HETATM    2  H   UNL     1       7.283  24.892  58.413  1.00  0.00     0.280 HD
HETATM    3  C   UNL     1       6.211  24.723  56.691  1.00  0.00     0.276 C 
HETATM    4  C   UNL     1       6.289  24.766  55.189  1.00  0.00     0.001 A 
HETATM    5  C   UNL     1       6.990  23.781  54.490  1.00  0.00     0.076 A 
HETATM    6  O   UNL     1       7.596  22.747  55.146  1.00  0.00    -0.349 OA
HETATM    7  C   UNL     1       8.741  23.183  55.889  1.00  0.00     0.203 C 
HETATM    8  C   UNL     1       8.362  23.560  57.325  1.00  0.00     0.261 C 
HETATM    9  C   UNL     1       5.623  25.763  54.452  1.00  0.00     0.020 A 
HETATM   10  C   UNL     1       5.660  25.780  53.042  1.00  0.00    -0.032 A 
HETATM   11  C   UNL     1       6.376  24.776  52.375  1.00  0.00     0.011 A 
HETATM   12  C   UNL     1       7.022  23.772  53.098  1.00  0.00     0.038 A 
ENDROOT
BRANCH  10  13
HETATM   13  C   UNL     1       4.941  26.862  52.271  1.00  0.00     0.273 C 
BRANCH  13  14
HETATM   14  N   UNL     1       5.378  27.033  50.825  1.00  0.00    -0.067 N 
HETATM   15  H   UNL     1       6.343  26.675  50.766  1.00  0.00     0.280 HD
HETATM   16  C   UNL     1       4.547  26.230  49.852  1.00  0.00     0.238 C 
HETATM   17  C   UNL     1       5.048  26.455  48.438  1.00  0.00     0.071 C 
HETATM   18  C   UNL     1       4.951  27.939  48.029  1.00  0.00     0.089 C 
HETATM   19  C   UNL     1       5.832  28.718  49.026  1.00  0.00     0.071 C 
HETATM   20  C   UNL     1       5.424  28.507  50.476  1.00  0.00     0.238 C 
BRANCH  18  21
HETATM   21  O   UNL     1       5.591  28.050  46.757  1.00  0.00    -0.385 OA
HETATM   22  H   UNL     1       5.229  27.388  46.138  1.00  0.00     0.211 HD
ENDBRANCH  18  21
BRANCH  18  23
HETATM   23  C   UNL     1       3.509  28.413  47.883  1.00  0.00    -0.006 A 
HETATM   24  C   UNL     1       3.061  29.653  48.336  1.00  0.00     0.126 A 
HETATM   25  N   UNL     1       1.777  30.066  48.297  1.00  0.00    -0.272 NA
HETATM   26  C   UNL     1       0.881  29.258  47.698  1.00  0.00     0.116 A 
HETATM   27  C   UNL     1       1.219  28.036  47.150  1.00  0.00     0.020 A 
HETATM   28  C   UNL     1       2.545  27.617  47.242  1.00  0.00     0.013 A 
ENDBRANCH  18  23
ENDBRANCH  13  14
ENDBRANCH  10  13
BRANCH   1  29
HETATM   29  C   UNL     1       8.354  26.087  57.129  1.00  0.00     0.236 C 
BRANCH  29  30
HETATM   30  C   UNL     1       7.599  27.394  57.361  1.00  0.00     0.039 C 
BRANCH  30  31
HETATM   31  C   UNL     1       7.896  28.533  56.369  1.00  0.00     0.040 C 
HETATM   32  C   UNL     1       6.652  29.368  56.066  1.00  0.00     0.017 C 
BRANCH  31  33
HETATM   33  C   UNL     1       9.019  29.363  56.900  1.00  0.00     0.057 A 
HETATM   34  O   UNL     1       8.673  30.264  57.870  1.00  0.00    -0.319 OA
HETATM   35  C   UNL     1       9.815  30.913  58.237  1.00  0.00     0.049 A 
HETATM   36  C   UNL     1       9.701  31.925  59.307  1.00  0.00     0.076 C 
HETATM   37  C   UNL     1      10.881  30.452  57.497  1.00  0.00     0.035 A 
HETATM   38  C   UNL     1      10.369  29.457  56.631  1.00  0.00     0.035 A 
ENDBRANCH  31  33
ENDBRANCH  30  31
ENDBRANCH  29  30
ENDBRANCH   1  29
TORSDOF 8
ENDMDL
MODEL 2
REMARK VINA RESULT:      -9.7      1.533      4.931
REMARK  8 active torsions:
REMARK  status: ('A' for Active; 'I' for Inactive)
REMARK    1  A    between atoms: C_4  and  C_5 
REMARK    2  A    between atoms: C_5  and  C_6 
REMARK    3  A    between atoms: C_6  and  C_7 
REMARK    4  A    between atoms: C_7  and  N_8 
REMARK    5  A    between atoms: C_17  and  C_18 
REMARK    6  A    between atoms: C_18  and  N_19 
REMARK    7  A    between atoms: C_23  and  O_24 
REMARK    8  A    between atoms: C_23  and  C_25 
ROOT
HETATM    1  N   UNL     1       8.461  27.946  57.031  1.00  0.00    -0.065 N 
HETATM    2  H   UNL     1       9.467  27.746  57.093  1.00  0.00     0.280 HD
HETATM    3  C   UNL     1       8.241  28.363  55.590  1.00  0.00     0.276 C 
HETATM    4  C   UNL     1       6.809  28.590  55.191  1.00  0.00     0.001 A 
HETATM    5  C   UNL     1       6.055  29.592  55.804  1.00  0.00     0.076 A 
HETATM    6  O   UNL     1       6.603  30.404  56.756  1.00  0.00    -0.349 OA
HETATM    7  C   UNL     1       6.856  29.700  57.979  1.00  0.00     0.203 C 
HETATM    8  C   UNL     1       8.270  29.113  58.001  1.00  0.00     0.261 C 
HETATM    9  C   UNL     1       6.209  27.838  54.163  1.00  0.00     0.020 A 
HETATM   10  C   UNL     1       4.879  28.077  53.759  1.00  0.00    -0.032 A 
HETATM   11  C   UNL     1       4.153  29.091  54.400  1.00  0.00     0.011 A 
HETATM   12  C   UNL     1       4.747  29.855  55.406  1.00  0.00     0.038 A 
ENDROOT
BRANCH  10  13
HETATM   13  C   UNL     1       4.255  27.254  52.657  1.00  0.00     0.273 C 
BRANCH  13  14
HETATM   14  N   UNL     1       4.950  27.337  51.308  1.00  0.00    -0.067 N 
HETATM   15  H   UNL     1       5.952  27.171  51.482  1.00  0.00     0.280 HD
HETATM   16  C   UNL     1       4.489  26.279  50.334  1.00  0.00     0.238 C 
HETATM   17  C   UNL     1       5.230  26.431  49.018  1.00  0.00     0.071 C 
HETATM   18  C   UNL     1       4.972  27.808  48.375  1.00  0.00     0.089 C 
HETATM   19  C   UNL     1       5.480  28.856  49.385  1.00  0.00     0.071 C 
HETATM   20  C   UNL     1       4.819  28.740  50.750  1.00  0.00     0.238 C 
BRANCH  18  21
HETATM   21  O   UNL     1       5.837  27.893  47.241  1.00  0.00    -0.385 OA
HETATM   22  H   UNL     1       6.358  27.073  47.153  1.00  0.00     0.211 HD
ENDBRANCH  18  21
BRANCH  18  23
HETATM   23  C   UNL     1       3.534  27.970  47.894  1.00  0.00    -0.006 A 
HETATM   24  C   UNL     1       2.827  29.168  47.985  1.00  0.00     0.126 A 
HETATM   25  N   UNL     1       1.529  29.321  47.647  1.00  0.00    -0.272 NA
HETATM   26  C   UNL     1       0.899  28.262  47.101  1.00  0.00     0.116 A 
HETATM   27  C   UNL     1       1.516  27.044  46.898  1.00  0.00     0.020 A 
HETATM   28  C   UNL     1       2.844  26.902  47.295  1.00  0.00     0.013 A 
ENDBRANCH  18  23
ENDBRANCH  13  14
ENDBRANCH  10  13
BRANCH   1  29
HETATM   29  C   UNL     1       7.750  26.687  57.486  1.00  0.00     0.236 C 
BRANCH  29  30
HETATM   30  C   UNL     1       8.204  25.423  56.759  1.00  0.00     0.039 C 
BRANCH  30  31
HETATM   31  C   UNL     1       7.090  24.447  56.337  1.00  0.00     0.040 C 
HETATM   32  C   UNL     1       5.705  25.091  56.413  1.00  0.00     0.017 C 
BRANCH  31  33
HETATM   33  C   UNL     1       7.394  23.919  54.973  1.00  0.00     0.057 A 
HETATM   34  O   UNL     1       7.508  22.559  54.884  1.00  0.00    -0.319 OA
HETATM   35  C   UNL     1       7.770  22.265  53.578  1.00  0.00     0.049 A 
HETATM   36  C   UNL     1       7.906  20.839  53.221  1.00  0.00     0.076 C 
HETATM   37  C   UNL     1       7.847  23.425  52.838  1.00  0.00     0.035 A 
HETATM   38  C   UNL     1       7.609  24.491  53.736  1.00  0.00     0.035 A 
ENDBRANCH  31  33
ENDBRANCH  30  31
ENDBRANCH  29  30
ENDBRANCH   1  29
TORSDOF 8
ENDMDL
MODEL 3
REMARK VINA RESULT:      -9.5      5.485     12.161
REMARK  8 active torsions:
REMARK  status: ('A' for Active; 'I' for Inactive)
REMARK    1  A    between atoms: C_4  and  C_5 
REMARK    2  A    between atoms: C_5  and  C_6 
REMARK    3  A    between atoms: C_6  and  C_7 
REMARK    4  A    between atoms: C_7  and  N_8 
REMARK    5  A    between atoms: C_17  and  C_18 
REMARK    6  A    between atoms: C_18  and  N_19 
REMARK    7  A    between atoms: C_23  and  O_24 
REMARK    8  A    between atoms: C_23  and  C_25 
ROOT
HETATM    1  N   UNL     1       7.851  29.209  56.760  1.00  0.00    -0.065 N 
HETATM    2  H   UNL     1       7.212  29.042  55.973  1.00  0.00     0.280 HD
HETATM    3  C   UNL     1       7.411  30.542  57.335  1.00  0.00     0.276 C 
HETATM    4  C   UNL     1       8.109  30.967  58.597  1.00  0.00     0.001 A 
HETATM    5  C   UNL     1       9.486  31.195  58.601  1.00  0.00     0.076 A 
HETATM    6  O   UNL     1      10.225  31.065  57.459  1.00  0.00    -0.349 OA
HETATM    7  C   UNL     1      10.346  29.696  57.054  1.00  0.00     0.203 C 
HETATM    8  C   UNL     1       9.224  29.299  56.091  1.00  0.00     0.261 C 
HETATM    9  C   UNL     1       7.391  31.192  59.788  1.00  0.00     0.020 A 
HETATM   10  C   UNL     1       8.039  31.631  60.962  1.00  0.00    -0.032 A 
HETATM   11  C   UNL     1       9.423  31.847  60.927  1.00  0.00     0.011 A 
HETATM   12  C   UNL     1      10.139  31.646  59.745  1.00  0.00     0.038 A 
ENDROOT
BRANCH  10  13
HETATM   13  C   UNL     1       7.249  31.862  62.229  1.00  0.00     0.273 C 
BRANCH  13  14
HETATM   14  N   UNL     1       6.041  32.772  62.088  1.00  0.00    -0.067 N 
HETATM   15  H   UNL     1       5.735  32.705  61.106  1.00  0.00     0.280 HD
HETATM   16  C   UNL     1       4.871  32.348  62.945  1.00  0.00     0.238 C 
HETATM   17  C   UNL     1       3.711  33.305  62.744  1.00  0.00     0.071 C 
HETATM   18  C   UNL     1       4.087  34.747  63.140  1.00  0.00     0.089 C 
HETATM   19  C   UNL     1       5.261  35.151  62.226  1.00  0.00     0.071 C 
HETATM   20  C   UNL     1       6.452  34.210  62.332  1.00  0.00     0.238 C 
BRANCH  18  21
HETATM   21  O   UNL     1       2.984  35.571  62.761  1.00  0.00    -0.385 OA
HETATM   22  H   UNL     1       2.988  35.717  61.796  1.00  0.00     0.211 HD
ENDBRANCH  18  21
BRANCH  18  23
HETATM   23  C   UNL     1       4.309  34.904  64.640  1.00  0.00    -0.006 A 
HETATM   24  C   UNL     1       4.484  33.826  65.506  1.00  0.00     0.126 A 
HETATM   25  N   UNL     1       4.598  33.928  66.847  1.00  0.00    -0.272 NA
HETATM   26  C   UNL     1       4.633  35.167  67.376  1.00  0.00     0.116 A 
HETATM   27  C   UNL     1       4.538  36.313  66.612  1.00  0.00     0.020 A 
HETATM   28  C   UNL     1       4.379  36.176  65.234  1.00  0.00     0.013 A 
ENDBRANCH  18  23
ENDBRANCH  13  14
ENDBRANCH  10  13
BRANCH   1  29
HETATM   29  C   UNL     1       7.723  28.006  57.672  1.00  0.00     0.236 C 
BRANCH  29  30
HETATM   30  C   UNL     1       8.129  26.687  57.018  1.00  0.00     0.039 C 
BRANCH  30  31
HETATM   31  C   UNL     1       7.040  25.600  56.953  1.00  0.00     0.040 C 
HETATM   32  C   UNL     1       5.632  26.197  56.982  1.00  0.00     0.017 C 
BRANCH  31  33
HETATM   33  C   UNL     1       7.269  24.750  55.746  1.00  0.00     0.057 A 
HETATM   34  O   UNL     1       7.463  25.433  54.576  1.00  0.00    -0.319 OA
HETATM   35  C   UNL     1       7.666  24.503  53.600  1.00  0.00     0.049 A 
HETATM   36  C   UNL     1       7.933  25.004  52.237  1.00  0.00     0.076 C 
HETATM   37  C   UNL     1       7.581  23.234  54.129  1.00  0.00     0.035 A 
HETATM   38  C   UNL     1       7.320  23.392  55.510  1.00  0.00     0.035 A 
ENDBRANCH  31  33
ENDBRANCH  30  31
ENDBRANCH  29  30
ENDBRANCH   1  29
TORSDOF 8
ENDMDL
MODEL 4
REMARK VINA RESULT:      -9.4      1.556      2.592
REMARK  8 active torsions:
REMARK  status: ('A' for Active; 'I' for Inactive)
REMARK    1  A    between atoms: C_4  and  C_5 
REMARK    2  A    between atoms: C_5  and  C_6 
REMARK    3  A    between atoms: C_6  and  C_7 
REMARK    4  A    between atoms: C_7  and  N_8 
REMARK    5  A    between atoms: C_17  and  C_18 
REMARK    6  A    between atoms: C_18  and  N_19 
REMARK    7  A    between atoms: C_23  and  O_24 
REMARK    8  A    between atoms: C_23  and  C_25 
ROOT
HETATM    1  N   UNL     1       7.556  25.395  57.505  1.00  0.00    -0.065 N 
HETATM    2  H   UNL     1       7.334  25.539  58.499  1.00  0.00     0.280 HD
HETATM    3  C   UNL     1       6.209  25.190  56.838  1.00  0.00     0.276 C 
HETATM    4  C   UNL     1       6.237  25.085  55.338  1.00  0.00     0.001 A 
HETATM    5  C   UNL     1       6.926  24.043  54.716  1.00  0.00     0.076 A 
HETATM    6  O   UNL     1       7.566  23.084  55.449  1.00  0.00    -0.349 OA
HETATM    7  C   UNL     1       8.729  23.601  56.107  1.00  0.00     0.203 C 
HETATM    8  C   UNL     1       8.393  24.115  57.511  1.00  0.00     0.261 C 
HETATM    9  C   UNL     1       5.535  25.998  54.529  1.00  0.00     0.020 A 
HETATM   10  C   UNL     1       5.526  25.877  53.124  1.00  0.00    -0.032 A 
HETATM   11  C   UNL     1       6.232  24.818  52.535  1.00  0.00     0.011 A 
HETATM   12  C   UNL     1       6.914  23.896  53.332  1.00  0.00     0.038 A 
ENDROOT
BRANCH  10  13
HETATM   13  C   UNL     1       4.768  26.871  52.275  1.00  0.00     0.273 C 
BRANCH  13  14
HETATM   14  N   UNL     1       5.251  27.003  50.840  1.00  0.00    -0.067 N 
HETATM   15  H   UNL     1       6.202  26.608  50.811  1.00  0.00     0.280 HD
HETATM   16  C   UNL     1       4.415  26.218  49.855  1.00  0.00     0.238 C 
HETATM   17  C   UNL     1       4.962  26.403  48.452  1.00  0.00     0.071 C 
HETATM   18  C   UNL     1       4.934  27.883  48.021  1.00  0.00     0.089 C 
HETATM   19  C   UNL     1       5.817  28.643  49.030  1.00  0.00     0.071 C 
HETATM   20  C   UNL     1       5.363  28.469  50.471  1.00  0.00     0.238 C 
BRANCH  18  21
HETATM   21  O   UNL     1       5.612  27.950  46.765  1.00  0.00    -0.385 OA
HETATM   22  H   UNL     1       5.024  28.328  46.084  1.00  0.00     0.211 HD
ENDBRANCH  18  21
BRANCH  18  23
HETATM   23  C   UNL     1       3.516  28.410  47.828  1.00  0.00    -0.006 A 
HETATM   24  C   UNL     1       3.138  29.718  48.126  1.00  0.00     0.126 A 
HETATM   25  N   UNL     1       1.876  30.190  48.047  1.00  0.00    -0.272 NA
HETATM   26  C   UNL     1       0.932  29.361  47.561  1.00  0.00     0.116 A 
HETATM   27  C   UNL     1       1.199  28.065  47.168  1.00  0.00     0.020 A 
HETATM   28  C   UNL     1       2.503  27.591  47.300  1.00  0.00     0.013 A 
ENDBRANCH  18  23
ENDBRANCH  13  14
ENDBRANCH  10  13
BRANCH   1  29
HETATM   29  C   UNL     1       8.349  26.610  57.068  1.00  0.00     0.236 C 
BRANCH  29  30
HETATM   30  C   UNL     1       7.713  27.940  57.466  1.00  0.00     0.039 C 
BRANCH  30  31
HETATM   31  C   UNL     1       7.473  28.945  56.324  1.00  0.00     0.040 C 
HETATM   32  C   UNL     1       8.143  28.503  55.022  1.00  0.00     0.017 C 
BRANCH  31  33
HETATM   33  C   UNL     1       6.003  29.155  56.160  1.00  0.00     0.057 A 
HETATM   34  O   UNL     1       5.600  29.522  54.905  1.00  0.00    -0.319 OA
HETATM   35  C   UNL     1       4.242  29.654  54.945  1.00  0.00     0.049 A 
HETATM   36  C   UNL     1       3.563  30.017  53.685  1.00  0.00     0.076 C 
HETATM   37  C   UNL     1       3.778  29.398  56.217  1.00  0.00     0.035 A 
HETATM   38  C   UNL     1       4.912  29.082  57.002  1.00  0.00     0.035 A 
ENDBRANCH  31  33
ENDBRANCH  30  31
ENDBRANCH  29  30
ENDBRANCH   1  29
TORSDOF 8
ENDMDL
MODEL 5
REMARK VINA RESULT:      -9.2      1.989      5.154
REMARK  8 active torsions:
REMARK  status: ('A' for Active; 'I' for Inactive)
REMARK    1  A    between atoms: C_4  and  C_5 
REMARK    2  A    between atoms: C_5  and  C_6 
REMARK    3  A    between atoms: C_6  and  C_7 
REMARK    4  A    between atoms: C_7  and  N_8 
REMARK    5  A    between atoms: C_17  and  C_18 
REMARK    6  A    between atoms: C_18  and  N_19 
REMARK    7  A    between atoms: C_23  and  O_24 
REMARK    8  A    between atoms: C_23  and  C_25 
ROOT
HETATM    1  N   UNL     1       8.416  27.938  56.990  1.00  0.00    -0.065 N 
HETATM    2  H   UNL     1       9.372  27.573  56.905  1.00  0.00     0.280 HD
HETATM    3  C   UNL     1       8.119  28.552  55.635  1.00  0.00     0.276 C 
HETATM    4  C   UNL     1       6.713  29.052  55.443  1.00  0.00     0.001 A 
HETATM    5  C   UNL     1       6.215  30.084  56.242  1.00  0.00     0.076 A 
HETATM    6  O   UNL     1       6.995  30.678  57.193  1.00  0.00    -0.349 OA
HETATM    7  C   UNL     1       7.251  29.803  58.299  1.00  0.00     0.203 C 
HETATM    8  C   UNL     1       8.536  28.998  58.086  1.00  0.00     0.261 C 
HETATM    9  C   UNL     1       5.886  28.533  54.430  1.00  0.00     0.020 A 
HETATM   10  C   UNL     1       4.582  29.030  54.222  1.00  0.00    -0.032 A 
HETATM   11  C   UNL     1       4.116  30.064  55.045  1.00  0.00     0.011 A 
HETATM   12  C   UNL     1       4.938  30.599  56.039  1.00  0.00     0.038 A 
ENDROOT
BRANCH  10  13
HETATM   13  C   UNL     1       3.710  28.455  53.130  1.00  0.00     0.273 C 
BRANCH  13  14
HETATM   14  N   UNL     1       3.652  29.266  51.846  1.00  0.00    -0.067 N 
HETATM   15  H   UNL     1       3.781  30.252  52.115  1.00  0.00     0.280 HD
HETATM   16  C   UNL     1       4.759  28.924  50.875  1.00  0.00     0.238 C 
HETATM   17  C   UNL     1       4.630  29.775  49.626  1.00  0.00     0.071 C 
HETATM   18  C   UNL     1       3.285  29.538  48.911  1.00  0.00     0.089 C 
HETATM   19  C   UNL     1       2.187  29.924  49.922  1.00  0.00     0.071 C 
HETATM   20  C   UNL     1       2.275  29.146  51.226  1.00  0.00     0.238 C 
BRANCH  18  21
HETATM   21  O   UNL     1       3.213  30.498  47.856  1.00  0.00    -0.385 OA
HETATM   22  H   UNL     1       2.767  31.308  48.167  1.00  0.00     0.211 HD
ENDBRANCH  18  21
BRANCH  18  23
HETATM   23  C   UNL     1       3.184  28.145  48.299  1.00  0.00    -0.006 A 
HETATM   24  C   UNL     1       4.293  27.412  47.877  1.00  0.00     0.126 A 
HETATM   25  N   UNL     1       4.231  26.215  47.256  1.00  0.00    -0.272 NA
HETATM   26  C   UNL     1       3.016  25.651  47.112  1.00  0.00     0.116 A 
HETATM   27  C   UNL     1       1.852  26.250  47.551  1.00  0.00     0.020 A 
HETATM   28  C   UNL     1       1.942  27.505  48.152  1.00  0.00     0.013 A 
ENDBRANCH  18  23
ENDBRANCH  13  14
ENDBRANCH  10  13
BRANCH   1  29
HETATM   29  C   UNL     1       7.550  26.765  57.403  1.00  0.00     0.236 C 
BRANCH  29  30
HETATM   30  C   UNL     1       7.844  25.477  56.637  1.00  0.00     0.039 C 
BRANCH  30  31
HETATM   31  C   UNL     1       6.643  24.818  55.933  1.00  0.00     0.040 C 
HETATM   32  C   UNL     1       5.312  25.410  56.397  1.00  0.00     0.017 C 
BRANCH  31  33
HETATM   33  C   UNL     1       6.825  24.926  54.454  1.00  0.00     0.057 A 
HETATM   34  O   UNL     1       5.672  25.064  53.730  1.00  0.00    -0.319 OA
HETATM   35  C   UNL     1       6.034  25.158  52.418  1.00  0.00     0.049 A 
HETATM   36  C   UNL     1       4.951  25.348  51.433  1.00  0.00     0.076 C 
HETATM   37  C   UNL     1       7.402  25.059  52.295  1.00  0.00     0.035 A 
HETATM   38  C   UNL     1       7.913  24.904  53.605  1.00  0.00     0.035 A 
ENDBRANCH  31  33
ENDBRANCH  30  31
ENDBRANCH  29  30
ENDBRANCH   1  29
TORSDOF 8
ENDMDL
MODEL 6
REMARK VINA RESULT:      -9.0      4.787     10.770
REMARK  8 active torsions:
REMARK  status: ('A' for Active; 'I' for Inactive)
REMARK    1  A    between atoms: C_4  and  C_5 
REMARK    2  A    between atoms: C_5  and  C_6 
REMARK    3  A    between atoms: C_6  and  C_7 
REMARK    4  A    between atoms: C_7  and  N_8 
REMARK    5  A    between atoms: C_17  and  C_18 
REMARK    6  A    between atoms: C_18  and  N_19 
REMARK    7  A    between atoms: C_23  and  O_24 
REMARK    8  A    between atoms: C_23  and  C_25 
ROOT
HETATM    1  N   UNL     1       5.083  27.192  54.793  1.00  0.00    -0.065 N 
HETATM    2  H   UNL     1       4.890  26.187  54.894  1.00  0.00     0.280 HD
HETATM    3  C   UNL     1       4.580  27.811  56.082  1.00  0.00     0.276 C 
HETATM    4  C   UNL     1       4.863  29.279  56.251  1.00  0.00     0.001 A 
HETATM    5  C   UNL     1       4.323  30.209  55.361  1.00  0.00     0.076 A 
HETATM    6  O   UNL     1       3.509  29.815  54.337  1.00  0.00    -0.349 OA
HETATM    7  C   UNL     1       4.230  29.105  53.323  1.00  0.00     0.203 C 
HETATM    8  C   UNL     1       4.229  27.597  53.590  1.00  0.00     0.261 C 
HETATM    9  C   UNL     1       5.632  29.754  57.330  1.00  0.00     0.020 A 
HETATM   10  C   UNL     1       5.863  31.134  57.513  1.00  0.00    -0.032 A 
HETATM   11  C   UNL     1       5.307  32.037  56.597  1.00  0.00     0.011 A 
HETATM   12  C   UNL     1       4.525  31.575  55.536  1.00  0.00     0.038 A 
ENDROOT
BRANCH  10  13
HETATM   13  C   UNL     1       6.695  31.622  58.676  1.00  0.00     0.273 C 
BRANCH  13  14
HETATM   14  N   UNL     1       5.971  31.693  60.011  1.00  0.00    -0.067 N 
HETATM   15  H   UNL     1       5.857  30.722  60.336  1.00  0.00     0.280 HD
HETATM   16  C   UNL     1       6.755  32.426  61.075  1.00  0.00     0.238 C 
HETATM   17  C   UNL     1       5.965  32.451  62.371  1.00  0.00     0.071 C 
HETATM   18  C   UNL     1       4.613  33.170  62.200  1.00  0.00     0.089 C 
HETATM   19  C   UNL     1       3.836  32.378  61.130  1.00  0.00     0.071 C 
HETATM   20  C   UNL     1       4.583  32.265  59.810  1.00  0.00     0.238 C 
BRANCH  18  21
HETATM   21  O   UNL     1       3.902  32.990  63.426  1.00  0.00    -0.385 OA
HETATM   22  H   UNL     1       4.217  33.627  64.095  1.00  0.00     0.211 HD
ENDBRANCH  18  21
BRANCH  18  23
HETATM   23  C   UNL     1       4.772  34.666  61.954  1.00  0.00    -0.006 A 
HETATM   24  C   UNL     1       4.052  35.364  60.985  1.00  0.00     0.126 A 
HETATM   25  N   UNL     1       4.230  36.668  60.686  1.00  0.00    -0.272 NA
HETATM   26  C   UNL     1       5.105  37.364  61.438  1.00  0.00     0.116 A 
HETATM   27  C   UNL     1       5.826  36.799  62.471  1.00  0.00     0.020 A 
HETATM   28  C   UNL     1       5.652  35.440  62.729  1.00  0.00     0.013 A 
ENDBRANCH  18  23
ENDBRANCH  13  14
ENDBRANCH  10  13
BRANCH   1  29
HETATM   29  C   UNL     1       6.569  27.312  54.521  1.00  0.00     0.236 C 
BRANCH  29  30
HETATM   30  C   UNL     1       7.320  25.984  54.581  1.00  0.00     0.039 C 
BRANCH  30  31
HETATM   31  C   UNL     1       6.926  24.934  53.526  1.00  0.00     0.040 C 
HETATM   32  C   UNL     1       7.533  25.242  52.157  1.00  0.00     0.017 C 
BRANCH  31  33
HETATM   33  C   UNL     1       7.306  23.577  54.021  1.00  0.00     0.057 A 
HETATM   34  O   UNL     1       7.636  22.670  53.051  1.00  0.00    -0.319 OA
HETATM   35  C   UNL     1       7.963  21.508  53.686  1.00  0.00     0.049 A 
HETATM   36  C   UNL     1       8.391  20.375  52.841  1.00  0.00     0.076 C 
HETATM   37  C   UNL     1       7.824  21.657  55.049  1.00  0.00     0.035 A 
HETATM   38  C   UNL     1       7.396  22.987  55.266  1.00  0.00     0.035 A 
ENDBRANCH  31  33
ENDBRANCH  30  31
ENDBRANCH  29  30
ENDBRANCH   1  29
TORSDOF 8
ENDMDL
MODEL 7
REMARK VINA RESULT:      -9.0      5.411     10.402
REMARK  8 active torsions:
REMARK  status: ('A' for Active; 'I' for Inactive)
REMARK    1  A    between atoms: C_4  and  C_5 
REMARK    2  A    between atoms: C_5  and  C_6 
REMARK    3  A    between atoms: C_6  and  C_7 
REMARK    4  A    between atoms: C_7  and  N_8 
REMARK    5  A    between atoms: C_17  and  C_18 
REMARK    6  A    between atoms: C_18  and  N_19 
REMARK    7  A    between atoms: C_23  and  O_24 
REMARK    8  A    between atoms: C_23  and  C_25 
ROOT
HETATM    1  N   UNL     1       7.998  29.683  57.210  1.00  0.00    -0.065 N 
HETATM    2  H   UNL     1       7.413  29.547  56.376  1.00  0.00     0.280 HD
HETATM    3  C   UNL     1       7.434  30.923  57.876  1.00  0.00     0.276 C 
HETATM    4  C   UNL     1       8.036  31.275  59.209  1.00  0.00     0.001 A 
HETATM    5  C   UNL     1       9.391  31.595  59.310  1.00  0.00     0.076 A 
HETATM    6  O   UNL     1      10.193  31.623  58.204  1.00  0.00    -0.349 OA
HETATM    7  C   UNL     1      10.434  30.309  57.685  1.00  0.00     0.203 C 
HETATM    8  C   UNL     1       9.392  29.928  56.629  1.00  0.00     0.261 C 
HETATM    9  C   UNL     1       7.246  31.338  60.373  1.00  0.00     0.020 A 
HETATM   10  C   UNL     1       7.801  31.708  61.616  1.00  0.00    -0.032 A 
HETATM   11  C   UNL     1       9.166  32.020  61.678  1.00  0.00     0.011 A 
HETATM   12  C   UNL     1       9.951  31.980  60.524  1.00  0.00     0.038 A 
ENDROOT
BRANCH  10  13
HETATM   13  C   UNL     1       6.935  31.766  62.853  1.00  0.00     0.273 C 
BRANCH  13  14
HETATM   14  N   UNL     1       5.834  32.813  62.830  1.00  0.00    -0.067 N 
HETATM   15  H   UNL     1       5.672  33.092  63.809  1.00  0.00     0.280 HD
HETATM   16  C   UNL     1       6.217  34.063  62.071  1.00  0.00     0.238 C 
HETATM   17  C   UNL     1       5.068  35.054  62.097  1.00  0.00     0.071 C 
HETATM   18  C   UNL     1       3.800  34.473  61.440  1.00  0.00     0.089 C 
HETATM   19  C   UNL     1       3.428  33.220  62.257  1.00  0.00     0.071 C 
HETATM   20  C   UNL     1       4.548  32.193  62.322  1.00  0.00     0.238 C 
BRANCH  18  21
HETATM   21  O   UNL     1       2.757  35.423  61.666  1.00  0.00    -0.385 OA
HETATM   22  H   UNL     1       2.259  35.579  60.842  1.00  0.00     0.211 HD
ENDBRANCH  18  21
BRANCH  18  23
HETATM   23  C   UNL     1       3.955  34.281  59.936  1.00  0.00    -0.006 A 
HETATM   24  C   UNL     1       4.106  35.338  59.040  1.00  0.00     0.126 A 
HETATM   25  N   UNL     1       4.160  35.206  57.698  1.00  0.00    -0.272 NA
HETATM   26  C   UNL     1       4.157  33.955  57.196  1.00  0.00     0.116 A 
HETATM   27  C   UNL     1       4.080  32.827  57.988  1.00  0.00     0.020 A 
HETATM   28  C   UNL     1       3.983  32.995  59.368  1.00  0.00     0.013 A 
ENDBRANCH  18  23
ENDBRANCH  13  14
ENDBRANCH  10  13
BRANCH   1  29
HETATM   29  C   UNL     1       7.914  28.394  58.002  1.00  0.00     0.236 C 
BRANCH  29  30
HETATM   30  C   UNL     1       8.302  27.150  57.204  1.00  0.00     0.039 C 
BRANCH  30  31
HETATM   31  C   UNL     1       7.285  25.994  57.215  1.00  0.00     0.040 C 
HETATM   32  C   UNL     1       5.920  26.427  56.680  1.00  0.00     0.017 C 
BRANCH  31  33
HETATM   33  C   UNL     1       7.851  24.840  56.453  1.00  0.00     0.057 A 
HETATM   34  O   UNL     1       7.571  24.828  55.114  1.00  0.00    -0.319 OA
HETATM   35  C   UNL     1       8.173  23.721  54.590  1.00  0.00     0.049 A 
HETATM   36  C   UNL     1       8.039  23.506  53.136  1.00  0.00     0.076 C 
HETATM   37  C   UNL     1       8.814  23.015  55.585  1.00  0.00     0.035 A 
HETATM   38  C   UNL     1       8.603  23.732  56.786  1.00  0.00     0.035 A 
ENDBRANCH  31  33
ENDBRANCH  30  31
ENDBRANCH  29  30
ENDBRANCH   1  29
TORSDOF 8
ENDMDL
MODEL 8
REMARK VINA RESULT:      -8.8      1.568      2.015
REMARK  8 active torsions:
REMARK  status: ('A' for Active; 'I' for Inactive)
REMARK    1  A    between atoms: C_4  and  C_5 
REMARK    2  A    between atoms: C_5  and  C_6 
REMARK    3  A    between atoms: C_6  and  C_7 
REMARK    4  A    between atoms: C_7  and  N_8 
REMARK    5  A    between atoms: C_17  and  C_18 
REMARK    6  A    between atoms: C_18  and  N_19 
REMARK    7  A    between atoms: C_23  and  O_24 
REMARK    8  A    between atoms: C_23  and  C_25 
ROOT
HETATM    1  N   UNL     1       7.270  25.712  57.403  1.00  0.00    -0.065 N 
HETATM    2  H   UNL     1       6.913  25.959  58.335  1.00  0.00     0.280 HD
HETATM    3  C   UNL     1       6.097  25.047  56.708  1.00  0.00     0.276 C 
HETATM    4  C   UNL     1       6.314  24.700  55.260  1.00  0.00     0.001 A 
HETATM    5  C   UNL     1       7.304  23.787  54.893  1.00  0.00     0.076 A 
HETATM    6  O   UNL     1       8.079  23.172  55.835  1.00  0.00    -0.349 OA
HETATM    7  C   UNL     1       8.998  24.083  56.450  1.00  0.00     0.203 C 
HETATM    8  C   UNL     1       8.395  24.720  57.705  1.00  0.00     0.261 C 
HETATM    9  C   UNL     1       5.497  25.242  54.250  1.00  0.00     0.020 A 
HETATM   10  C   UNL     1       5.672  24.885  52.896  1.00  0.00    -0.032 A 
HETATM   11  C   UNL     1       6.679  23.968  52.566  1.00  0.00     0.011 A 
HETATM   12  C   UNL     1       7.479  23.409  53.565  1.00  0.00     0.038 A 
ENDROOT
BRANCH  10  13
HETATM   13  C   UNL     1       4.787  25.483  51.827  1.00  0.00     0.273 C 
BRANCH  13  14
HETATM   14  N   UNL     1       5.357  26.698  51.113  1.00  0.00    -0.067 N 
HETATM   15  H   UNL     1       6.375  26.551  51.050  1.00  0.00     0.280 HD
HETATM   16  C   UNL     1       4.843  26.854  49.701  1.00  0.00     0.238 C 
HETATM   17  C   UNL     1       5.460  28.085  49.062  1.00  0.00     0.071 C 
HETATM   18  C   UNL     1       5.104  29.368  49.838  1.00  0.00     0.089 C 
HETATM   19  C   UNL     1       5.668  29.181  51.260  1.00  0.00     0.071 C 
HETATM   20  C   UNL     1       5.134  27.938  51.956  1.00  0.00     0.238 C 
BRANCH  18  21
HETATM   21  O   UNL     1       5.862  30.423  49.243  1.00  0.00    -0.385 OA
HETATM   22  H   UNL     1       6.498  30.059  48.599  1.00  0.00     0.211 HD
ENDBRANCH  18  21
BRANCH  18  23
HETATM   23  C   UNL     1       3.625  29.724  49.736  1.00  0.00    -0.006 A 
HETATM   24  C   UNL     1       2.965  30.530  50.662  1.00  0.00     0.126 A 
HETATM   25  N   UNL     1       1.642  30.794  50.646  1.00  0.00    -0.272 NA
HETATM   26  C   UNL     1       0.925  30.315  49.611  1.00  0.00     0.116 A 
HETATM   27  C   UNL     1       1.481  29.562  48.595  1.00  0.00     0.020 A 
HETATM   28  C   UNL     1       2.842  29.271  48.660  1.00  0.00     0.013 A 
ENDBRANCH  18  23
ENDBRANCH  13  14
ENDBRANCH  10  13
BRANCH   1  29
HETATM   29  C   UNL     1       7.777  27.001  56.789  1.00  0.00     0.236 C 
BRANCH  29  30
HETATM   30  C   UNL     1       8.058  28.104  57.807  1.00  0.00     0.039 C 
BRANCH  30  31
HETATM   31  C   UNL     1       7.465  29.488  57.487  1.00  0.00     0.040 C 
HETATM   32  C   UNL     1       6.010  29.396  57.027  1.00  0.00     0.017 C 
BRANCH  31  33
HETATM   33  C   UNL     1       7.626  30.376  58.677  1.00  0.00     0.057 A 
HETATM   34  O   UNL     1       8.490  29.921  59.635  1.00  0.00    -0.319 OA
HETATM   35  C   UNL     1       8.517  30.858  60.626  1.00  0.00     0.049 A 
HETATM   36  C   UNL     1       9.415  30.603  61.770  1.00  0.00     0.076 C 
HETATM   37  C   UNL     1       7.663  31.895  60.321  1.00  0.00     0.035 A 
HETATM   38  C   UNL     1       7.085  31.584  59.068  1.00  0.00     0.035 A 
ENDBRANCH  31  33
ENDBRANCH  30  31
ENDBRANCH  29  30
ENDBRANCH   1  29
TORSDOF 8
ENDMDL
MODEL 9
REMARK VINA RESULT:      -8.8      1.747      2.482
REMARK  8 active torsions:
REMARK  status: ('A' for Active; 'I' for Inactive)
REMARK    1  A    between atoms: C_4  and  C_5 
REMARK    2  A    between atoms: C_5  and  C_6 
REMARK    3  A    between atoms: C_6  and  C_7 
REMARK    4  A    between atoms: C_7  and  N_8 
REMARK    5  A    between atoms: C_17  and  C_18 
REMARK    6  A    between atoms: C_18  and  N_19 
REMARK    7  A    between atoms: C_23  and  O_24 
REMARK    8  A    between atoms: C_23  and  C_25 
ROOT
HETATM    1  N   UNL     1       6.838  26.422  56.914  1.00  0.00    -0.065 N 
HETATM    2  H   UNL     1       6.533  26.756  57.837  1.00  0.00     0.280 HD
HETATM    3  C   UNL     1       5.588  26.472  56.057  1.00  0.00     0.276 C 
HETATM    4  C   UNL     1       5.786  26.152  54.600  1.00  0.00     0.001 A 
HETATM    5  C   UNL     1       6.243  24.892  54.210  1.00  0.00     0.076 A 
HETATM    6  O   UNL     1       6.495  23.917  55.132  1.00  0.00    -0.349 OA
HETATM    7  C   UNL     1       7.656  24.211  55.919  1.00  0.00     0.203 C 
HETATM    8  C   UNL     1       7.288  24.986  57.187  1.00  0.00     0.261 C 
HETATM    9  C   UNL     1       5.472  27.089  53.598  1.00  0.00     0.020 A 
HETATM   10  C   UNL     1       5.617  26.776  52.230  1.00  0.00    -0.032 A 
HETATM   11  C   UNL     1       6.082  25.502  51.877  1.00  0.00     0.011 A 
HETATM   12  C   UNL     1       6.375  24.559  52.865  1.00  0.00     0.038 A 
ENDROOT
BRANCH  10  13
HETATM   13  C   UNL     1       5.278  27.799  51.171  1.00  0.00     0.273 C 
BRANCH  13  14
HETATM   14  N   UNL     1       3.978  27.555  50.423  1.00  0.00    -0.067 N 
HETATM   15  H   UNL     1       3.473  26.822  50.942  1.00  0.00     0.280 HD
HETATM   16  C   UNL     1       3.078  28.768  50.381  1.00  0.00     0.238 C 
HETATM   17  C   UNL     1       1.807  28.441  49.620  1.00  0.00     0.071 C 
HETATM   18  C   UNL     1       2.105  28.025  48.166  1.00  0.00     0.089 C 
HETATM   19  C   UNL     1       2.999  26.772  48.252  1.00  0.00     0.071 C 
HETATM   20  C   UNL     1       4.277  27.004  49.044  1.00  0.00     0.238 C 
BRANCH  18  21
HETATM   21  O   UNL     1       0.863  27.593  47.607  1.00  0.00    -0.385 OA
HETATM   22  H   UNL     1       0.188  28.290  47.706  1.00  0.00     0.211 HD
ENDBRANCH  18  21
BRANCH  18  23
HETATM   23  C   UNL     1       2.634  29.180  47.322  1.00  0.00    -0.006 A 
HETATM   24  C   UNL     1       1.809  30.046  46.606  1.00  0.00     0.126 A 
HETATM   25  N   UNL     1       2.249  31.022  45.785  1.00  0.00    -0.272 NA
HETATM   26  C   UNL     1       3.579  31.230  45.722  1.00  0.00     0.116 A 
HETATM   27  C   UNL     1       4.492  30.481  46.439  1.00  0.00     0.020 A 
HETATM   28  C   UNL     1       4.011  29.452  47.247  1.00  0.00     0.013 A 
ENDBRANCH  18  23
ENDBRANCH  13  14
ENDBRANCH  10  13
BRANCH   1  29
HETATM   29  C   UNL     1       7.981  27.322  56.493  1.00  0.00     0.236 C 
BRANCH  29  30
HETATM   30  C   UNL     1       8.085  28.612  57.305  1.00  0.00     0.039 C 
BRANCH  30  31
HETATM   31  C   UNL     1       9.498  29.204  57.459  1.00  0.00     0.040 C 
HETATM   32  C   UNL     1      10.065  29.689  56.125  1.00  0.00     0.017 C 
BRANCH  31  33
HETATM   33  C   UNL     1       9.464  30.288  58.487  1.00  0.00     0.057 A 
HETATM   34  O   UNL     1       8.813  29.974  59.648  1.00  0.00    -0.319 OA
HETATM   35  C   UNL     1       8.896  31.067  60.460  1.00  0.00     0.049 A 
HETATM   36  C   UNL     1       8.286  30.959  61.800  1.00  0.00     0.076 C 
HETATM   37  C   UNL     1       9.573  32.082  59.820  1.00  0.00     0.035 A 
HETATM   38  C   UNL     1       9.936  31.583  58.547  1.00  0.00     0.035 A 
ENDBRANCH  31  33
ENDBRANCH  30  31
ENDBRANCH  29  30
ENDBRANCH   1  29
TORSDOF 8
ENDMDL
MODEL 10
REMARK VINA RESULT:      -8.7      3.037      8.196
REMARK  8 active torsions:
REMARK  status: ('A' for Active; 'I' for Inactive)
REMARK    1  A    between atoms: C_4  and  C_5 
REMARK    2  A    between atoms: C_5  and  C_6 
REMARK    3  A    between atoms: C_6  and  C_7 
REMARK    4  A    between atoms: C_7  and  N_8 
REMARK    5  A    between atoms: C_17  and  C_18 
REMARK    6  A    between atoms: C_18  and  N_19 
REMARK    7  A    between atoms: C_23  and  O_24 
REMARK    8  A    between atoms: C_23  and  C_25 
ROOT
HETATM    1  N   UNL     1       4.404  31.444  50.087  1.00  0.00    -0.065 N 
HETATM    2  H   UNL     1       4.785  32.271  50.563  1.00  0.00     0.280 HD
HETATM    3  C   UNL     1       5.490  30.393  50.216  1.00  0.00     0.276 C 
HETATM    4  C   UNL     1       5.131  29.024  49.708  1.00  0.00     0.001 A 
HETATM    5  C   UNL     1       4.825  28.828  48.360  1.00  0.00     0.076 A 
HETATM    6  O   UNL     1       4.869  29.863  47.470  1.00  0.00    -0.349 OA
HETATM    7  C   UNL     1       3.805  30.799  47.684  1.00  0.00     0.203 C 
HETATM    8  C   UNL     1       4.230  31.915  48.642  1.00  0.00     0.261 C 
HETATM    9  C   UNL     1       5.142  27.903  50.561  1.00  0.00     0.020 A 
HETATM   10  C   UNL     1       4.846  26.612  50.077  1.00  0.00    -0.032 A 
HETATM   11  C   UNL     1       4.541  26.455  48.718  1.00  0.00     0.011 A 
HETATM   12  C   UNL     1       4.548  27.558  47.862  1.00  0.00     0.038 A 
ENDROOT
BRANCH  10  13
HETATM   13  C   UNL     1       4.860  25.424  51.011  1.00  0.00     0.273 C 
BRANCH  13  14
HETATM   14  N   UNL     1       5.634  25.620  52.304  1.00  0.00    -0.067 N 
HETATM   15  H   UNL     1       5.521  26.610  52.567  1.00  0.00     0.280 HD
HETATM   16  C   UNL     1       5.098  24.794  53.451  1.00  0.00     0.238 C 
HETATM   17  C   UNL     1       5.922  25.049  54.699  1.00  0.00     0.071 C 
HETATM   18  C   UNL     1       7.401  24.666  54.492  1.00  0.00     0.089 C 
HETATM   19  C   UNL     1       7.917  25.548  53.337  1.00  0.00     0.071 C 
HETATM   20  C   UNL     1       7.110  25.387  52.057  1.00  0.00     0.238 C 
BRANCH  18  21
HETATM   21  O   UNL     1       8.097  25.095  55.664  1.00  0.00    -0.385 OA
HETATM   22  H   UNL     1       8.227  26.062  55.644  1.00  0.00     0.211 HD
ENDBRANCH  18  21
BRANCH  18  23
HETATM   23  C   UNL     1       7.602  23.163  54.340  1.00  0.00    -0.006 A 
HETATM   24  C   UNL     1       7.453  22.260  55.391  1.00  0.00     0.126 A 
HETATM   25  N   UNL     1       7.706  20.936  55.309  1.00  0.00    -0.272 NA
HETATM   26  C   UNL     1       8.040  20.441  54.101  1.00  0.00     0.116 A 
HETATM   27  C   UNL     1       8.152  21.226  52.971  1.00  0.00     0.020 A 
HETATM   28  C   UNL     1       7.926  22.596  53.095  1.00  0.00     0.013 A 
ENDBRANCH  18  23
ENDBRANCH  13  14
ENDBRANCH  10  13
BRANCH   1  29
HETATM   29  C   UNL     1       3.083  31.137  50.764  1.00  0.00     0.236 C 
BRANCH  29  30
HETATM   30  C   UNL     1       3.224  30.657  52.206  1.00  0.00     0.039 C 
BRANCH  30  31
HETATM   31  C   UNL     1       3.592  31.731  53.246  1.00  0.00     0.040 C 
HETATM   32  C   UNL     1       2.733  32.988  53.098  1.00  0.00     0.017 C 
BRANCH  31  33
HETATM   33  C   UNL     1       3.498  31.140  54.615  1.00  0.00     0.057 A 
HETATM   34  O   UNL     1       4.334  30.085  54.856  1.00  0.00    -0.319 OA
HETATM   35  C   UNL     1       4.119  29.691  56.144  1.00  0.00     0.049 A 
HETATM   36  C   UNL     1       4.939  28.574  56.653  1.00  0.00     0.076 C 
HETATM   37  C   UNL     1       3.137  30.468  56.719  1.00  0.00     0.035 A 
HETATM   38  C   UNL     1       2.733  31.399  55.733  1.00  0.00     0.035 A 
ENDBRANCH  31  33
ENDBRANCH  30  31
ENDBRANCH  29  30
ENDBRANCH   1  29
TORSDOF 8
ENDMDL
