MODEL 1
REMARK VINA RESULT:      -9.1      0.000      0.000
REMARK  7 active torsions:
REMARK  status: ('A' for Active; 'I' for Inactive)
REMARK    1  A    between atoms: C_2  and  O_3 
REMARK    2  A    between atoms: O_3  and  C_4 
REMARK    3  A    between atoms: C_4  and  C_5 
REMARK    4  A    between atoms: C_6  and  C_7 
REMARK    5  A    between atoms: C_18  and  S_19 
REMARK    6  A    between atoms: S_19  and  C_20 
REMARK    7  A    between atoms: C_20  and  C_21 
ROOT
HETATM    1  C   UNL     1       7.106  30.472  58.273  1.00  0.00     0.070 A 
HETATM    2  C   UNL     1       5.998  29.511  57.865  1.00  0.00     0.204 A 
HETATM    3  N   UNL     1       6.540  28.265  57.311  1.00  0.00    -0.082 N 
HETATM    4  C   UNL     1       7.876  27.989  57.207  1.00  0.00     0.726 A 
HETATM    5  N   UNL     1       8.771  28.904  57.623  1.00  0.00    -0.192 N 
HETATM    6  N   UNL     1       5.791  27.220  56.911  1.00  0.00    -0.128 NA
HETATM    7  C   UNL     1       6.742  26.378  56.489  1.00  0.00     0.226 A 
HETATM    8  N   UNL     1       8.034  26.800  56.684  1.00  0.00    -0.035 NA
HETATM    9  C   UNL     1       8.415  30.140  58.156  1.00  0.00     0.037 A 
HETATM   10  C   UNL     1       9.561  31.009  58.612  1.00  0.00     0.070 C 
HETATM   11  H   UNL     1       9.762  28.704  57.518  1.00  0.00     0.184 HD
ENDROOT
BRANCH   7  12
HETATM   12  S   UNL     1       6.315  24.862  55.751  1.00  0.00    -0.083 SA
BRANCH  12  13
HETATM   13  C   UNL     1       7.840  23.924  56.036  1.00  0.00     0.123 C 
BRANCH  13  14
HETATM   14  C   UNL     1       7.922  22.721  55.125  1.00  0.00    -0.027 A 
HETATM   15  C   UNL     1       8.152  21.419  55.599  1.00  0.00     0.041 A 
HETATM   16 CL   UNL     1       8.339  21.074  57.282  1.00  0.00    -0.084 Cl
HETATM   17  C   UNL     1       8.242  20.343  54.710  1.00  0.00     0.024 A 
HETATM   18  C   UNL     1       8.114  20.551  53.338  1.00  0.00     0.002 A 
HETATM   19  C   UNL     1       7.897  21.835  52.850  1.00  0.00     0.001 A 
HETATM   20  C   UNL     1       7.802  22.912  53.734  1.00  0.00     0.009 A 
ENDBRANCH  13  14
ENDBRANCH  12  13
ENDBRANCH   7  12
BRANCH   2  21
HETATM   21  C   UNL     1       4.945  30.105  56.930  1.00  0.00    -0.006 A 
HETATM   22  C   UNL     1       3.724  30.657  57.356  1.00  0.00     0.042 A 
HETATM   23 CL   UNL     1       3.245  30.696  59.014  1.00  0.00    -0.084 Cl
HETATM   24  C   UNL     1       2.825  31.198  56.429  1.00  0.00     0.024 A 
HETATM   25  C   UNL     1       3.122  31.196  55.068  1.00  0.00     0.002 A 
HETATM   26  C   UNL     1       4.321  30.649  54.626  1.00  0.00     0.001 A 
HETATM   27  C   UNL     1       5.222  30.108  55.545  1.00  0.00     0.011 A 
ENDBRANCH   2  21
BRANCH   1  28
HETATM   28  C   UNL     1       6.613  31.741  58.842  1.00  0.00     0.293 C 
HETATM   29  O   UNL     1       6.378  32.724  58.159  1.00  0.00    -0.259 OA
BRANCH  28  30
HETATM   30  O   UNL     1       6.568  31.664  60.194  1.00  0.00    -0.318 OA
BRANCH  30  31
HETATM   31  C   UNL     1       7.307  32.671  60.901  1.00  0.00     0.174 C 
HETATM   32  C   UNL     1       8.187  32.043  61.966  1.00  0.00     0.034 C 
ENDBRANCH  30  31
ENDBRANCH  28  30
ENDBRANCH   1  28
TORSDOF 7
ENDMDL
MODEL 2
REMARK VINA RESULT:      -9.1      4.079      8.843
REMARK  7 active torsions:
REMARK  status: ('A' for Active; 'I' for Inactive)
REMARK    1  A    between atoms: C_2  and  O_3 
REMARK    2  A    between atoms: O_3  and  C_4 
REMARK    3  A    between atoms: C_4  and  C_5 
REMARK    4  A    between atoms: C_6  and  C_7 
REMARK    5  A    between atoms: C_18  and  S_19 
REMARK    6  A    between atoms: S_19  and  C_20 
REMARK    7  A    between atoms: C_20  and  C_21 
ROOT
HETATM    1  C   UNL     1       8.421  23.706  55.798  1.00  0.00     0.070 A 
HETATM    2  C   UNL     1       8.258  25.092  55.190  1.00  0.00     0.204 A 
HETATM    3  N   UNL     1       7.995  26.105  56.218  1.00  0.00    -0.082 N 
HETATM    4  C   UNL     1       7.938  25.841  57.559  1.00  0.00     0.726 A 
HETATM    5  N   UNL     1       8.122  24.579  57.989  1.00  0.00    -0.192 N 
HETATM    6  N   UNL     1       7.853  27.421  55.971  1.00  0.00    -0.128 NA
HETATM    7  C   UNL     1       7.621  27.883  57.205  1.00  0.00     0.226 A 
HETATM    8  N   UNL     1       7.697  26.950  58.210  1.00  0.00    -0.035 NA
HETATM    9  C   UNL     1       8.364  23.504  57.137  1.00  0.00     0.037 A 
HETATM   10  C   UNL     1       8.594  22.176  57.813  1.00  0.00     0.070 C 
HETATM   11  H   UNL     1       8.051  24.385  58.984  1.00  0.00     0.184 HD
ENDROOT
BRANCH   7  12
HETATM   12  S   UNL     1       7.254  29.564  57.465  1.00  0.00    -0.083 SA
BRANCH  12  13
HETATM   13  C   UNL     1       8.360  29.925  58.856  1.00  0.00     0.123 C 
BRANCH  13  14
HETATM   14  C   UNL     1       7.777  30.988  59.758  1.00  0.00    -0.027 A 
HETATM   15  C   UNL     1       8.223  31.201  61.072  1.00  0.00     0.041 A 
HETATM   16 CL   UNL     1       9.504  30.274  61.770  1.00  0.00    -0.084 Cl
HETATM   17  C   UNL     1       7.634  32.185  61.873  1.00  0.00     0.024 A 
HETATM   18  C   UNL     1       6.587  32.961  61.379  1.00  0.00     0.002 A 
HETATM   19  C   UNL     1       6.125  32.756  60.083  1.00  0.00     0.001 A 
HETATM   20  C   UNL     1       6.714  31.778  59.279  1.00  0.00     0.009 A 
ENDBRANCH  13  14
ENDBRANCH  12  13
ENDBRANCH   7  12
BRANCH   2  21
HETATM   21  C   UNL     1       7.226  25.182  54.065  1.00  0.00    -0.006 A 
HETATM   22  C   UNL     1       5.834  25.165  54.261  1.00  0.00     0.042 A 
HETATM   23 CL   UNL     1       5.111  24.999  55.821  1.00  0.00    -0.084 Cl
HETATM   24  C   UNL     1       4.960  25.272  53.173  1.00  0.00     0.024 A 
HETATM   25  C   UNL     1       5.455  25.395  51.876  1.00  0.00     0.002 A 
HETATM   26  C   UNL     1       6.829  25.407  51.661  1.00  0.00     0.001 A 
HETATM   27  C   UNL     1       7.705  25.300  52.742  1.00  0.00     0.011 A 
ENDBRANCH   2  21
BRANCH   1  28
HETATM   28  C   UNL     1       8.692  22.649  54.805  1.00  0.00     0.293 C 
HETATM   29  O   UNL     1       9.770  22.527  54.247  1.00  0.00    -0.259 OA
BRANCH  28  30
HETATM   30  O   UNL     1       7.566  21.937  54.555  1.00  0.00    -0.318 OA
BRANCH  30  31
HETATM   31  C   UNL     1       7.763  20.558  54.212  1.00  0.00     0.174 C 
HETATM   32  C   UNL     1       8.031  20.407  52.726  1.00  0.00     0.034 C 
ENDBRANCH  30  31
ENDBRANCH  28  30
ENDBRANCH   1  28
TORSDOF 7
ENDMDL
MODEL 3
REMARK VINA RESULT:      -8.9      4.676      6.573
REMARK  7 active torsions:
REMARK  status: ('A' for Active; 'I' for Inactive)
REMARK    1  A    between atoms: C_2  and  O_3 
REMARK    2  A    between atoms: O_3  and  C_4 
REMARK    3  A    between atoms: C_4  and  C_5 
REMARK    4  A    between atoms: C_6  and  C_7 
REMARK    5  A    between atoms: C_18  and  S_19 
REMARK    6  A    between atoms: S_19  and  C_20 
REMARK    7  A    between atoms: C_20  and  C_21 
ROOT
HETATM    1  C   UNL     1       7.107  28.958  56.014  1.00  0.00     0.070 A 
HETATM    2  C   UNL     1       6.811  28.377  54.639  1.00  0.00     0.204 A 
HETATM    3  N   UNL     1       5.524  28.853  54.117  1.00  0.00    -0.082 N 
HETATM    4  C   UNL     1       4.710  29.736  54.772  1.00  0.00     0.726 A 
HETATM    5  N   UNL     1       5.084  30.207  55.976  1.00  0.00    -0.192 N 
HETATM    6  N   UNL     1       5.030  28.536  52.906  1.00  0.00    -0.128 NA
HETATM    7  C   UNL     1       3.865  29.193  52.931  1.00  0.00     0.226 A 
HETATM    8  N   UNL     1       3.647  29.967  54.045  1.00  0.00    -0.035 NA
HETATM    9  C   UNL     1       6.267  29.839  56.612  1.00  0.00     0.037 A 
HETATM   10  C   UNL     1       6.534  30.513  57.935  1.00  0.00     0.070 C 
HETATM   11  H   UNL     1       4.462  30.841  56.470  1.00  0.00     0.184 HD
ENDROOT
BRANCH   7  12
HETATM   12  S   UNL     1       2.738  29.046  51.615  1.00  0.00    -0.083 SA
BRANCH  12  13
HETATM   13  C   UNL     1       3.883  29.034  50.209  1.00  0.00     0.123 C 
BRANCH  13  14
HETATM   14  C   UNL     1       3.480  28.000  49.182  1.00  0.00    -0.027 A 
HETATM   15  C   UNL     1       3.984  26.690  49.181  1.00  0.00     0.041 A 
HETATM   16 CL   UNL     1       5.100  26.133  50.376  1.00  0.00    -0.084 Cl
HETATM   17  C   UNL     1       3.595  25.779  48.192  1.00  0.00     0.024 A 
HETATM   18  C   UNL     1       2.707  26.165  47.189  1.00  0.00     0.002 A 
HETATM   19  C   UNL     1       2.207  27.462  47.170  1.00  0.00     0.001 A 
HETATM   20  C   UNL     1       2.589  28.374  48.157  1.00  0.00     0.009 A 
ENDBRANCH  13  14
ENDBRANCH  12  13
ENDBRANCH   7  12
BRANCH   2  21
HETATM   21  C   UNL     1       6.899  26.854  54.554  1.00  0.00    -0.006 A 
HETATM   22  C   UNL     1       6.182  25.969  55.380  1.00  0.00     0.042 A 
HETATM   23 CL   UNL     1       5.127  26.509  56.635  1.00  0.00    -0.084 Cl
HETATM   24  C   UNL     1       6.309  24.584  55.219  1.00  0.00     0.024 A 
HETATM   25  C   UNL     1       7.149  24.058  54.240  1.00  0.00     0.002 A 
HETATM   26  C   UNL     1       7.872  24.916  53.418  1.00  0.00     0.001 A 
HETATM   27  C   UNL     1       7.749  26.298  53.574  1.00  0.00     0.011 A 
ENDBRANCH   2  21
BRANCH   1  28
HETATM   28  C   UNL     1       8.394  28.515  56.583  1.00  0.00     0.293 C 
HETATM   29  O   UNL     1       8.471  27.709  57.496  1.00  0.00    -0.259 OA
BRANCH  28  30
HETATM   30  O   UNL     1       9.419  29.198  56.018  1.00  0.00    -0.318 OA
BRANCH  30  31
HETATM   31  C   UNL     1      10.548  29.447  56.868  1.00  0.00     0.174 C 
HETATM   32  C   UNL     1      10.349  30.724  57.664  1.00  0.00     0.034 C 
ENDBRANCH  30  31
ENDBRANCH  28  30
ENDBRANCH   1  28
TORSDOF 7
ENDMDL
MODEL 4
REMARK VINA RESULT:      -8.9      3.803      6.146
REMARK  7 active torsions:
REMARK  status: ('A' for Active; 'I' for Inactive)
REMARK    1  A    between atoms: C_2  and  O_3 
REMARK    2  A    between atoms: O_3  and  C_4 
REMARK    3  A    between atoms: C_4  and  C_5 
REMARK    4  A    between atoms: C_6  and  C_7 
REMARK    5  A    between atoms: C_18  and  S_19 
REMARK    6  A    between atoms: S_19  and  C_20 
REMARK    7  A    between atoms: C_20  and  C_21 
ROOT
HETATM    1  C   UNL     1       4.648  33.796  61.554  1.00  0.00     0.070 A 
HETATM    2  C   UNL     1       5.560  33.167  60.510  1.00  0.00     0.204 A 
HETATM    3  N   UNL     1       4.823  32.253  59.630  1.00  0.00    -0.082 N 
HETATM    4  C   UNL     1       3.477  32.022  59.717  1.00  0.00     0.726 A 
HETATM    5  N   UNL     1       2.762  32.653  60.666  1.00  0.00    -0.192 N 
HETATM    6  N   UNL     1       5.368  31.593  58.590  1.00  0.00    -0.128 NA
HETATM    7  C   UNL     1       4.308  30.907  58.147  1.00  0.00     0.226 A 
HETATM    8  N   UNL     1       3.123  31.168  58.791  1.00  0.00    -0.035 NA
HETATM    9  C   UNL     1       3.318  33.538  61.587  1.00  0.00     0.037 A 
HETATM   10  C   UNL     1       2.344  34.183  62.541  1.00  0.00     0.070 C 
HETATM   11  H   UNL     1       1.768  32.456  60.743  1.00  0.00     0.184 HD
ENDROOT
BRANCH   7  12
HETATM   12  S   UNL     1       4.473  29.775  56.836  1.00  0.00    -0.083 SA
BRANCH  12  13
HETATM   13  C   UNL     1       6.256  29.458  56.906  1.00  0.00     0.123 C 
BRANCH  13  14
HETATM   14  C   UNL     1       6.548  27.978  57.000  1.00  0.00    -0.027 A 
HETATM   15  C   UNL     1       7.848  27.464  57.121  1.00  0.00     0.041 A 
HETATM   16 CL   UNL     1       9.239  28.487  57.197  1.00  0.00    -0.084 Cl
HETATM   17  C   UNL     1       8.064  26.083  57.181  1.00  0.00     0.024 A 
HETATM   18  C   UNL     1       6.989  25.198  57.112  1.00  0.00     0.002 A 
HETATM   19  C   UNL     1       5.695  25.691  56.981  1.00  0.00     0.001 A 
HETATM   20  C   UNL     1       5.475  27.069  56.925  1.00  0.00     0.009 A 
ENDBRANCH  13  14
ENDBRANCH  12  13
ENDBRANCH   7  12
BRANCH   2  21
HETATM   21  C   UNL     1       6.807  32.488  61.073  1.00  0.00    -0.006 A 
HETATM   22  C   UNL     1       6.797  31.554  62.124  1.00  0.00     0.042 A 
HETATM   23 CL   UNL     1       5.352  31.084  62.943  1.00  0.00    -0.084 Cl
HETATM   24  C   UNL     1       7.989  30.964  62.565  1.00  0.00     0.024 A 
HETATM   25  C   UNL     1       9.205  31.295  61.972  1.00  0.00     0.002 A 
HETATM   26  C   UNL     1       9.237  32.222  60.936  1.00  0.00     0.001 A 
HETATM   27  C   UNL     1       8.053  32.813  60.492  1.00  0.00     0.011 A 
ENDBRANCH   2  21
BRANCH   1  28
HETATM   28  C   UNL     1       5.340  34.729  62.463  1.00  0.00     0.293 C 
HETATM   29  O   UNL     1       5.879  35.752  62.075  1.00  0.00    -0.259 OA
BRANCH  28  30
HETATM   30  O   UNL     1       5.362  34.230  63.723  1.00  0.00    -0.318 OA
BRANCH  30  31
HETATM   31  C   UNL     1       6.408  34.724  64.572  1.00  0.00     0.174 C 
HETATM   32  C   UNL     1       7.275  33.583  65.074  1.00  0.00     0.034 C 
ENDBRANCH  30  31
ENDBRANCH  28  30
ENDBRANCH   1  28
TORSDOF 7
ENDMDL
MODEL 5
REMARK VINA RESULT:      -8.7      5.996      7.894
REMARK  7 active torsions:
REMARK  status: ('A' for Active; 'I' for Inactive)
REMARK    1  A    between atoms: C_2  and  O_3 
REMARK    2  A    between atoms: O_3  and  C_4 
REMARK    3  A    between atoms: C_4  and  C_5 
REMARK    4  A    between atoms: C_6  and  C_7 
REMARK    5  A    between atoms: C_18  and  S_19 
REMARK    6  A    between atoms: S_19  and  C_20 
REMARK    7  A    between atoms: C_20  and  C_21 
ROOT
HETATM    1  C   UNL     1       4.572  27.572  48.826  1.00  0.00     0.070 A 
HETATM    2  C   UNL     1       5.451  28.228  49.881  1.00  0.00     0.204 A 
HETATM    3  N   UNL     1       5.567  27.393  51.082  1.00  0.00    -0.082 N 
HETATM    4  C   UNL     1       4.985  26.163  51.221  1.00  0.00     0.726 A 
HETATM    5  N   UNL     1       4.246  25.667  50.210  1.00  0.00    -0.192 N 
HETATM    6  N   UNL     1       6.318  27.704  52.156  1.00  0.00    -0.128 NA
HETATM    7  C   UNL     1       6.069  26.654  52.947  1.00  0.00     0.226 A 
HETATM    8  N   UNL     1       5.282  25.672  52.397  1.00  0.00    -0.035 NA
HETATM    9  C   UNL     1       4.028  26.344  49.014  1.00  0.00     0.037 A 
HETATM   10  C   UNL     1       3.214  25.602  47.983  1.00  0.00     0.070 C 
HETATM   11  H   UNL     1       3.794  24.765  50.331  1.00  0.00     0.184 HD
ENDROOT
BRANCH   7  12
HETATM   12  S   UNL     1       6.724  26.586  54.557  1.00  0.00    -0.083 SA
BRANCH  12  13
HETATM   13  C   UNL     1       6.167  24.937  55.064  1.00  0.00     0.123 C 
BRANCH  13  14
HETATM   14  C   UNL     1       7.220  23.891  54.780  1.00  0.00    -0.027 A 
HETATM   15  C   UNL     1       8.289  23.630  55.653  1.00  0.00     0.041 A 
HETATM   16 CL   UNL     1       8.481  24.472  57.150  1.00  0.00    -0.084 Cl
HETATM   17  C   UNL     1       9.250  22.666  55.332  1.00  0.00     0.024 A 
HETATM   18  C   UNL     1       9.165  21.957  54.134  1.00  0.00     0.002 A 
HETATM   19  C   UNL     1       8.119  22.212  53.254  1.00  0.00     0.001 A 
HETATM   20  C   UNL     1       7.154  23.170  53.572  1.00  0.00     0.009 A 
ENDBRANCH  13  14
ENDBRANCH  12  13
ENDBRANCH   7  12
BRANCH   2  21
HETATM   21  C   UNL     1       5.052  29.656  50.251  1.00  0.00    -0.006 A 
HETATM   22  C   UNL     1       3.858  30.001  50.910  1.00  0.00     0.042 A 
HETATM   23 CL   UNL     1       2.664  28.836  51.353  1.00  0.00    -0.084 Cl
HETATM   24  C   UNL     1       3.581  31.336  51.229  1.00  0.00     0.024 A 
HETATM   25  C   UNL     1       4.482  32.346  50.896  1.00  0.00     0.002 A 
HETATM   26  C   UNL     1       5.665  32.026  50.238  1.00  0.00     0.001 A 
HETATM   27  C   UNL     1       5.946  30.696  49.918  1.00  0.00     0.011 A 
ENDBRANCH   2  21
BRANCH   1  28
HETATM   28  C   UNL     1       4.426  28.369  47.593  1.00  0.00     0.293 C 
HETATM   29  O   UNL     1       5.351  28.573  46.824  1.00  0.00    -0.259 OA
BRANCH  28  30
HETATM   30  O   UNL     1       3.180  28.897  47.519  1.00  0.00    -0.318 OA
BRANCH  30  31
HETATM   31  C   UNL     1       3.040  30.050  46.675  1.00  0.00     0.174 C 
HETATM   32  C   UNL     1       3.058  31.324  47.501  1.00  0.00     0.034 C 
ENDBRANCH  30  31
ENDBRANCH  28  30
ENDBRANCH   1  28
TORSDOF 7
ENDMDL
MODEL 6
REMARK VINA RESULT:      -8.6      3.725      8.198
REMARK  7 active torsions:
REMARK  status: ('A' for Active; 'I' for Inactive)
REMARK    1  A    between atoms: C_2  and  O_3 
REMARK    2  A    between atoms: O_3  and  C_4 
REMARK    3  A    between atoms: C_4  and  C_5 
REMARK    4  A    between atoms: C_6  and  C_7 
REMARK    5  A    between atoms: C_18  and  S_19 
REMARK    6  A    between atoms: S_19  and  C_20 
REMARK    7  A    between atoms: C_20  and  C_21 
ROOT
HETATM    1  C   UNL     1       5.274  27.723  53.637  1.00  0.00     0.070 A 
HETATM    2  C   UNL     1       5.022  27.680  55.138  1.00  0.00     0.204 A 
HETATM    3  N   UNL     1       4.745  29.016  55.677  1.00  0.00    -0.082 N 
HETATM    4  C   UNL     1       4.687  30.153  54.919  1.00  0.00     0.726 A 
HETATM    5  N   UNL     1       4.903  30.071  53.593  1.00  0.00    -0.192 N 
HETATM    6  N   UNL     1       4.443  29.270  56.965  1.00  0.00    -0.128 NA
HETATM    7  C   UNL     1       4.304  30.600  56.931  1.00  0.00     0.226 A 
HETATM    8  N   UNL     1       4.413  31.175  55.689  1.00  0.00    -0.035 NA
HETATM    9  C   UNL     1       5.193  28.879  52.934  1.00  0.00     0.037 A 
HETATM   10  C   UNL     1       5.353  28.983  51.438  1.00  0.00     0.070 C 
HETATM   11  H   UNL     1       4.886  30.923  53.039  1.00  0.00     0.184 HD
ENDROOT
BRANCH   7  12
HETATM   12  S   UNL     1       4.001  31.494  58.392  1.00  0.00    -0.083 SA
BRANCH  12  13
HETATM   13  C   UNL     1       5.486  32.533  58.449  1.00  0.00     0.123 C 
BRANCH  13  14
HETATM   14  C   UNL     1       6.613  31.840  59.180  1.00  0.00    -0.027 A 
HETATM   15  C   UNL     1       6.969  32.153  60.502  1.00  0.00     0.041 A 
HETATM   16 CL   UNL     1       6.128  33.349  61.423  1.00  0.00    -0.084 Cl
HETATM   17  C   UNL     1       8.037  31.497  61.125  1.00  0.00     0.024 A 
HETATM   18  C   UNL     1       8.767  30.530  60.437  1.00  0.00     0.002 A 
HETATM   19  C   UNL     1       8.434  30.216  59.123  1.00  0.00     0.001 A 
HETATM   20  C   UNL     1       7.367  30.865  58.499  1.00  0.00     0.009 A 
ENDBRANCH  13  14
ENDBRANCH  12  13
ENDBRANCH   7  12
BRANCH   2  21
HETATM   21  C   UNL     1       6.111  26.983  55.952  1.00  0.00    -0.006 A 
HETATM   22  C   UNL     1       7.411  27.487  56.134  1.00  0.00     0.042 A 
HETATM   23 CL   UNL     1       7.952  28.961  55.416  1.00  0.00    -0.084 Cl
HETATM   24  C   UNL     1       8.343  26.790  56.914  1.00  0.00     0.024 A 
HETATM   25  C   UNL     1       7.998  25.584  57.520  1.00  0.00     0.002 A 
HETATM   26  C   UNL     1       6.720  25.065  57.346  1.00  0.00     0.001 A 
HETATM   27  C   UNL     1       5.787  25.756  56.570  1.00  0.00     0.011 A 
ENDBRANCH   2  21
BRANCH   1  28
HETATM   28  C   UNL     1       5.553  26.402  53.042  1.00  0.00     0.293 C 
HETATM   29  O   UNL     1       4.710  25.523  52.959  1.00  0.00    -0.259 OA
BRANCH  28  30
HETATM   30  O   UNL     1       6.864  26.300  52.717  1.00  0.00    -0.318 OA
BRANCH  30  31
HETATM   31  C   UNL     1       7.355  24.967  52.510  1.00  0.00     0.174 C 
HETATM   32  C   UNL     1       7.906  24.391  53.801  1.00  0.00     0.034 C 
ENDBRANCH  30  31
ENDBRANCH  28  30
ENDBRANCH   1  28
TORSDOF 7
ENDMDL
MODEL 7
REMARK VINA RESULT:      -8.5      5.611      8.338
REMARK  7 active torsions:
REMARK  status: ('A' for Active; 'I' for Inactive)
REMARK    1  A    between atoms: C_2  and  O_3 
REMARK    2  A    between atoms: O_3  and  C_4 
REMARK    3  A    between atoms: C_4  and  C_5 
REMARK    4  A    between atoms: C_6  and  C_7 
REMARK    5  A    between atoms: C_18  and  S_19 
REMARK    6  A    between atoms: S_19  and  C_20 
REMARK    7  A    between atoms: C_20  and  C_21 
ROOT
HETATM    1  C   UNL     1       7.327  24.430  54.352  1.00  0.00     0.070 A 
HETATM    2  C   UNL     1       6.298  25.548  54.439  1.00  0.00     0.204 A 
HETATM    3  N   UNL     1       5.906  26.026  53.108  1.00  0.00    -0.082 N 
HETATM    4  C   UNL     1       6.382  25.507  51.935  1.00  0.00     0.726 A 
HETATM    5  N   UNL     1       7.274  24.500  51.976  1.00  0.00    -0.192 N 
HETATM    6  N   UNL     1       4.980  26.977  52.883  1.00  0.00    -0.128 NA
HETATM    7  C   UNL     1       5.014  27.048  51.547  1.00  0.00     0.226 A 
HETATM    8  N   UNL     1       5.837  26.140  50.928  1.00  0.00    -0.035 NA
HETATM    9  C   UNL     1       7.756  23.948  53.160  1.00  0.00     0.037 A 
HETATM   10  C   UNL     1       8.713  22.792  52.998  1.00  0.00     0.070 C 
HETATM   11  H   UNL     1       7.645  24.138  51.102  1.00  0.00     0.184 HD
ENDROOT
BRANCH   7  12
HETATM   12  S   UNL     1       4.057  28.228  50.700  1.00  0.00    -0.083 SA
BRANCH  12  13
HETATM   13  C   UNL     1       4.390  27.743  48.985  1.00  0.00     0.123 C 
BRANCH  13  14
HETATM   14  C   UNL     1       3.136  27.807  48.144  1.00  0.00    -0.027 A 
HETATM   15  C   UNL     1       2.469  26.662  47.681  1.00  0.00     0.041 A 
HETATM   16 CL   UNL     1       3.015  25.065  48.056  1.00  0.00    -0.084 Cl
HETATM   17  C   UNL     1       1.324  26.778  46.885  1.00  0.00     0.024 A 
HETATM   18  C   UNL     1       0.835  28.034  46.533  1.00  0.00     0.002 A 
HETATM   19  C   UNL     1       1.490  29.180  46.975  1.00  0.00     0.001 A 
HETATM   20  C   UNL     1       2.631  29.069  47.772  1.00  0.00     0.009 A 
ENDBRANCH  13  14
ENDBRANCH  12  13
ENDBRANCH   7  12
BRANCH   2  21
HETATM   21  C   UNL     1       6.695  26.717  55.339  1.00  0.00    -0.006 A 
HETATM   22  C   UNL     1       6.133  26.975  56.601  1.00  0.00     0.042 A 
HETATM   23 CL   UNL     1       4.878  26.004  57.282  1.00  0.00    -0.084 Cl
HETATM   24  C   UNL     1       6.572  28.061  57.368  1.00  0.00     0.024 A 
HETATM   25  C   UNL     1       7.571  28.908  56.892  1.00  0.00     0.002 A 
HETATM   26  C   UNL     1       8.134  28.674  55.643  1.00  0.00     0.001 A 
HETATM   27  C   UNL     1       7.701  27.593  54.874  1.00  0.00     0.011 A 
ENDBRANCH   2  21
BRANCH   1  28
HETATM   28  C   UNL     1       7.752  23.909  55.665  1.00  0.00     0.293 C 
HETATM   29  O   UNL     1       8.589  24.464  56.358  1.00  0.00    -0.259 OA
BRANCH  28  30
HETATM   30  O   UNL     1       7.161  22.714  55.910  1.00  0.00    -0.318 OA
BRANCH  30  31
HETATM   31  C   UNL     1       8.008  21.703  56.477  1.00  0.00     0.174 C 
HETATM   32  C   UNL     1       7.824  20.382  55.755  1.00  0.00     0.034 C 
ENDBRANCH  30  31
ENDBRANCH  28  30
ENDBRANCH   1  28
TORSDOF 7
ENDMDL
MODEL 8
REMARK VINA RESULT:      -8.4      1.974      4.315
REMARK  7 active torsions:
REMARK  status: ('A' for Active; 'I' for Inactive)
REMARK    1  A    between atoms: C_2  and  O_3 
REMARK    2  A    between atoms: O_3  and  C_4 
REMARK    3  A    between atoms: C_4  and  C_5 
REMARK    4  A    between atoms: C_6  and  C_7 
REMARK    5  A    between atoms: C_18  and  S_19 
REMARK    6  A    between atoms: S_19  and  C_20 
REMARK    7  A    between atoms: C_20  and  C_21 
ROOT
HETATM    1  C   UNL     1       5.659  31.178  57.916  1.00  0.00     0.070 A 
HETATM    2  C   UNL     1       7.073  30.618  57.861  1.00  0.00     0.204 A 
HETATM    3  N   UNL     1       7.071  29.165  57.650  1.00  0.00    -0.082 N 
HETATM    4  C   UNL     1       5.939  28.415  57.488  1.00  0.00     0.726 A 
HETATM    5  N   UNL     1       4.737  29.020  57.529  1.00  0.00    -0.192 N 
HETATM    6  N   UNL     1       8.181  28.414  57.516  1.00  0.00    -0.128 NA
HETATM    7  C   UNL     1       7.643  27.198  57.367  1.00  0.00     0.226 A 
HETATM    8  N   UNL     1       6.271  27.162  57.311  1.00  0.00    -0.035 NA
HETATM    9  C   UNL     1       4.572  30.387  57.738  1.00  0.00     0.037 A 
HETATM   10  C   UNL     1       3.149  30.885  57.702  1.00  0.00     0.070 C 
HETATM   11  H   UNL     1       3.899  28.453  57.436  1.00  0.00     0.184 HD
ENDROOT
BRANCH   7  12
HETATM   12  S   UNL     1       8.658  25.791  57.252  1.00  0.00    -0.083 SA
BRANCH  12  13
HETATM   13  C   UNL     1       7.412  24.521  56.902  1.00  0.00     0.123 C 
BRANCH  13  14
HETATM   14  C   UNL     1       7.593  23.942  55.518  1.00  0.00    -0.027 A 
HETATM   15  C   UNL     1       7.971  22.608  55.293  1.00  0.00     0.041 A 
HETATM   16 CL   UNL     1       8.241  21.498  56.590  1.00  0.00    -0.084 Cl
HETATM   17  C   UNL     1       8.148  22.128  53.991  1.00  0.00     0.024 A 
HETATM   18  C   UNL     1       7.959  22.972  52.898  1.00  0.00     0.002 A 
HETATM   19  C   UNL     1       7.595  24.299  53.103  1.00  0.00     0.001 A 
HETATM   20  C   UNL     1       7.414  24.781  54.401  1.00  0.00     0.009 A 
ENDBRANCH  13  14
ENDBRANCH  12  13
ENDBRANCH   7  12
BRANCH   2  21
HETATM   21  C   UNL     1       7.957  30.990  59.051  1.00  0.00    -0.006 A 
HETATM   22  C   UNL     1       9.327  31.292  58.959  1.00  0.00     0.042 A 
HETATM   23 CL   UNL     1      10.198  31.241  57.468  1.00  0.00    -0.084 Cl
HETATM   24  C   UNL     1      10.058  31.642  60.101  1.00  0.00     0.024 A 
HETATM   25  C   UNL     1       9.441  31.694  61.349  1.00  0.00     0.002 A 
HETATM   26  C   UNL     1       8.088  31.392  61.462  1.00  0.00     0.001 A 
HETATM   27  C   UNL     1       7.355  31.042  60.327  1.00  0.00     0.011 A 
ENDBRANCH   2  21
BRANCH   1  28
HETATM   28  C   UNL     1       5.604  32.637  58.122  1.00  0.00     0.293 C 
HETATM   29  O   UNL     1       5.447  33.145  59.220  1.00  0.00    -0.259 OA
BRANCH  28  30
HETATM   30  O   UNL     1       5.652  33.283  56.931  1.00  0.00    -0.318 OA
BRANCH  30  31
HETATM   31  C   UNL     1       4.645  34.284  56.723  1.00  0.00     0.174 C 
HETATM   32  C   UNL     1       3.998  34.118  55.360  1.00  0.00     0.034 C 
ENDBRANCH  30  31
ENDBRANCH  28  30
ENDBRANCH   1  28
TORSDOF 7
ENDMDL
MODEL 9
REMARK VINA RESULT:      -8.2      5.847      8.303
REMARK  7 active torsions:
REMARK  status: ('A' for Active; 'I' for Inactive)
REMARK    1  A    between atoms: C_2  and  O_3 
REMARK    2  A    between atoms: O_3  and  C_4 
REMARK    3  A    between atoms: C_4  and  C_5 
REMARK    4  A    between atoms: C_6  and  C_7 
REMARK    5  A    between atoms: C_18  and  S_19 
REMARK    6  A    between atoms: S_19  and  C_20 
REMARK    7  A    between atoms: C_20  and  C_21 
ROOT
HETATM    1  C   UNL     1       6.471  25.411  53.961  1.00  0.00     0.070 A 
HETATM    2  C   UNL     1       5.456  26.541  54.057  1.00  0.00     0.204 A 
HETATM    3  N   UNL     1       5.204  27.153  52.747  1.00  0.00    -0.082 N 
HETATM    4  C   UNL     1       5.785  26.737  51.581  1.00  0.00     0.726 A 
HETATM    5  N   UNL     1       6.653  25.708  51.609  1.00  0.00    -0.192 N 
HETATM    6  N   UNL     1       4.320  28.144  52.528  1.00  0.00    -0.128 NA
HETATM    7  C   UNL     1       4.486  28.341  51.214  1.00  0.00     0.226 A 
HETATM    8  N   UNL     1       5.352  27.475  50.592  1.00  0.00    -0.035 NA
HETATM    9  C   UNL     1       7.008  25.034  52.774  1.00  0.00     0.037 A 
HETATM   10  C   UNL     1       7.958  23.876  52.594  1.00  0.00     0.070 C 
HETATM   11  H   UNL     1       7.102  25.422  50.743  1.00  0.00     0.184 HD
ENDROOT
BRANCH   7  12
HETATM   12  S   UNL     1       3.635  29.619  50.398  1.00  0.00    -0.083 SA
BRANCH  12  13
HETATM   13  C   UNL     1       3.988  29.192  48.672  1.00  0.00     0.123 C 
BRANCH  13  14
HETATM   14  C   UNL     1       2.742  28.720  47.958  1.00  0.00    -0.027 A 
HETATM   15  C   UNL     1       2.008  29.538  47.084  1.00  0.00     0.041 A 
HETATM   16 CL   UNL     1       2.483  31.161  46.727  1.00  0.00    -0.084 Cl
HETATM   17  C   UNL     1       0.848  29.058  46.466  1.00  0.00     0.024 A 
HETATM   18  C   UNL     1       0.399  27.763  46.718  1.00  0.00     0.002 A 
HETATM   19  C   UNL     1       1.109  26.943  47.590  1.00  0.00     0.001 A 
HETATM   20  C   UNL     1       2.269  27.416  48.206  1.00  0.00     0.009 A 
ENDBRANCH  13  14
ENDBRANCH  12  13
ENDBRANCH   7  12
BRANCH   2  21
HETATM   21  C   UNL     1       5.781  27.609  55.100  1.00  0.00    -0.006 A 
HETATM   22  C   UNL     1       6.948  28.394  55.096  1.00  0.00     0.042 A 
HETATM   23 CL   UNL     1       8.191  28.215  53.911  1.00  0.00    -0.084 Cl
HETATM   24  C   UNL     1       7.156  29.366  56.082  1.00  0.00     0.024 A 
HETATM   25  C   UNL     1       6.212  29.570  57.087  1.00  0.00     0.002 A 
HETATM   26  C   UNL     1       5.055  28.798  57.113  1.00  0.00     0.001 A 
HETATM   27  C   UNL     1       4.842  27.828  56.132  1.00  0.00     0.011 A 
ENDBRANCH   2  21
BRANCH   1  28
HETATM   28  C   UNL     1       6.757  24.756  55.252  1.00  0.00     0.293 C 
HETATM   29  O   UNL     1       5.927  24.098  55.857  1.00  0.00    -0.259 OA
BRANCH  28  30
HETATM   30  O   UNL     1       8.002  25.081  55.679  1.00  0.00    -0.318 OA
BRANCH  30  31
HETATM   31  C   UNL     1       8.250  24.892  57.080  1.00  0.00     0.174 C 
HETATM   32  C   UNL     1       7.773  26.093  57.876  1.00  0.00     0.034 C 
ENDBRANCH  30  31
ENDBRANCH  28  30
ENDBRANCH   1  28
TORSDOF 7
ENDMDL
MODEL 10
REMARK VINA RESULT:      -8.1      6.256      8.259
REMARK  7 active torsions:
REMARK  status: ('A' for Active; 'I' for Inactive)
REMARK    1  A    between atoms: C_2  and  O_3 
REMARK    2  A    between atoms: O_3  and  C_4 
REMARK    3  A    between atoms: C_4  and  C_5 
REMARK    4  A    between atoms: C_6  and  C_7 
REMARK    5  A    between atoms: C_18  and  S_19 
REMARK    6  A    between atoms: S_19  and  C_20 
REMARK    7  A    between atoms: C_20  and  C_21 
ROOT
HETATM    1  C   UNL     1       4.153  30.702  49.212  1.00  0.00     0.070 A 
HETATM    2  C   UNL     1       3.480  29.508  49.873  1.00  0.00     0.204 A 
HETATM    3  N   UNL     1       4.340  28.902  50.897  1.00  0.00    -0.082 N 
HETATM    4  C   UNL     1       5.578  29.374  51.236  1.00  0.00     0.726 A 
HETATM    5  N   UNL     1       6.067  30.455  50.601  1.00  0.00    -0.192 N 
HETATM    6  N   UNL     1       3.983  27.860  51.671  1.00  0.00    -0.128 NA
HETATM    7  C   UNL     1       5.095  27.696  52.397  1.00  0.00     0.226 A 
HETATM    8  N   UNL     1       6.084  28.625  52.183  1.00  0.00    -0.035 NA
HETATM    9  C   UNL     1       5.380  31.132  49.596  1.00  0.00     0.037 A 
HETATM   10  C   UNL     1       6.072  32.351  49.040  1.00  0.00     0.070 C 
HETATM   11  H   UNL     1       6.999  30.784  50.838  1.00  0.00     0.184 HD
ENDROOT
BRANCH   7  12
HETATM   12  S   UNL     1       5.228  26.379  53.526  1.00  0.00    -0.083 SA
BRANCH  12  13
HETATM   13  C   UNL     1       7.031  26.258  53.671  1.00  0.00     0.123 C 
BRANCH  13  14
HETATM   14  C   UNL     1       7.470  24.827  53.881  1.00  0.00    -0.027 A 
HETATM   15  C   UNL     1       7.927  24.344  55.117  1.00  0.00     0.041 A 
HETATM   16 CL   UNL     1       8.007  25.345  56.524  1.00  0.00    -0.084 Cl
HETATM   17  C   UNL     1       8.344  23.014  55.251  1.00  0.00     0.024 A 
HETATM   18  C   UNL     1       8.318  22.154  54.155  1.00  0.00     0.002 A 
HETATM   19  C   UNL     1       7.878  22.620  52.921  1.00  0.00     0.001 A 
HETATM   20  C   UNL     1       7.457  23.945  52.783  1.00  0.00     0.009 A 
ENDBRANCH  13  14
ENDBRANCH  12  13
ENDBRANCH   7  12
BRANCH   2  21
HETATM   21  C   UNL     1       2.961  28.446  48.906  1.00  0.00    -0.006 A 
HETATM   22  C   UNL     1       3.769  27.726  48.008  1.00  0.00     0.042 A 
HETATM   23 CL   UNL     1       5.470  27.988  47.864  1.00  0.00    -0.084 Cl
HETATM   24  C   UNL     1       3.211  26.754  47.168  1.00  0.00     0.024 A 
HETATM   25  C   UNL     1       1.844  26.486  47.205  1.00  0.00     0.002 A 
HETATM   26  C   UNL     1       1.027  27.192  48.081  1.00  0.00     0.001 A 
HETATM   27  C   UNL     1       1.578  28.162  48.921  1.00  0.00     0.011 A 
ENDBRANCH   2  21
BRANCH   1  28
HETATM   28  C   UNL     1       3.327  31.352  48.177  1.00  0.00     0.293 C 
HETATM   29  O   UNL     1       3.480  31.148  46.984  1.00  0.00    -0.259 OA
BRANCH  28  30
HETATM   30  O   UNL     1       2.483  32.248  48.743  1.00  0.00    -0.318 OA
BRANCH  30  31
HETATM   31  C   UNL     1       1.201  32.385  48.111  1.00  0.00     0.174 C 
HETATM   32  C   UNL     1       0.165  31.521  48.806  1.00  0.00     0.034 C 
ENDBRANCH  30  31
ENDBRANCH  28  30
ENDBRANCH   1  28
TORSDOF 7
ENDMDL
