MODEL 1
REMARK VINA RESULT:      -9.1      0.000      0.000
REMARK  2 active torsions:
REMARK  status: ('A' for Active; 'I' for Inactive)
REMARK    1  A    between atoms: C_8  and  C_9 
REMARK       I    between atoms: N_10  and  C_11 
REMARK    2  A    between atoms: C_11  and  C_12 
ROOT
HETATM    1  C   UNL     1       6.302  28.996  57.337  1.00  0.00     0.124 C 
HETATM    2  N   UNL     1       7.028  27.804  56.903  1.00  0.00    -0.339 N 
HETATM    3  C   UNL     1       6.411  26.567  56.914  1.00  0.00     0.260 C 
HETATM    4  O   UNL     1       5.234  26.398  57.225  1.00  0.00    -0.267 OA
HETATM    5  C   UNL     1       8.460  28.067  56.836  1.00  0.00     0.127 C 
HETATM    6  C   UNL     1       8.653  29.270  57.745  1.00  0.00     0.022 C 
HETATM    7  C   UNL     1       7.382  30.074  57.514  1.00  0.00     0.032 C 
ENDROOT
BRANCH   1   8
HETATM    8  C   UNL     1       5.248  29.416  56.355  1.00  0.00     0.014 A 
HETATM    9  C   UNL     1       4.104  30.146  56.638  1.00  0.00     0.034 A 
HETATM   10  C   UNL     1       3.573  30.693  57.908  1.00  0.00     0.070 C 
HETATM   11  N   UNL     1       3.443  30.296  55.453  1.00  0.00    -0.282 N 
HETATM   12  H   UNL     1       2.558  30.761  55.284  1.00  0.00     0.189 HD
HETATM   13  N   UNL     1       4.084  29.761  54.408  1.00  0.00    -0.179 NA
HETATM   14  C   UNL     1       5.181  29.211  54.942  1.00  0.00     0.061 A 
HETATM   15  C   UNL     1       6.139  28.508  54.054  1.00  0.00     0.073 C 
ENDBRANCH   1   8
BRANCH   3  16
HETATM   16  C   UNL     1       7.195  25.413  56.419  1.00  0.00     0.108 A 
HETATM   17  C   UNL     1       8.195  24.739  57.264  1.00  0.00     0.304 A 
HETATM   18  O   UNL     1       8.449  25.109  58.406  1.00  0.00    -0.259 OA
HETATM   19  O   UNL     1       8.884  23.675  56.684  1.00  0.00    -0.274 OA
HETATM   20  C   UNL     1       8.570  23.210  55.394  1.00  0.00     0.089 A 
HETATM   21  C   UNL     1       7.570  23.821  54.640  1.00  0.00    -0.001 A 
HETATM   22  C   UNL     1       9.284  22.116  54.913  1.00  0.00     0.038 A 
HETATM   23  C   UNL     1       7.268  23.306  53.378  1.00  0.00     0.014 A 
HETATM   24  C   UNL     1       6.879  24.972  55.192  1.00  0.00     0.037 A 
HETATM   25  C   UNL     1       7.971  22.201  52.886  1.00  0.00     0.001 A 
HETATM   26  C   UNL     1       8.981  21.610  53.651  1.00  0.00     0.003 A 
ENDBRANCH   3  16
TORSDOF 2
ENDMDL
MODEL 2
REMARK VINA RESULT:      -8.9      2.345      3.744
REMARK  2 active torsions:
REMARK  status: ('A' for Active; 'I' for Inactive)
REMARK    1  A    between atoms: C_8  and  C_9 
REMARK       I    between atoms: N_10  and  C_11 
REMARK    2  A    between atoms: C_11  and  C_12 
ROOT
HETATM    1  C   UNL     1       5.290  28.209  54.162  1.00  0.00     0.124 C 
HETATM    2  N   UNL     1       5.739  26.836  53.940  1.00  0.00    -0.339 N 
HETATM    3  C   UNL     1       7.038  26.469  54.236  1.00  0.00     0.260 C 
HETATM    4  O   UNL     1       7.861  27.230  54.740  1.00  0.00    -0.267 OA
HETATM    5  C   UNL     1       4.797  26.116  53.092  1.00  0.00     0.127 C 
HETATM    6  C   UNL     1       4.046  27.218  52.363  1.00  0.00     0.022 C 
HETATM    7  C   UNL     1       3.952  28.313  53.414  1.00  0.00     0.032 C 
ENDROOT
BRANCH   1   8
HETATM    8  C   UNL     1       5.143  28.536  55.620  1.00  0.00     0.014 A 
HETATM    9  C   UNL     1       4.970  27.628  56.654  1.00  0.00     0.034 A 
HETATM   10  C   UNL     1       4.860  26.151  56.660  1.00  0.00     0.070 C 
HETATM   11  N   UNL     1       4.886  28.364  57.800  1.00  0.00    -0.282 N 
HETATM   12  H   UNL     1       4.740  28.034  58.747  1.00  0.00     0.189 HD
HETATM   13  N   UNL     1       5.035  29.679  57.606  1.00  0.00    -0.179 NA
HETATM   14  C   UNL     1       5.182  29.801  56.282  1.00  0.00     0.061 A 
HETATM   15  C   UNL     1       5.365  31.154  55.700  1.00  0.00     0.073 C 
ENDBRANCH   1   8
BRANCH   3  16
HETATM   16  C   UNL     1       7.408  25.051  54.025  1.00  0.00     0.108 A 
HETATM   17  C   UNL     1       7.909  24.569  52.727  1.00  0.00     0.304 A 
HETATM   18  O   UNL     1       8.023  25.303  51.750  1.00  0.00    -0.259 OA
HETATM   19  O   UNL     1       8.208  23.210  52.642  1.00  0.00    -0.274 OA
HETATM   20  C   UNL     1       8.127  22.367  53.766  1.00  0.00     0.089 A 
HETATM   21  C   UNL     1       7.717  22.862  55.001  1.00  0.00    -0.001 A 
HETATM   22  C   UNL     1       8.485  21.031  53.594  1.00  0.00     0.038 A 
HETATM   23  C   UNL     1       7.684  21.998  56.097  1.00  0.00     0.014 A 
HETATM   24  C   UNL     1       7.337  24.260  55.105  1.00  0.00     0.037 A 
HETATM   25  C   UNL     1       8.049  20.656  55.941  1.00  0.00     0.001 A 
HETATM   26  C   UNL     1       8.444  20.173  54.691  1.00  0.00     0.003 A 
ENDBRANCH   3  16
TORSDOF 2
ENDMDL
MODEL 3
REMARK VINA RESULT:      -8.8      2.578      6.781
REMARK  2 active torsions:
REMARK  status: ('A' for Active; 'I' for Inactive)
REMARK    1  A    between atoms: C_8  and  C_9 
REMARK       I    between atoms: N_10  and  C_11 
REMARK    2  A    between atoms: C_11  and  C_12 
ROOT
HETATM    1  C   UNL     1       6.043  24.591  54.538  1.00  0.00     0.124 C 
HETATM    2  N   UNL     1       6.451  25.885  55.083  1.00  0.00    -0.339 N 
HETATM    3  C   UNL     1       7.015  25.967  56.341  1.00  0.00     0.260 C 
HETATM    4  O   UNL     1       7.256  24.987  57.043  1.00  0.00    -0.267 OA
HETATM    5  C   UNL     1       5.868  26.976  54.312  1.00  0.00     0.127 C 
HETATM    6  C   UNL     1       4.674  26.338  53.621  1.00  0.00     0.022 C 
HETATM    7  C   UNL     1       5.171  24.932  53.320  1.00  0.00     0.032 C 
ENDROOT
BRANCH   1   8
HETATM    8  C   UNL     1       7.215  23.731  54.164  1.00  0.00     0.014 A 
HETATM    9  C   UNL     1       8.063  23.919  53.084  1.00  0.00     0.034 A 
HETATM   10  C   UNL     1       8.080  24.941  52.011  1.00  0.00     0.070 C 
HETATM   11  N   UNL     1       8.978  22.908  53.135  1.00  0.00    -0.282 N 
HETATM   12  H   UNL     1       9.739  22.719  52.492  1.00  0.00     0.189 HD
HETATM   13  N   UNL     1       8.826  22.097  54.187  1.00  0.00    -0.179 NA
HETATM   14  C   UNL     1       7.748  22.579  54.819  1.00  0.00     0.061 A 
HETATM   15  C   UNL     1       7.276  21.902  56.052  1.00  0.00     0.073 C 
ENDBRANCH   1   8
BRANCH   3  16
HETATM   16  C   UNL     1       7.443  27.305  56.808  1.00  0.00     0.108 A 
HETATM   17  C   UNL     1       6.501  28.235  57.453  1.00  0.00     0.304 A 
HETATM   18  O   UNL     1       5.315  27.965  57.616  1.00  0.00    -0.259 OA
HETATM   19  O   UNL     1       7.014  29.474  57.834  1.00  0.00    -0.274 OA
HETATM   20  C   UNL     1       8.381  29.779  57.697  1.00  0.00     0.089 A 
HETATM   21  C   UNL     1       9.266  28.855  57.148  1.00  0.00    -0.001 A 
HETATM   22  C   UNL     1       8.808  31.028  58.143  1.00  0.00     0.038 A 
HETATM   23  C   UNL     1      10.620  29.187  57.061  1.00  0.00     0.014 A 
HETATM   24  C   UNL     1       8.749  27.580  56.682  1.00  0.00     0.037 A 
HETATM   25  C   UNL     1      11.064  30.433  57.514  1.00  0.00     0.001 A 
HETATM   26  C   UNL     1      10.160  31.354  58.050  1.00  0.00     0.003 A 
ENDBRANCH   3  16
TORSDOF 2
ENDMDL
MODEL 4
REMARK VINA RESULT:      -8.7      3.592      5.850
REMARK  2 active torsions:
REMARK  status: ('A' for Active; 'I' for Inactive)
REMARK    1  A    between atoms: C_8  and  C_9 
REMARK       I    between atoms: N_10  and  C_11 
REMARK    2  A    between atoms: C_11  and  C_12 
ROOT
HETATM    1  C   UNL     1       6.085  28.553  55.951  1.00  0.00     0.124 C 
HETATM    2  N   UNL     1       5.589  28.118  54.647  1.00  0.00    -0.339 N 
HETATM    3  C   UNL     1       6.469  27.869  53.610  1.00  0.00     0.260 C 
HETATM    4  O   UNL     1       7.690  27.940  53.725  1.00  0.00    -0.267 OA
HETATM    5  C   UNL     1       4.153  28.343  54.540  1.00  0.00     0.127 C 
HETATM    6  C   UNL     1       3.872  29.409  55.587  1.00  0.00     0.022 C 
HETATM    7  C   UNL     1       4.841  29.049  56.702  1.00  0.00     0.032 C 
ENDROOT
BRANCH   1   8
HETATM    8  C   UNL     1       6.786  27.452  56.694  1.00  0.00     0.014 A 
HETATM    9  C   UNL     1       6.255  26.217  57.028  1.00  0.00     0.034 A 
HETATM   10  C   UNL     1       4.916  25.625  56.800  1.00  0.00     0.070 C 
HETATM   11  N   UNL     1       7.239  25.543  57.691  1.00  0.00    -0.282 N 
HETATM   12  H   UNL     1       7.199  24.616  58.099  1.00  0.00     0.189 HD
HETATM   13  N   UNL     1       8.389  26.220  57.779  1.00  0.00    -0.179 NA
HETATM   14  C   UNL     1       8.126  27.391  57.185  1.00  0.00     0.061 A 
HETATM   15  C   UNL     1       9.198  28.414  57.107  1.00  0.00     0.073 C 
ENDBRANCH   1   8
BRANCH   3  16
HETATM   16  C   UNL     1       5.896  27.390  52.332  1.00  0.00     0.108 A 
HETATM   17  C   UNL     1       5.434  26.002  52.165  1.00  0.00     0.304 A 
HETATM   18  O   UNL     1       5.521  25.166  53.060  1.00  0.00    -0.259 OA
HETATM   19  O   UNL     1       4.930  25.661  50.911  1.00  0.00    -0.274 OA
HETATM   20  C   UNL     1       4.782  26.619  49.892  1.00  0.00     0.089 A 
HETATM   21  C   UNL     1       5.161  27.944  50.098  1.00  0.00    -0.001 A 
HETATM   22  C   UNL     1       4.231  26.194  48.685  1.00  0.00     0.038 A 
HETATM   23  C   UNL     1       4.965  28.869  49.070  1.00  0.00     0.014 A 
HETATM   24  C   UNL     1       5.750  28.315  51.373  1.00  0.00     0.037 A 
HETATM   25  C   UNL     1       4.404  28.457  47.856  1.00  0.00     0.001 A 
HETATM   26  C   UNL     1       4.042  27.122  47.663  1.00  0.00     0.003 A 
ENDBRANCH   3  16
TORSDOF 2
ENDMDL
MODEL 5
REMARK VINA RESULT:      -8.6      1.434      2.073
REMARK  2 active torsions:
REMARK  status: ('A' for Active; 'I' for Inactive)
REMARK    1  A    between atoms: C_8  and  C_9 
REMARK       I    between atoms: N_10  and  C_11 
REMARK    2  A    between atoms: C_11  and  C_12 
ROOT
HETATM    1  C   UNL     1       6.010  28.949  57.070  1.00  0.00     0.124 C 
HETATM    2  N   UNL     1       6.454  27.772  56.326  1.00  0.00    -0.339 N 
HETATM    3  C   UNL     1       5.689  26.621  56.317  1.00  0.00     0.260 C 
HETATM    4  O   UNL     1       4.593  26.529  56.868  1.00  0.00    -0.267 OA
HETATM    5  C   UNL     1       7.861  27.890  55.965  1.00  0.00     0.127 C 
HETATM    6  C   UNL     1       8.408  28.905  56.955  1.00  0.00     0.022 C 
HETATM    7  C   UNL     1       7.241  29.865  57.133  1.00  0.00     0.032 C 
ENDROOT
BRANCH   1   8
HETATM    8  C   UNL     1       4.838  29.629  56.423  1.00  0.00     0.014 A 
HETATM    9  C   UNL     1       3.849  30.354  57.068  1.00  0.00     0.034 A 
HETATM   10  C   UNL     1       3.624  30.657  58.501  1.00  0.00     0.070 C 
HETATM   11  N   UNL     1       2.996  30.788  56.095  1.00  0.00    -0.282 N 
HETATM   12  H   UNL     1       2.147  31.332  56.202  1.00  0.00     0.189 HD
HETATM   13  N   UNL     1       3.372  30.444  54.858  1.00  0.00    -0.179 NA
HETATM   14  C   UNL     1       4.488  29.728  55.042  1.00  0.00     0.061 A 
HETATM   15  C   UNL     1       5.185  29.167  53.858  1.00  0.00     0.073 C 
ENDBRANCH   1   8
BRANCH   3  16
HETATM   16  C   UNL     1       6.180  25.485  55.506  1.00  0.00     0.108 A 
HETATM   17  C   UNL     1       5.714  25.260  54.128  1.00  0.00     0.304 A 
HETATM   18  O   UNL     1       4.880  25.982  53.589  1.00  0.00    -0.259 OA
HETATM   19  O   UNL     1       6.233  24.147  53.469  1.00  0.00    -0.274 OA
HETATM   20  C   UNL     1       7.223  23.339  54.057  1.00  0.00     0.089 A 
HETATM   21  C   UNL     1       7.700  23.613  55.337  1.00  0.00    -0.001 A 
HETATM   22  C   UNL     1       7.711  22.272  53.307  1.00  0.00     0.038 A 
HETATM   23  C   UNL     1       8.707  22.805  55.869  1.00  0.00     0.014 A 
HETATM   24  C   UNL     1       7.131  24.728  56.074  1.00  0.00     0.037 A 
HETATM   25  C   UNL     1       9.213  21.736  55.123  1.00  0.00     0.001 A 
HETATM   26  C   UNL     1       8.713  21.467  53.846  1.00  0.00     0.003 A 
ENDBRANCH   3  16
TORSDOF 2
ENDMDL
MODEL 6
REMARK VINA RESULT:      -8.4      5.112      7.088
REMARK  2 active torsions:
REMARK  status: ('A' for Active; 'I' for Inactive)
REMARK    1  A    between atoms: C_8  and  C_9 
REMARK       I    between atoms: N_10  and  C_11 
REMARK    2  A    between atoms: C_11  and  C_12 
ROOT
HETATM    1  C   UNL     1       4.115  28.020  48.152  1.00  0.00     0.124 C 
HETATM    2  N   UNL     1       4.408  27.260  49.366  1.00  0.00    -0.339 N 
HETATM    3  C   UNL     1       5.361  27.709  50.260  1.00  0.00     0.260 C 
HETATM    4  O   UNL     1       5.968  28.771  50.129  1.00  0.00    -0.267 OA
HETATM    5  C   UNL     1       3.859  25.913  49.275  1.00  0.00     0.127 C 
HETATM    6  C   UNL     1       3.692  25.686  47.782  1.00  0.00     0.022 C 
HETATM    7  C   UNL     1       3.295  27.063  47.274  1.00  0.00     0.032 C 
ENDROOT
BRANCH   1   8
HETATM    8  C   UNL     1       3.373  29.293  48.437  1.00  0.00     0.014 A 
HETATM    9  C   UNL     1       3.609  30.531  47.858  1.00  0.00     0.034 A 
HETATM   10  C   UNL     1       4.608  30.977  46.859  1.00  0.00     0.070 C 
HETATM   11  N   UNL     1       2.704  31.390  48.410  1.00  0.00    -0.282 N 
HETATM   12  H   UNL     1       2.596  32.383  48.236  1.00  0.00     0.189 HD
HETATM   13  N   UNL     1       1.863  30.806  49.271  1.00  0.00    -0.179 NA
HETATM   14  C   UNL     1       2.265  29.530  49.307  1.00  0.00     0.061 A 
HETATM   15  C   UNL     1       1.547  28.575  50.187  1.00  0.00     0.073 C 
ENDBRANCH   1   8
BRANCH   3  16
HETATM   16  C   UNL     1       5.572  26.910  51.487  1.00  0.00     0.108 A 
HETATM   17  C   UNL     1       4.741  27.103  52.687  1.00  0.00     0.304 A 
HETATM   18  O   UNL     1       3.853  27.948  52.744  1.00  0.00    -0.259 OA
HETATM   19  O   UNL     1       5.045  26.306  53.789  1.00  0.00    -0.274 OA
HETATM   20  C   UNL     1       6.029  25.302  53.723  1.00  0.00     0.089 A 
HETATM   21  C   UNL     1       6.755  25.091  52.552  1.00  0.00    -0.001 A 
HETATM   22  C   UNL     1       6.235  24.528  54.862  1.00  0.00     0.038 A 
HETATM   23  C   UNL     1       7.698  24.062  52.520  1.00  0.00     0.014 A 
HETATM   24  C   UNL     1       6.505  25.950  51.408  1.00  0.00     0.037 A 
HETATM   25  C   UNL     1       7.908  23.271  53.654  1.00  0.00     0.001 A 
HETATM   26  C   UNL     1       7.181  23.506  54.825  1.00  0.00     0.003 A 
ENDBRANCH   3  16
TORSDOF 2
ENDMDL
MODEL 7
REMARK VINA RESULT:      -7.9      7.650      9.581
REMARK  2 active torsions:
REMARK  status: ('A' for Active; 'I' for Inactive)
REMARK    1  A    between atoms: C_8  and  C_9 
REMARK       I    between atoms: N_10  and  C_11 
REMARK    2  A    between atoms: C_11  and  C_12 
ROOT
HETATM    1  C   UNL     1       2.715  35.871  61.725  1.00  0.00     0.124 C 
HETATM    2  N   UNL     1       3.942  35.085  61.841  1.00  0.00    -0.339 N 
HETATM    3  C   UNL     1       3.893  33.704  61.827  1.00  0.00     0.260 C 
HETATM    4  O   UNL     1       2.856  33.064  61.666  1.00  0.00    -0.267 OA
HETATM    5  C   UNL     1       5.045  35.917  62.307  1.00  0.00     0.127 C 
HETATM    6  C   UNL     1       4.356  37.090  62.984  1.00  0.00     0.022 C 
HETATM    7  C   UNL     1       3.120  37.298  62.122  1.00  0.00     0.032 C 
ENDROOT
BRANCH   1   8
HETATM    8  C   UNL     1       2.128  35.819  60.345  1.00  0.00     0.014 A 
HETATM    9  C   UNL     1       2.743  36.233  59.173  1.00  0.00     0.034 A 
HETATM   10  C   UNL     1       4.071  36.838  58.918  1.00  0.00     0.070 C 
HETATM   11  N   UNL     1       1.849  36.000  58.169  1.00  0.00    -0.282 N 
HETATM   12  H   UNL     1       1.952  36.199  57.179  1.00  0.00     0.189 HD
HETATM   13  N   UNL     1       0.715  35.424  58.581  1.00  0.00    -0.179 NA
HETATM   14  C   UNL     1       0.864  35.317  59.907  1.00  0.00     0.061 A 
HETATM   15  C   UNL     1      -0.231  34.717  60.708  1.00  0.00     0.073 C 
ENDBRANCH   1   8
BRANCH   3  16
HETATM   16  C   UNL     1       5.179  32.977  61.905  1.00  0.00     0.108 A 
HETATM   17  C   UNL     1       5.627  32.331  63.150  1.00  0.00     0.304 A 
HETATM   18  O   UNL     1       4.977  32.381  64.189  1.00  0.00    -0.259 OA
HETATM   19  O   UNL     1       6.865  31.692  63.108  1.00  0.00    -0.274 OA
HETATM   20  C   UNL     1       7.600  31.586  61.913  1.00  0.00     0.089 A 
HETATM   21  C   UNL     1       7.121  32.146  60.730  1.00  0.00    -0.001 A 
HETATM   22  C   UNL     1       8.807  30.894  61.960  1.00  0.00     0.038 A 
HETATM   23  C   UNL     1       7.866  31.988  59.560  1.00  0.00     0.014 A 
HETATM   24  C   UNL     1       5.865  32.875  60.757  1.00  0.00     0.037 A 
HETATM   25  C   UNL     1       9.076  31.287  59.591  1.00  0.00     0.001 A 
HETATM   26  C   UNL     1       9.548  30.745  60.789  1.00  0.00     0.003 A 
ENDBRANCH   3  16
TORSDOF 2
ENDMDL
MODEL 8
REMARK VINA RESULT:      -7.9      7.699     10.650
REMARK  2 active torsions:
REMARK  status: ('A' for Active; 'I' for Inactive)
REMARK    1  A    between atoms: C_8  and  C_9 
REMARK       I    between atoms: N_10  and  C_11 
REMARK    2  A    between atoms: C_11  and  C_12 
ROOT
HETATM    1  C   UNL     1       5.869  33.563  64.474  1.00  0.00     0.124 C 
HETATM    2  N   UNL     1       5.558  33.525  63.047  1.00  0.00    -0.339 N 
HETATM    3  C   UNL     1       4.253  33.367  62.619  1.00  0.00     0.260 C 
HETATM    4  O   UNL     1       3.291  33.305  63.382  1.00  0.00    -0.267 OA
HETATM    5  C   UNL     1       6.768  33.319  62.261  1.00  0.00     0.127 C 
HETATM    6  C   UNL     1       7.743  32.699  63.248  1.00  0.00     0.022 C 
HETATM    7  C   UNL     1       7.394  33.399  64.552  1.00  0.00     0.032 C 
ENDROOT
BRANCH   1   8
HETATM    8  C   UNL     1       5.408  34.833  65.129  1.00  0.00     0.014 A 
HETATM    9  C   UNL     1       5.472  36.107  64.588  1.00  0.00     0.034 A 
HETATM   10  C   UNL     1       5.996  36.604  63.294  1.00  0.00     0.070 C 
HETATM   11  N   UNL     1       4.943  36.947  65.525  1.00  0.00    -0.282 N 
HETATM   12  H   UNL     1       4.846  37.956  65.478  1.00  0.00     0.189 HD
HETATM   13  N   UNL     1       4.495  36.321  66.618  1.00  0.00    -0.179 NA
HETATM   14  C   UNL     1       4.781  35.032  66.397  1.00  0.00     0.061 A 
HETATM   15  C   UNL     1       4.424  34.029  67.431  1.00  0.00     0.073 C 
ENDBRANCH   1   8
BRANCH   3  16
HETATM   16  C   UNL     1       4.010  33.382  61.159  1.00  0.00     0.108 A 
HETATM   17  C   UNL     1       3.966  34.641  60.397  1.00  0.00     0.304 A 
HETATM   18  O   UNL     1       4.102  35.739  60.929  1.00  0.00    -0.259 OA
HETATM   19  O   UNL     1       3.711  34.532  59.031  1.00  0.00    -0.274 OA
HETATM   20  C   UNL     1       3.600  33.279  58.400  1.00  0.00     0.089 A 
HETATM   21  C   UNL     1       3.716  32.100  59.132  1.00  0.00    -0.001 A 
HETATM   22  C   UNL     1       3.386  33.270  57.024  1.00  0.00     0.038 A 
HETATM   23  C   UNL     1       3.632  30.878  58.460  1.00  0.00     0.014 A 
HETATM   24  C   UNL     1       3.917  32.182  60.568  1.00  0.00     0.037 A 
HETATM   25  C   UNL     1       3.426  30.854  57.077  1.00  0.00     0.001 A 
HETATM   26  C   UNL     1       3.299  32.047  56.361  1.00  0.00     0.003 A 
ENDBRANCH   3  16
TORSDOF 2
ENDMDL
MODEL 9
REMARK VINA RESULT:      -7.8      8.920     11.204
REMARK  2 active torsions:
REMARK  status: ('A' for Active; 'I' for Inactive)
REMARK    1  A    between atoms: C_8  and  C_9 
REMARK       I    between atoms: N_10  and  C_11 
REMARK    2  A    between atoms: C_11  and  C_12 
ROOT
HETATM    1  C   UNL     1       5.729  33.520  64.475  1.00  0.00     0.124 C 
HETATM    2  N   UNL     1       5.428  33.539  63.045  1.00  0.00    -0.339 N 
HETATM    3  C   UNL     1       4.120  33.471  62.605  1.00  0.00     0.260 C 
HETATM    4  O   UNL     1       3.150  33.447  63.359  1.00  0.00    -0.267 OA
HETATM    5  C   UNL     1       6.630  33.282  62.262  1.00  0.00     0.127 C 
HETATM    6  C   UNL     1       7.558  32.578  63.238  1.00  0.00     0.022 C 
HETATM    7  C   UNL     1       7.241  33.263  64.558  1.00  0.00     0.032 C 
ENDROOT
BRANCH   1   8
HETATM    8  C   UNL     1       5.340  34.798  65.161  1.00  0.00     0.014 A 
HETATM    9  C   UNL     1       5.402  36.073  64.621  1.00  0.00     0.034 A 
HETATM   10  C   UNL     1       5.858  36.563  63.299  1.00  0.00     0.070 C 
HETATM   11  N   UNL     1       4.952  36.921  65.591  1.00  0.00    -0.282 N 
HETATM   12  H   UNL     1       4.877  37.932  65.553  1.00  0.00     0.189 HD
HETATM   13  N   UNL     1       4.556  36.301  66.707  1.00  0.00    -0.179 NA
HETATM   14  C   UNL     1       4.796  35.006  66.466  1.00  0.00     0.061 A 
HETATM   15  C   UNL     1       4.479  34.008  67.516  1.00  0.00     0.073 C 
ENDBRANCH   1   8
BRANCH   3  16
HETATM   16  C   UNL     1       3.890  33.540  61.144  1.00  0.00     0.108 A 
HETATM   17  C   UNL     1       3.440  32.366  60.378  1.00  0.00     0.304 A 
HETATM   18  O   UNL     1       3.256  31.270  60.898  1.00  0.00    -0.259 OA
HETATM   19  O   UNL     1       3.275  32.545  59.005  1.00  0.00    -0.274 OA
HETATM   20  C   UNL     1       3.437  33.806  58.403  1.00  0.00     0.089 A 
HETATM   21  C   UNL     1       3.796  34.918  59.161  1.00  0.00    -0.001 A 
HETATM   22  C   UNL     1       3.212  33.896  57.031  1.00  0.00     0.038 A 
HETATM   23  C   UNL     1       3.913  36.157  58.528  1.00  0.00     0.014 A 
HETATM   24  C   UNL     1       4.038  34.749  60.583  1.00  0.00     0.037 A 
HETATM   25  C   UNL     1       3.680  36.264  57.153  1.00  0.00     0.001 A 
HETATM   26  C   UNL     1       3.335  35.135  56.405  1.00  0.00     0.003 A 
ENDBRANCH   3  16
TORSDOF 2
ENDMDL
MODEL 10
REMARK VINA RESULT:      -7.7      4.884      6.707
REMARK  2 active torsions:
REMARK  status: ('A' for Active; 'I' for Inactive)
REMARK    1  A    between atoms: C_8  and  C_9 
REMARK       I    between atoms: N_10  and  C_11 
REMARK    2  A    between atoms: C_11  and  C_12 
ROOT
HETATM    1  C   UNL     1       3.548  29.604  49.436  1.00  0.00     0.124 C 
HETATM    2  N   UNL     1       4.332  28.980  50.500  1.00  0.00    -0.339 N 
HETATM    3  C   UNL     1       3.725  28.587  51.678  1.00  0.00     0.260 C 
HETATM    4  O   UNL     1       2.516  28.680  51.883  1.00  0.00    -0.267 OA
HETATM    5  C   UNL     1       5.758  29.181  50.275  1.00  0.00     0.127 C 
HETATM    6  C   UNL     1       5.816  30.387  49.352  1.00  0.00     0.022 C 
HETATM    7  C   UNL     1       4.588  30.199  48.475  1.00  0.00     0.032 C 
ENDROOT
BRANCH   1   8
HETATM    8  C   UNL     1       2.641  28.628  48.744  1.00  0.00     0.014 A 
HETATM    9  C   UNL     1       1.397  28.905  48.199  1.00  0.00     0.034 A 
HETATM   10  C   UNL     1       0.602  30.154  48.140  1.00  0.00     0.070 C 
HETATM   11  N   UNL     1       0.938  27.731  47.677  1.00  0.00    -0.282 N 
HETATM   12  H   UNL     1       0.052  27.554  47.215  1.00  0.00     0.189 HD
HETATM   13  N   UNL     1       1.800  26.715  47.796  1.00  0.00    -0.179 NA
HETATM   14  C   UNL     1       2.839  27.243  48.455  1.00  0.00     0.061 A 
HETATM   15  C   UNL     1       4.001  26.378  48.774  1.00  0.00     0.073 C 
ENDBRANCH   1   8
BRANCH   3  16
HETATM   16  C   UNL     1       4.575  27.924  52.692  1.00  0.00     0.108 A 
HETATM   17  C   UNL     1       4.995  28.618  53.921  1.00  0.00     0.304 A 
HETATM   18  O   UNL     1       4.688  29.782  54.157  1.00  0.00    -0.259 OA
HETATM   19  O   UNL     1       5.810  27.899  54.793  1.00  0.00    -0.274 OA
HETATM   20  C   UNL     1       6.131  26.549  54.558  1.00  0.00     0.089 A 
HETATM   21  C   UNL     1       5.662  25.893  53.422  1.00  0.00    -0.001 A 
HETATM   22  C   UNL     1       6.917  25.901  55.507  1.00  0.00     0.038 A 
HETATM   23  C   UNL     1       5.977  24.544  53.244  1.00  0.00     0.014 A 
HETATM   24  C   UNL     1       4.865  26.635  52.461  1.00  0.00     0.037 A 
HETATM   25  C   UNL     1       6.759  23.878  54.194  1.00  0.00     0.001 A 
HETATM   26  C   UNL     1       7.232  24.556  55.321  1.00  0.00     0.003 A 
ENDBRANCH   3  16
TORSDOF 2
ENDMDL
