MODEL 1
REMARK VINA RESULT:      -8.7      0.000      0.000
REMARK  6 active torsions:
REMARK  status: ('A' for Active; 'I' for Inactive)
REMARK    1  A    between atoms: O_2  and  C_3 
REMARK    2  A    between atoms: C_3  and  C_4 
REMARK    3  A    between atoms: C_4  and  N_5 
REMARK       I    between atoms: N_5  and  C_6 
REMARK    4  A    between atoms: C_6  and  C_7 
REMARK    5  A    between atoms: C_12  and  C_13 
REMARK    6  A    between atoms: C_22  and  C_23 
ROOT
HETATM    1  C   UNL     1       7.252  29.151  57.385  1.00  0.00     0.148 A 
HETATM    2  N   UNL     1       6.115  28.418  57.333  1.00  0.00    -0.165 NA
HETATM    3  N   UNL     1       6.347  27.545  56.338  1.00  0.00    -0.240 N 
HETATM    4  C   UNL     1       7.545  27.729  55.704  1.00  0.00     0.123 A 
HETATM    5  N   UNL     1       7.909  26.989  54.637  1.00  0.00    -0.366 N 
HETATM    6  C   UNL     1       7.096  25.891  54.129  1.00  0.00     0.118 C 
HETATM    7  C   UNL     1       5.613  26.091  54.500  1.00  0.00     0.066 C 
HETATM    8  C   UNL     1       5.366  26.553  55.949  1.00  0.00     0.221 C 
HETATM    9  C   UNL     1       8.169  28.747  56.375  1.00  0.00     0.088 A 
HETATM   10  H   UNL     1       8.834  27.087  54.221  1.00  0.00     0.161 HD
ENDROOT
BRANCH   1  11
HETATM   11  C   UNL     1       7.460  30.216  58.377  1.00  0.00     0.272 C 
HETATM   12  N   UNL     1       8.584  30.036  59.150  1.00  0.00    -0.354 N 
HETATM   13  H   UNL     1       9.207  29.287  58.853  1.00  0.00     0.162 HD
HETATM   14  O   UNL     1       6.702  31.175  58.490  1.00  0.00    -0.266 OA
BRANCH  12  15
HETATM   15  C   UNL     1       9.106  31.069  60.020  1.00  0.00     0.149 C 
BRANCH  15  16
HETATM   16  C   UNL     1       9.067  30.641  61.485  1.00  0.00     0.186 C 
BRANCH  16  17
HETATM   17  O   UNL     1       7.833  31.071  62.068  1.00  0.00    -0.394 OA
HETATM   18  C   UNL     1       8.040  32.106  63.022  1.00  0.00     0.201 C 
ENDBRANCH  16  17
ENDBRANCH  15  16
ENDBRANCH  12  15
ENDBRANCH   1  11
BRANCH   8  19
HETATM   19  C   UNL     1       5.334  25.422  56.952  1.00  0.00     0.409 C 
HETATM   20  F   UNL     1       4.245  25.480  57.752  1.00  0.00    -0.169 F 
HETATM   21  F   UNL     1       5.263  24.231  56.302  1.00  0.00    -0.169 F 
HETATM   22  F   UNL     1       6.418  25.370  57.748  1.00  0.00    -0.169 F 
ENDBRANCH   8  19
BRANCH   6  23
HETATM   23  C   UNL     1       7.673  24.528  54.476  1.00  0.00    -0.034 A 
HETATM   24  C   UNL     1       7.461  23.384  53.685  1.00  0.00     0.034 A 
HETATM   25  C   UNL     1       7.991  22.139  54.048  1.00  0.00     0.056 A 
HETATM   26 CL   UNL     1       7.683  20.797  53.004  1.00  0.00    -0.083 Cl
HETATM   27  C   UNL     1       8.738  22.017  55.222  1.00  0.00     0.055 A 
HETATM   28 CL   UNL     1       9.415  20.516  55.744  1.00  0.00    -0.083 Cl
HETATM   29  C   UNL     1       8.951  23.141  56.024  1.00  0.00     0.026 A 
HETATM   30  C   UNL     1       8.424  24.383  55.654  1.00  0.00     0.011 A 
ENDBRANCH   6  23
TORSDOF 6
ENDMDL
MODEL 2
REMARK VINA RESULT:      -8.4      5.019      7.556
REMARK  6 active torsions:
REMARK  status: ('A' for Active; 'I' for Inactive)
REMARK    1  A    between atoms: O_2  and  C_3 
REMARK    2  A    between atoms: C_3  and  C_4 
REMARK    3  A    between atoms: C_4  and  N_5 
REMARK       I    between atoms: N_5  and  C_6 
REMARK    4  A    between atoms: C_6  and  C_7 
REMARK    5  A    between atoms: C_12  and  C_13 
REMARK    6  A    between atoms: C_22  and  C_23 
ROOT
HETATM    1  C   UNL     1       5.532  28.723  50.742  1.00  0.00     0.148 A 
HETATM    2  N   UNL     1       6.025  29.045  51.961  1.00  0.00    -0.165 NA
HETATM    3  N   UNL     1       5.788  27.946  52.698  1.00  0.00    -0.240 N 
HETATM    4  C   UNL     1       5.105  26.967  52.033  1.00  0.00     0.123 A 
HETATM    5  N   UNL     1       4.720  25.826  52.641  1.00  0.00    -0.366 N 
HETATM    6  C   UNL     1       5.069  25.516  54.022  1.00  0.00     0.118 C 
HETATM    7  C   UNL     1       5.325  26.808  54.824  1.00  0.00     0.066 C 
HETATM    8  C   UNL     1       6.172  27.866  54.092  1.00  0.00     0.221 C 
HETATM    9  C   UNL     1       4.945  27.426  50.753  1.00  0.00     0.088 A 
HETATM   10  H   UNL     1       4.278  25.073  52.114  1.00  0.00     0.161 HD
ENDROOT
BRANCH   1  11
HETATM   11  C   UNL     1       5.617  29.632  49.590  1.00  0.00     0.272 C 
HETATM   12  N   UNL     1       4.828  29.252  48.529  1.00  0.00    -0.354 N 
HETATM   13  H   UNL     1       4.178  28.490  48.715  1.00  0.00     0.162 HD
HETATM   14  O   UNL     1       6.322  30.637  49.588  1.00  0.00    -0.266 OA
BRANCH  12  15
HETATM   15  C   UNL     1       4.579  30.115  47.393  1.00  0.00     0.149 C 
BRANCH  15  16
HETATM   16  C   UNL     1       3.139  29.993  46.900  1.00  0.00     0.186 C 
BRANCH  16  17
HETATM   17  O   UNL     1       2.438  29.054  47.722  1.00  0.00    -0.394 OA
HETATM   18  C   UNL     1       1.605  28.202  46.945  1.00  0.00     0.201 C 
ENDBRANCH  16  17
ENDBRANCH  15  16
ENDBRANCH  12  15
ENDBRANCH   1  11
BRANCH   8  19
HETATM   19  C   UNL     1       7.663  27.644  54.215  1.00  0.00     0.409 C 
HETATM   20  F   UNL     1       7.993  27.022  55.370  1.00  0.00    -0.169 F 
HETATM   21  F   UNL     1       8.093  26.834  53.213  1.00  0.00    -0.169 F 
HETATM   22  F   UNL     1       8.389  28.775  54.144  1.00  0.00    -0.169 F 
ENDBRANCH   8  19
BRANCH   6  23
HETATM   23  C   UNL     1       6.159  24.461  54.127  1.00  0.00    -0.034 A 
HETATM   24  C   UNL     1       6.704  24.044  55.356  1.00  0.00     0.034 A 
HETATM   25  C   UNL     1       7.722  23.084  55.412  1.00  0.00     0.056 A 
HETATM   26 CL   UNL     1       8.316  22.631  56.970  1.00  0.00    -0.083 Cl
HETATM   27  C   UNL     1       8.223  22.532  54.231  1.00  0.00     0.055 A 
HETATM   28 CL   UNL     1       9.485  21.353  54.216  1.00  0.00    -0.083 Cl
HETATM   29  C   UNL     1       7.701  22.941  53.002  1.00  0.00     0.026 A 
HETATM   30  C   UNL     1       6.679  23.895  52.951  1.00  0.00     0.011 A 
ENDBRANCH   6  23
TORSDOF 6
ENDMDL
MODEL 3
REMARK VINA RESULT:      -8.4      1.526      2.078
REMARK  6 active torsions:
REMARK  status: ('A' for Active; 'I' for Inactive)
REMARK    1  A    between atoms: O_2  and  C_3 
REMARK    2  A    between atoms: C_3  and  C_4 
REMARK    3  A    between atoms: C_4  and  N_5 
REMARK       I    between atoms: N_5  and  C_6 
REMARK    4  A    between atoms: C_6  and  C_7 
REMARK    5  A    between atoms: C_12  and  C_13 
REMARK    6  A    between atoms: C_22  and  C_23 
ROOT
HETATM    1  C   UNL     1       7.269  29.072  57.375  1.00  0.00     0.148 A 
HETATM    2  N   UNL     1       6.135  28.335  57.319  1.00  0.00    -0.165 NA
HETATM    3  N   UNL     1       6.369  27.471  56.317  1.00  0.00    -0.240 N 
HETATM    4  C   UNL     1       7.564  27.664  55.683  1.00  0.00     0.123 A 
HETATM    5  N   UNL     1       7.929  26.934  54.610  1.00  0.00    -0.366 N 
HETATM    6  C   UNL     1       7.120  25.837  54.094  1.00  0.00     0.118 C 
HETATM    7  C   UNL     1       5.637  26.029  54.469  1.00  0.00     0.066 C 
HETATM    8  C   UNL     1       5.390  26.479  55.921  1.00  0.00     0.221 C 
HETATM    9  C   UNL     1       8.187  28.679  56.361  1.00  0.00     0.088 A 
HETATM   10  H   UNL     1       8.854  27.037  54.194  1.00  0.00     0.161 HD
ENDROOT
BRANCH   1  11
HETATM   11  C   UNL     1       7.476  30.130  58.375  1.00  0.00     0.272 C 
HETATM   12  N   UNL     1       6.411  30.992  58.492  1.00  0.00    -0.354 N 
HETATM   13  H   UNL     1       5.565  30.718  57.995  1.00  0.00     0.162 HD
HETATM   14  O   UNL     1       8.501  30.220  59.043  1.00  0.00    -0.266 OA
BRANCH  12  15
HETATM   15  C   UNL     1       6.301  31.956  59.567  1.00  0.00     0.149 C 
BRANCH  15  16
HETATM   16  C   UNL     1       5.253  33.023  59.260  1.00  0.00     0.186 C 
BRANCH  16  17
HETATM   17  O   UNL     1       5.421  33.475  57.912  1.00  0.00    -0.394 OA
HETATM   18  C   UNL     1       4.557  34.565  57.617  1.00  0.00     0.201 C 
ENDBRANCH  16  17
ENDBRANCH  15  16
ENDBRANCH  12  15
ENDBRANCH   1  11
BRANCH   8  19
HETATM   19  C   UNL     1       5.363  25.341  56.916  1.00  0.00     0.409 C 
HETATM   20  F   UNL     1       4.271  25.385  57.713  1.00  0.00    -0.169 F 
HETATM   21  F   UNL     1       5.301  24.154  56.257  1.00  0.00    -0.169 F 
HETATM   22  F   UNL     1       6.445  25.290  57.714  1.00  0.00    -0.169 F 
ENDBRANCH   8  19
BRANCH   6  23
HETATM   23  C   UNL     1       7.701  24.473  54.430  1.00  0.00    -0.034 A 
HETATM   24  C   UNL     1       7.473  23.329  53.643  1.00  0.00     0.034 A 
HETATM   25  C   UNL     1       8.009  22.083  53.996  1.00  0.00     0.056 A 
HETATM   26 CL   UNL     1       7.678  20.743  52.958  1.00  0.00    -0.083 Cl
HETATM   27  C   UNL     1       8.777  21.961  55.155  1.00  0.00     0.055 A 
HETATM   28 CL   UNL     1       9.462  20.459  55.663  1.00  0.00    -0.083 Cl
HETATM   29  C   UNL     1       9.007  23.084  55.953  1.00  0.00     0.026 A 
HETATM   30  C   UNL     1       8.475  24.326  55.593  1.00  0.00     0.011 A 
ENDBRANCH   6  23
TORSDOF 6
ENDMDL
MODEL 4
REMARK VINA RESULT:      -8.3      4.872      7.455
REMARK  6 active torsions:
REMARK  status: ('A' for Active; 'I' for Inactive)
REMARK    1  A    between atoms: O_2  and  C_3 
REMARK    2  A    between atoms: C_3  and  C_4 
REMARK    3  A    between atoms: C_4  and  N_5 
REMARK       I    between atoms: N_5  and  C_6 
REMARK    4  A    between atoms: C_6  and  C_7 
REMARK    5  A    between atoms: C_12  and  C_13 
REMARK    6  A    between atoms: C_22  and  C_23 
ROOT
HETATM    1  C   UNL     1       5.462  28.566  51.103  1.00  0.00     0.148 A 
HETATM    2  N   UNL     1       6.115  29.027  52.195  1.00  0.00    -0.165 NA
HETATM    3  N   UNL     1       5.875  28.087  53.126  1.00  0.00    -0.240 N 
HETATM    4  C   UNL     1       5.044  27.087  52.705  1.00  0.00     0.123 A 
HETATM    5  N   UNL     1       4.640  26.100  53.531  1.00  0.00    -0.366 N 
HETATM    6  C   UNL     1       5.117  25.980  54.903  1.00  0.00     0.118 C 
HETATM    7  C   UNL     1       5.566  27.350  55.448  1.00  0.00     0.066 C 
HETATM    8  C   UNL     1       6.408  28.191  54.469  1.00  0.00     0.221 C 
HETATM    9  C   UNL     1       4.777  27.352  51.388  1.00  0.00     0.088 A 
HETATM   10  H   UNL     1       4.082  25.321  53.184  1.00  0.00     0.161 HD
ENDROOT
BRANCH   1  11
HETATM   11  C   UNL     1       5.490  29.269  49.811  1.00  0.00     0.272 C 
HETATM   12  N   UNL     1       4.630  28.738  48.877  1.00  0.00    -0.354 N 
HETATM   13  H   UNL     1       3.982  28.034  49.225  1.00  0.00     0.162 HD
HETATM   14  O   UNL     1       6.208  30.242  49.600  1.00  0.00    -0.266 OA
BRANCH  12  15
HETATM   15  C   UNL     1       4.324  29.406  47.630  1.00  0.00     0.149 C 
BRANCH  15  16
HETATM   16  C   UNL     1       2.960  28.988  47.089  1.00  0.00     0.186 C 
BRANCH  16  17
HETATM   17  O   UNL     1       2.877  27.559  47.072  1.00  0.00    -0.394 OA
HETATM   18  C   UNL     1       1.597  27.107  47.495  1.00  0.00     0.201 C 
ENDBRANCH  16  17
ENDBRANCH  15  16
ENDBRANCH  12  15
ENDBRANCH   1  11
BRANCH   8  19
HETATM   19  C   UNL     1       7.880  27.846  54.479  1.00  0.00     0.409 C 
HETATM   20  F   UNL     1       8.659  28.925  54.238  1.00  0.00    -0.169 F 
HETATM   21  F   UNL     1       8.238  27.388  55.707  1.00  0.00    -0.169 F 
HETATM   22  F   UNL     1       8.222  26.894  53.591  1.00  0.00    -0.169 F 
ENDBRANCH   8  19
BRANCH   6  23
HETATM   23  C   UNL     1       6.123  24.853  55.075  1.00  0.00    -0.034 A 
HETATM   24  C   UNL     1       6.514  24.009  54.019  1.00  0.00     0.034 A 
HETATM   25  C   UNL     1       7.428  22.967  54.220  1.00  0.00     0.056 A 
HETATM   26 CL   UNL     1       7.852  21.994  52.857  1.00  0.00    -0.083 Cl
HETATM   27  C   UNL     1       7.960  22.744  55.492  1.00  0.00     0.055 A 
HETATM   28 CL   UNL     1       9.082  21.474  55.823  1.00  0.00    -0.083 Cl
HETATM   29  C   UNL     1       7.576  23.566  56.554  1.00  0.00     0.026 A 
HETATM   30  C   UNL     1       6.668  24.610  56.347  1.00  0.00     0.011 A 
ENDBRANCH   6  23
TORSDOF 6
ENDMDL
MODEL 5
REMARK VINA RESULT:      -8.2      1.467      2.180
REMARK  6 active torsions:
REMARK  status: ('A' for Active; 'I' for Inactive)
REMARK    1  A    between atoms: O_2  and  C_3 
REMARK    2  A    between atoms: C_3  and  C_4 
REMARK    3  A    between atoms: C_4  and  N_5 
REMARK       I    between atoms: N_5  and  C_6 
REMARK    4  A    between atoms: C_6  and  C_7 
REMARK    5  A    between atoms: C_12  and  C_13 
REMARK    6  A    between atoms: C_22  and  C_23 
ROOT
HETATM    1  C   UNL     1       8.226  29.721  57.334  1.00  0.00     0.148 A 
HETATM    2  N   UNL     1       6.951  29.271  57.280  1.00  0.00    -0.165 NA
HETATM    3  N   UNL     1       6.882  28.658  56.085  1.00  0.00    -0.240 N 
HETATM    4  C   UNL     1       8.026  28.757  55.343  1.00  0.00     0.123 A 
HETATM    5  N   UNL     1       8.109  28.263  54.091  1.00  0.00    -0.366 N 
HETATM    6  C   UNL     1       7.022  27.521  53.466  1.00  0.00     0.118 C 
HETATM    7  C   UNL     1       5.666  27.911  54.088  1.00  0.00     0.066 C 
HETATM    8  C   UNL     1       5.667  28.021  55.624  1.00  0.00     0.221 C 
HETATM    9  C   UNL     1       8.928  29.418  56.133  1.00  0.00     0.088 A 
HETATM   10  H   UNL     1       8.990  28.277  53.578  1.00  0.00     0.161 HD
ENDROOT
BRANCH   1  11
HETATM   11  C   UNL     1       8.766  30.427  58.505  1.00  0.00     0.272 C 
HETATM   12  N   UNL     1       8.108  30.133  59.677  1.00  0.00    -0.354 N 
HETATM   13  H   UNL     1       7.438  29.367  59.625  1.00  0.00     0.162 HD
HETATM   14  O   UNL     1       9.720  31.196  58.435  1.00  0.00    -0.266 OA
BRANCH  12  15
HETATM   15  C   UNL     1       8.612  30.528  60.975  1.00  0.00     0.149 C 
BRANCH  15  16
HETATM   16  C   UNL     1       8.066  31.889  61.399  1.00  0.00     0.186 C 
BRANCH  16  17
HETATM   17  O   UNL     1       8.680  32.280  62.632  1.00  0.00    -0.394 OA
HETATM   18  C   UNL     1       7.712  32.700  63.585  1.00  0.00     0.201 C 
ENDBRANCH  16  17
ENDBRANCH  15  16
ENDBRANCH  12  15
ENDBRANCH   1  11
BRANCH   8  19
HETATM   19  C   UNL     1       5.466  26.698  56.329  1.00  0.00     0.409 C 
HETATM   20  F   UNL     1       5.088  25.717  55.477  1.00  0.00    -0.169 F 
HETATM   21  F   UNL     1       6.637  26.288  56.882  1.00  0.00    -0.169 F 
HETATM   22  F   UNL     1       4.559  26.743  57.322  1.00  0.00    -0.169 F 
ENDBRANCH   8  19
BRANCH   6  23
HETATM   23  C   UNL     1       7.297  26.027  53.397  1.00  0.00    -0.034 A 
HETATM   24  C   UNL     1       7.958  25.323  54.421  1.00  0.00     0.034 A 
HETATM   25  C   UNL     1       8.213  23.950  54.312  1.00  0.00     0.056 A 
HETATM   26 CL   UNL     1       9.021  23.176  55.628  1.00  0.00    -0.083 Cl
HETATM   27  C   UNL     1       7.818  23.258  53.165  1.00  0.00     0.055 A 
HETATM   28 CL   UNL     1       8.107  21.569  52.951  1.00  0.00    -0.083 Cl
HETATM   29  C   UNL     1       7.169  23.943  52.136  1.00  0.00     0.026 A 
HETATM   30  C   UNL     1       6.911  25.312  52.251  1.00  0.00     0.011 A 
ENDBRANCH   6  23
TORSDOF 6
ENDMDL
MODEL 6
REMARK VINA RESULT:      -8.0      2.685      3.345
REMARK  6 active torsions:
REMARK  status: ('A' for Active; 'I' for Inactive)
REMARK    1  A    between atoms: O_2  and  C_3 
REMARK    2  A    between atoms: C_3  and  C_4 
REMARK    3  A    between atoms: C_4  and  N_5 
REMARK       I    between atoms: N_5  and  C_6 
REMARK    4  A    between atoms: C_6  and  C_7 
REMARK    5  A    between atoms: C_12  and  C_13 
REMARK    6  A    between atoms: C_22  and  C_23 
ROOT
HETATM    1  C   UNL     1       5.595  29.012  54.771  1.00  0.00     0.148 A 
HETATM    2  N   UNL     1       4.948  28.274  53.840  1.00  0.00    -0.165 NA
HETATM    3  N   UNL     1       5.852  27.343  53.490  1.00  0.00    -0.240 N 
HETATM    4  C   UNL     1       7.068  27.493  54.097  1.00  0.00     0.123 A 
HETATM    5  N   UNL     1       8.113  26.692  53.808  1.00  0.00    -0.366 N 
HETATM    6  C   UNL     1       8.007  25.562  52.893  1.00  0.00     0.118 C 
HETATM    7  C   UNL     1       6.859  25.779  51.887  1.00  0.00     0.066 C 
HETATM    8  C   UNL     1       5.557  26.327  52.501  1.00  0.00     0.221 C 
HETATM    9  C   UNL     1       6.929  28.552  54.955  1.00  0.00     0.088 A 
HETATM   10  H   UNL     1       8.991  26.767  54.322  1.00  0.00     0.161 HD
ENDROOT
BRANCH   1  11
HETATM   11  C   UNL     1       4.957  30.136  55.473  1.00  0.00     0.272 C 
HETATM   12  N   UNL     1       4.977  30.013  56.842  1.00  0.00    -0.354 N 
HETATM   13  H   UNL     1       5.549  29.254  57.208  1.00  0.00     0.162 HD
HETATM   14  O   UNL     1       4.464  31.093  54.882  1.00  0.00    -0.266 OA
BRANCH  12  15
HETATM   15  C   UNL     1       4.619  31.100  57.729  1.00  0.00     0.149 C 
BRANCH  15  16
HETATM   16  C   UNL     1       5.854  31.760  58.337  1.00  0.00     0.186 C 
BRANCH  16  17
HETATM   17  O   UNL     1       5.741  33.181  58.208  1.00  0.00    -0.394 OA
HETATM   18  C   UNL     1       4.619  33.544  57.412  1.00  0.00     0.201 C 
ENDBRANCH  16  17
ENDBRANCH  15  16
ENDBRANCH  12  15
ENDBRANCH   1  11
BRANCH   8  19
HETATM   19  C   UNL     1       4.666  25.258  53.095  1.00  0.00     0.409 C 
HETATM   20  F   UNL     1       5.007  24.960  54.369  1.00  0.00    -0.169 F 
HETATM   21  F   UNL     1       3.383  25.700  53.140  1.00  0.00    -0.169 F 
HETATM   22  F   UNL     1       4.660  24.107  52.398  1.00  0.00    -0.169 F 
ENDBRANCH   8  19
BRANCH   6  23
HETATM   23  C   UNL     1       7.992  24.224  53.615  1.00  0.00    -0.034 A 
HETATM   24  C   UNL     1       8.021  22.990  52.940  1.00  0.00     0.034 A 
HETATM   25  C   UNL     1       7.984  21.776  53.639  1.00  0.00     0.056 A 
HETATM   26 CL   UNL     1       8.035  20.316  52.718  1.00  0.00    -0.083 Cl
HETATM   27  C   UNL     1       7.907  21.780  55.033  1.00  0.00     0.055 A 
HETATM   28 CL   UNL     1       7.846  20.327  55.965  1.00  0.00    -0.083 Cl
HETATM   29  C   UNL     1       7.868  22.995  55.719  1.00  0.00     0.026 A 
HETATM   30  C   UNL     1       7.911  24.204  55.017  1.00  0.00     0.011 A 
ENDBRANCH   6  23
TORSDOF 6
ENDMDL
MODEL 7
REMARK VINA RESULT:      -7.9     11.118     12.955
REMARK  6 active torsions:
REMARK  status: ('A' for Active; 'I' for Inactive)
REMARK    1  A    between atoms: O_2  and  C_3 
REMARK    2  A    between atoms: C_3  and  C_4 
REMARK    3  A    between atoms: C_4  and  N_5 
REMARK       I    between atoms: N_5  and  C_6 
REMARK    4  A    between atoms: C_6  and  C_7 
REMARK    5  A    between atoms: C_12  and  C_13 
REMARK    6  A    between atoms: C_22  and  C_23 
ROOT
HETATM    1  C   UNL     1       5.144  34.452  67.174  1.00  0.00     0.148 A 
HETATM    2  N   UNL     1       5.726  33.759  66.168  1.00  0.00    -0.165 NA
HETATM    3  N   UNL     1       4.910  33.975  65.122  1.00  0.00    -0.240 N 
HETATM    4  C   UNL     1       3.800  34.712  65.426  1.00  0.00     0.123 A 
HETATM    5  N   UNL     1       2.839  34.964  64.513  1.00  0.00    -0.366 N 
HETATM    6  C   UNL     1       2.946  34.542  63.123  1.00  0.00     0.118 C 
HETATM    7  C   UNL     1       3.877  33.320  62.993  1.00  0.00     0.066 C 
HETATM    8  C   UNL     1       5.176  33.405  63.817  1.00  0.00     0.221 C 
HETATM    9  C   UNL     1       3.932  35.061  66.743  1.00  0.00     0.088 A 
HETATM   10  H   UNL     1       2.054  35.577  64.733  1.00  0.00     0.161 HD
ENDROOT
BRANCH   1  11
HETATM   11  C   UNL     1       5.731  34.533  68.520  1.00  0.00     0.272 C 
HETATM   12  N   UNL     1       6.902  35.253  68.567  1.00  0.00    -0.354 N 
HETATM   13  H   UNL     1       7.142  35.760  67.717  1.00  0.00     0.162 HD
HETATM   14  O   UNL     1       5.211  34.013  69.502  1.00  0.00    -0.266 OA
BRANCH  12  15
HETATM   15  C   UNL     1       7.520  35.656  69.813  1.00  0.00     0.149 C 
BRANCH  15  16
HETATM   16  C   UNL     1       8.728  34.783  70.148  1.00  0.00     0.186 C 
BRANCH  16  17
HETATM   17  O   UNL     1       8.286  33.618  70.853  1.00  0.00    -0.394 OA
HETATM   18  C   UNL     1       7.753  33.953  72.129  1.00  0.00     0.201 C 
ENDBRANCH  16  17
ENDBRANCH  15  16
ENDBRANCH  12  15
ENDBRANCH   1  11
BRANCH   8  19
HETATM   19  C   UNL     1       6.286  34.165  63.127  1.00  0.00     0.409 C 
HETATM   20  F   UNL     1       6.297  35.474  63.467  1.00  0.00    -0.169 F 
HETATM   21  F   UNL     1       7.491  33.666  63.505  1.00  0.00    -0.169 F 
HETATM   22  F   UNL     1       6.238  34.098  61.783  1.00  0.00    -0.169 F 
ENDBRANCH   8  19
BRANCH   6  23
HETATM   23  C   UNL     1       3.258  35.696  62.184  1.00  0.00    -0.034 A 
HETATM   24  C   UNL     1       3.466  35.524  60.802  1.00  0.00     0.034 A 
HETATM   25  C   UNL     1       3.772  36.610  59.971  1.00  0.00     0.056 A 
HETATM   26 CL   UNL     1       3.998  36.295  58.288  1.00  0.00    -0.083 Cl
HETATM   27  C   UNL     1       3.887  37.891  60.515  1.00  0.00     0.055 A 
HETATM   28 CL   UNL     1       4.273  39.277  59.560  1.00  0.00    -0.083 Cl
HETATM   29  C   UNL     1       3.693  38.078  61.885  1.00  0.00     0.026 A 
HETATM   30  C   UNL     1       3.382  36.993  62.710  1.00  0.00     0.011 A 
ENDBRANCH   6  23
TORSDOF 6
ENDMDL
MODEL 8
REMARK VINA RESULT:      -7.9      5.182      7.137
REMARK  6 active torsions:
REMARK  status: ('A' for Active; 'I' for Inactive)
REMARK    1  A    between atoms: O_2  and  C_3 
REMARK    2  A    between atoms: C_3  and  C_4 
REMARK    3  A    between atoms: C_4  and  N_5 
REMARK       I    between atoms: N_5  and  C_6 
REMARK    4  A    between atoms: C_6  and  C_7 
REMARK    5  A    between atoms: C_12  and  C_13 
REMARK    6  A    between atoms: C_22  and  C_23 
ROOT
HETATM    1  C   UNL     1       5.475  28.771  50.780  1.00  0.00     0.148 A 
HETATM    2  N   UNL     1       5.997  29.079  51.990  1.00  0.00    -0.165 NA
HETATM    3  N   UNL     1       5.773  27.974  52.721  1.00  0.00    -0.240 N 
HETATM    4  C   UNL     1       5.071  27.004  52.062  1.00  0.00     0.123 A 
HETATM    5  N   UNL     1       4.696  25.858  52.668  1.00  0.00    -0.366 N 
HETATM    6  C   UNL     1       5.075  25.533  54.037  1.00  0.00     0.118 C 
HETATM    7  C   UNL     1       5.355  26.816  54.846  1.00  0.00     0.066 C 
HETATM    8  C   UNL     1       6.190  27.878  54.105  1.00  0.00     0.221 C 
HETATM    9  C   UNL     1       4.883  27.477  50.791  1.00  0.00     0.088 A 
HETATM   10  H   UNL     1       4.238  25.113  52.144  1.00  0.00     0.161 HD
ENDROOT
BRANCH   1  11
HETATM   11  C   UNL     1       5.537  29.692  49.635  1.00  0.00     0.272 C 
HETATM   12  N   UNL     1       5.768  31.000  49.992  1.00  0.00    -0.354 N 
HETATM   13  H   UNL     1       6.013  31.153  50.969  1.00  0.00     0.162 HD
HETATM   14  O   UNL     1       5.404  29.316  48.474  1.00  0.00    -0.266 OA
BRANCH  12  15
HETATM   15  C   UNL     1       6.097  32.026  49.025  1.00  0.00     0.149 C 
BRANCH  15  16
HETATM   16  C   UNL     1       4.864  32.826  48.613  1.00  0.00     0.186 C 
BRANCH  16  17
HETATM   17  O   UNL     1       5.279  34.059  48.017  1.00  0.00    -0.394 OA
HETATM   18  C   UNL     1       4.714  34.227  46.722  1.00  0.00     0.201 C 
ENDBRANCH  16  17
ENDBRANCH  15  16
ENDBRANCH  12  15
ENDBRANCH   1  11
BRANCH   8  19
HETATM   19  C   UNL     1       7.682  27.649  54.191  1.00  0.00     0.409 C 
HETATM   20  F   UNL     1       8.378  28.809  54.185  1.00  0.00    -0.169 F 
HETATM   21  F   UNL     1       7.987  27.031  55.362  1.00  0.00    -0.169 F 
HETATM   22  F   UNL     1       8.172  26.879  53.202  1.00  0.00    -0.169 F 
ENDBRANCH   8  19
BRANCH   6  23
HETATM   23  C   UNL     1       6.163  24.473  54.106  1.00  0.00    -0.034 A 
HETATM   24  C   UNL     1       6.706  24.012  55.320  1.00  0.00     0.034 A 
HETATM   25  C   UNL     1       7.723  23.049  55.343  1.00  0.00     0.056 A 
HETATM   26 CL   UNL     1       8.315  22.542  56.885  1.00  0.00    -0.083 Cl
HETATM   27  C   UNL     1       8.223  22.536  54.144  1.00  0.00     0.055 A 
HETATM   28 CL   UNL     1       9.482  21.356  54.089  1.00  0.00    -0.083 Cl
HETATM   29  C   UNL     1       7.702  22.989  52.930  1.00  0.00     0.026 A 
HETATM   30  C   UNL     1       6.682  23.947  52.912  1.00  0.00     0.011 A 
ENDBRANCH   6  23
TORSDOF 6
ENDMDL
MODEL 9
REMARK VINA RESULT:      -7.7      6.883      9.327
REMARK  6 active torsions:
REMARK  status: ('A' for Active; 'I' for Inactive)
REMARK    1  A    between atoms: O_2  and  C_3 
REMARK    2  A    between atoms: C_3  and  C_4 
REMARK    3  A    between atoms: C_4  and  N_5 
REMARK       I    between atoms: N_5  and  C_6 
REMARK    4  A    between atoms: C_6  and  C_7 
REMARK    5  A    between atoms: C_12  and  C_13 
REMARK    6  A    between atoms: C_22  and  C_23 
ROOT
HETATM    1  C   UNL     1       5.609  26.248  52.695  1.00  0.00     0.148 A 
HETATM    2  N   UNL     1       5.429  27.588  52.624  1.00  0.00    -0.165 NA
HETATM    3  N   UNL     1       5.252  27.814  51.311  1.00  0.00    -0.240 N 
HETATM    4  C   UNL     1       5.381  26.698  50.532  1.00  0.00     0.123 A 
HETATM    5  N   UNL     1       5.306  26.755  49.187  1.00  0.00    -0.366 N 
HETATM    6  C   UNL     1       5.005  27.987  48.468  1.00  0.00     0.118 C 
HETATM    7  C   UNL     1       5.406  29.219  49.303  1.00  0.00     0.066 C 
HETATM    8  C   UNL     1       5.018  29.146  50.792  1.00  0.00     0.221 C 
HETATM    9  C   UNL     1       5.587  25.659  51.400  1.00  0.00     0.088 A 
HETATM   10  H   UNL     1       5.329  25.906  48.623  1.00  0.00     0.161 HD
ENDROOT
BRANCH   1  11
HETATM   11  C   UNL     1       5.798  25.542  53.971  1.00  0.00     0.272 C 
HETATM   12  N   UNL     1       6.450  24.338  53.842  1.00  0.00    -0.354 N 
HETATM   13  H   UNL     1       6.849  24.149  52.925  1.00  0.00     0.162 HD
HETATM   14  O   UNL     1       5.415  25.998  55.044  1.00  0.00    -0.266 OA
BRANCH  12  15
HETATM   15  C   UNL     1       6.945  23.593  54.981  1.00  0.00     0.149 C 
BRANCH  15  16
HETATM   16  C   UNL     1       8.012  22.581  54.570  1.00  0.00     0.186 C 
BRANCH  16  17
HETATM   17  O   UNL     1       7.738  22.123  53.241  1.00  0.00    -0.394 OA
HETATM   18  C   UNL     1       7.877  20.711  53.139  1.00  0.00     0.201 C 
ENDBRANCH  16  17
ENDBRANCH  15  16
ENDBRANCH  12  15
ENDBRANCH   1  11
BRANCH   8  19
HETATM   19  C   UNL     1       3.595  29.577  51.072  1.00  0.00     0.409 C 
HETATM   20  F   UNL     1       2.728  28.539  51.023  1.00  0.00    -0.169 F 
HETATM   21  F   UNL     1       3.506  30.086  52.328  1.00  0.00    -0.169 F 
HETATM   22  F   UNL     1       3.139  30.524  50.232  1.00  0.00    -0.169 F 
ENDBRANCH   8  19
BRANCH   6  23
HETATM   23  C   UNL     1       3.588  28.010  47.918  1.00  0.00    -0.034 A 
HETATM   24  C   UNL     1       3.047  29.121  47.244  1.00  0.00     0.034 A 
HETATM   25  C   UNL     1       1.729  29.115  46.769  1.00  0.00     0.056 A 
HETATM   26 CL   UNL     1       1.164  30.524  45.945  1.00  0.00    -0.083 Cl
HETATM   27  C   UNL     1       0.923  27.993  46.973  1.00  0.00     0.055 A 
HETATM   28 CL   UNL     1      -0.714  27.912  46.428  1.00  0.00    -0.083 Cl
HETATM   29  C   UNL     1       1.440  26.885  47.647  1.00  0.00     0.026 A 
HETATM   30  C   UNL     1       2.758  26.894  48.114  1.00  0.00     0.011 A 
ENDBRANCH   6  23
TORSDOF 6
ENDMDL
MODEL 10
REMARK VINA RESULT:      -7.6      9.794     11.650
REMARK  6 active torsions:
REMARK  status: ('A' for Active; 'I' for Inactive)
REMARK    1  A    between atoms: O_2  and  C_3 
REMARK    2  A    between atoms: C_3  and  C_4 
REMARK    3  A    between atoms: C_4  and  N_5 
REMARK       I    between atoms: N_5  and  C_6 
REMARK    4  A    between atoms: C_6  and  C_7 
REMARK    5  A    between atoms: C_12  and  C_13 
REMARK    6  A    between atoms: C_22  and  C_23 
ROOT
HETATM    1  C   UNL     1       5.120  34.216  66.219  1.00  0.00     0.148 A 
HETATM    2  N   UNL     1       5.955  33.444  65.485  1.00  0.00    -0.165 NA
HETATM    3  N   UNL     1       5.275  33.239  64.344  1.00  0.00    -0.240 N 
HETATM    4  C   UNL     1       4.020  33.780  64.340  1.00  0.00     0.123 A 
HETATM    5  N   UNL     1       3.173  33.610  63.304  1.00  0.00    -0.366 N 
HETATM    6  C   UNL     1       3.554  32.908  62.085  1.00  0.00     0.118 C 
HETATM    7  C   UNL     1       4.694  31.909  62.363  1.00  0.00     0.066 C 
HETATM    8  C   UNL     1       5.824  32.449  63.261  1.00  0.00     0.221 C 
HETATM    9  C   UNL     1       3.895  34.444  65.531  1.00  0.00     0.088 A 
HETATM   10  H   UNL     1       2.269  34.081  63.282  1.00  0.00     0.161 HD
ENDROOT
BRANCH   1  11
HETATM   11  C   UNL     1       5.481  34.726  67.550  1.00  0.00     0.272 C 
HETATM   12  N   UNL     1       6.101  33.793  68.348  1.00  0.00    -0.354 N 
HETATM   13  H   UNL     1       6.367  32.925  67.886  1.00  0.00     0.162 HD
HETATM   14  O   UNL     1       5.255  35.880  67.902  1.00  0.00    -0.266 OA
BRANCH  12  15
HETATM   15  C   UNL     1       6.746  34.139  69.597  1.00  0.00     0.149 C 
BRANCH  15  16
HETATM   16  C   UNL     1       8.080  34.843  69.364  1.00  0.00     0.186 C 
BRANCH  16  17
HETATM   17  O   UNL     1       9.046  34.341  70.295  1.00  0.00    -0.394 OA
HETATM   18  C   UNL     1       8.459  34.081  71.564  1.00  0.00     0.201 C 
ENDBRANCH  16  17
ENDBRANCH  15  16
ENDBRANCH  12  15
ENDBRANCH   1  11
BRANCH   8  19
HETATM   19  C   UNL     1       6.871  33.241  62.510  1.00  0.00     0.409 C 
HETATM   20  F   UNL     1       6.624  34.571  62.539  1.00  0.00    -0.169 F 
HETATM   21  F   UNL     1       8.085  33.070  63.095  1.00  0.00    -0.169 F 
HETATM   22  F   UNL     1       7.003  32.883  61.220  1.00  0.00    -0.169 F 
ENDBRANCH   8  19
BRANCH   6  23
HETATM   23  C   UNL     1       3.791  33.852  60.917  1.00  0.00    -0.034 A 
HETATM   24  C   UNL     1       3.694  35.252  61.033  1.00  0.00     0.034 A 
HETATM   25  C   UNL     1       3.898  36.090  59.929  1.00  0.00     0.056 A 
HETATM   26 CL   UNL     1       3.766  37.794  60.178  1.00  0.00    -0.083 Cl
HETATM   27  C   UNL     1       4.194  35.536  58.682  1.00  0.00     0.055 A 
HETATM   28 CL   UNL     1       4.447  36.501  57.272  1.00  0.00    -0.083 Cl
HETATM   29  C   UNL     1       4.285  34.149  58.546  1.00  0.00     0.026 A 
HETATM   30  C   UNL     1       4.086  33.317  59.653  1.00  0.00     0.011 A 
ENDBRANCH   6  23
TORSDOF 6
ENDMDL
