MODEL 1
REMARK VINA RESULT:      -9.0      0.000      0.000
REMARK  6 active torsions:
REMARK  status: ('A' for Active; 'I' for Inactive)
REMARK    1  A    between atoms: C_2  and  N_3 
REMARK    2  A    between atoms: C_2  and  C_25 
REMARK    3  A    between atoms: C_7  and  N_8 
REMARK       I    between atoms: N_8  and  C_9 
REMARK       I    between atoms: C_9  and  N_10 
REMARK    4  A    between atoms: N_10  and  C_11 
REMARK    5  A    between atoms: C_11  and  C_12 
REMARK    6  A    between atoms: C_20  and  O_21 
ROOT
HETATM    1  N   UNL     1       8.021  30.599  60.059  1.00  0.00    -0.293 N 
HETATM    2  C   UNL     1       8.455  30.455  61.400  1.00  0.00     0.322 C 
HETATM    3  N   UNL     1       7.537  30.851  62.322  1.00  0.00    -0.337 N 
HETATM    4  O   UNL     1       9.528  29.970  61.707  1.00  0.00    -0.247 OA
HETATM    5  H   UNL     1       7.052  30.823  59.900  1.00  0.00     0.172 HD
HETATM    6  H   UNL     1       7.925  30.775  63.254  1.00  0.00     0.164 HD
ENDROOT
BRANCH   3   7
HETATM    7  C   UNL     1       6.534  31.873  62.146  1.00  0.00     0.181 C 
BRANCH   7   8
HETATM    8  C   UNL     1       6.294  32.582  63.429  1.00  0.00     0.028 A 
HETATM    9  N   UNL     1       5.034  32.877  63.899  1.00  0.00    -0.357 N 
HETATM   10  H   UNL     1       4.167  32.652  63.429  1.00  0.00     0.166 HD
HETATM   11  C   UNL     1       5.113  33.523  65.111  1.00  0.00     0.043 A 
HETATM   12  C   UNL     1       6.461  33.606  65.448  1.00  0.00    -0.005 A 
HETATM   13  C   UNL     1       4.101  34.019  65.937  1.00  0.00     0.033 A 
HETATM   14  C   UNL     1       7.194  33.014  64.384  1.00  0.00     0.040 A 
HETATM   15  C   UNL     1       6.818  34.193  66.675  1.00  0.00     0.050 A 
HETATM   16  C   UNL     1       5.820  34.670  67.536  1.00  0.00     0.069 A 
HETATM   17  C   UNL     1       4.480  34.595  67.157  1.00  0.00     0.039 A 
BRANCH  16  18
HETATM   18  O   UNL     1       6.288  35.195  68.710  1.00  0.00    -0.356 OA
HETATM   19  C   UNL     1       7.630  34.875  69.060  1.00  0.00     0.210 C 
ENDBRANCH  16  18
ENDBRANCH   7   8
ENDBRANCH   3   7
BRANCH   1  20
HETATM   20  C   UNL     1       8.833  30.374  58.953  1.00  0.00     0.129 A 
HETATM   21  N   UNL     1       8.644  29.427  57.965  1.00  0.00    -0.249 N 
HETATM   22  N   UNL     1       9.592  29.468  57.005  1.00  0.00    -0.183 NA
HETATM   23  C   UNL     1      10.400  30.454  57.390  1.00  0.00     0.142 A 
HETATM   24  C   UNL     1       9.977  31.051  58.589  1.00  0.00     0.071 A 
BRANCH  21  25
HETATM   25  C   UNL     1       7.600  28.404  57.849  1.00  0.00     0.111 C 
HETATM   26  C   UNL     1       6.263  29.057  57.482  1.00  0.00     0.035 C 
BRANCH  25  27
HETATM   27  C   UNL     1       8.004  27.226  56.920  1.00  0.00     0.002 C 
HETATM   28  C   UNL     1       8.081  25.898  57.684  1.00  0.00     0.011 C 
HETATM   29  C   UNL     1       7.029  27.064  55.748  1.00  0.00     0.011 C 
ENDBRANCH  25  27
ENDBRANCH  21  25
ENDBRANCH   1  20
TORSDOF 6
ENDMDL
MODEL 2
REMARK VINA RESULT:      -8.9      5.137     11.436
REMARK  6 active torsions:
REMARK  status: ('A' for Active; 'I' for Inactive)
REMARK    1  A    between atoms: C_2  and  N_3 
REMARK    2  A    between atoms: C_2  and  C_25 
REMARK    3  A    between atoms: C_7  and  N_8 
REMARK       I    between atoms: N_8  and  C_9 
REMARK       I    between atoms: C_9  and  N_10 
REMARK    4  A    between atoms: N_10  and  C_11 
REMARK    5  A    between atoms: C_11  and  C_12 
REMARK    6  A    between atoms: C_20  and  O_21 
ROOT
HETATM    1  N   UNL     1       6.878  28.965  57.659  1.00  0.00    -0.293 N 
HETATM    2  C   UNL     1       7.768  28.628  56.610  1.00  0.00     0.322 C 
HETATM    3  N   UNL     1       7.952  27.291  56.451  1.00  0.00    -0.337 N 
HETATM    4  O   UNL     1       8.281  29.454  55.878  1.00  0.00    -0.247 OA
HETATM    5  H   UNL     1       6.350  28.221  58.085  1.00  0.00     0.172 HD
HETATM    6  H   UNL     1       8.636  27.117  55.725  1.00  0.00     0.164 HD
ENDROOT
BRANCH   3   7
HETATM    7  C   UNL     1       7.872  26.287  57.484  1.00  0.00     0.181 C 
BRANCH   7   8
HETATM    8  C   UNL     1       7.965  24.930  56.889  1.00  0.00     0.028 A 
HETATM    9  N   UNL     1       8.199  23.797  57.636  1.00  0.00    -0.357 N 
HETATM   10  H   UNL     1       8.333  23.775  58.638  1.00  0.00     0.166 HD
HETATM   11  C   UNL     1       8.220  22.684  56.827  1.00  0.00     0.043 A 
HETATM   12  C   UNL     1       7.949  23.111  55.530  1.00  0.00    -0.005 A 
HETATM   13  C   UNL     1       8.439  21.341  57.145  1.00  0.00     0.033 A 
HETATM   14  C   UNL     1       7.793  24.523  55.580  1.00  0.00     0.040 A 
HETATM   15  C   UNL     1       7.873  22.153  54.504  1.00  0.00     0.050 A 
HETATM   16  C   UNL     1       8.057  20.795  54.802  1.00  0.00     0.069 A 
HETATM   17  C   UNL     1       8.353  20.404  56.107  1.00  0.00     0.039 A 
BRANCH  16  18
HETATM   18  O   UNL     1       7.933  19.958  53.727  1.00  0.00    -0.356 OA
HETATM   19  C   UNL     1       8.509  20.402  52.504  1.00  0.00     0.210 C 
ENDBRANCH  16  18
ENDBRANCH   7   8
ENDBRANCH   3   7
BRANCH   1  20
HETATM   20  C   UNL     1       6.635  30.268  58.083  1.00  0.00     0.129 A 
HETATM   21  N   UNL     1       7.418  31.021  58.937  1.00  0.00    -0.249 N 
HETATM   22  N   UNL     1       6.932  32.263  59.141  1.00  0.00    -0.183 NA
HETATM   23  C   UNL     1       5.820  32.300  58.410  1.00  0.00     0.142 A 
HETATM   24  C   UNL     1       5.588  31.092  57.732  1.00  0.00     0.071 A 
BRANCH  21  25
HETATM   25  C   UNL     1       8.647  30.644  59.643  1.00  0.00     0.111 C 
HETATM   26  C   UNL     1       9.867  30.915  58.756  1.00  0.00     0.035 C 
BRANCH  25  27
HETATM   27  C   UNL     1       8.746  31.267  61.062  1.00  0.00     0.002 C 
HETATM   28  C   UNL     1       8.898  30.192  62.147  1.00  0.00     0.011 C 
HETATM   29  C   UNL     1       9.919  32.249  61.173  1.00  0.00     0.011 C 
ENDBRANCH  25  27
ENDBRANCH  21  25
ENDBRANCH   1  20
TORSDOF 6
ENDMDL
MODEL 3
REMARK VINA RESULT:      -8.8      4.513     11.257
REMARK  6 active torsions:
REMARK  status: ('A' for Active; 'I' for Inactive)
REMARK    1  A    between atoms: C_2  and  N_3 
REMARK    2  A    between atoms: C_2  and  C_25 
REMARK    3  A    between atoms: C_7  and  N_8 
REMARK       I    between atoms: N_8  and  C_9 
REMARK       I    between atoms: C_9  and  N_10 
REMARK    4  A    between atoms: N_10  and  C_11 
REMARK    5  A    between atoms: C_11  and  C_12 
REMARK    6  A    between atoms: C_20  and  O_21 
ROOT
HETATM    1  N   UNL     1       8.070  29.015  58.262  1.00  0.00    -0.293 N 
HETATM    2  C   UNL     1       7.103  28.882  57.235  1.00  0.00     0.322 C 
HETATM    3  N   UNL     1       6.446  27.693  57.248  1.00  0.00    -0.337 N 
HETATM    4  O   UNL     1       6.841  29.770  56.445  1.00  0.00    -0.247 OA
HETATM    5  H   UNL     1       8.086  28.316  58.987  1.00  0.00     0.172 HD
HETATM    6  H   UNL     1       5.810  27.638  56.461  1.00  0.00     0.164 HD
ENDROOT
BRANCH   3   7
HETATM    7  C   UNL     1       6.966  26.431  57.717  1.00  0.00     0.181 C 
BRANCH   7   8
HETATM    8  C   UNL     1       7.153  25.498  56.577  1.00  0.00     0.028 A 
HETATM    9  N   UNL     1       7.292  25.921  55.274  1.00  0.00    -0.357 N 
HETATM   10  H   UNL     1       7.276  26.885  54.969  1.00  0.00     0.166 HD
HETATM   11  C   UNL     1       7.463  24.846  54.435  1.00  0.00     0.043 A 
HETATM   12  C   UNL     1       7.478  23.701  55.228  1.00  0.00    -0.005 A 
HETATM   13  C   UNL     1       7.624  24.799  53.047  1.00  0.00     0.033 A 
HETATM   14  C   UNL     1       7.280  24.122  56.571  1.00  0.00     0.040 A 
HETATM   15  C   UNL     1       7.681  22.453  54.612  1.00  0.00     0.050 A 
HETATM   16  C   UNL     1       7.877  22.383  53.226  1.00  0.00     0.069 A 
HETATM   17  C   UNL     1       7.830  23.545  52.457  1.00  0.00     0.039 A 
BRANCH  16  18
HETATM   18  O   UNL     1       8.091  21.119  52.748  1.00  0.00    -0.356 OA
HETATM   19  C   UNL     1       8.678  20.188  53.650  1.00  0.00     0.210 C 
ENDBRANCH  16  18
ENDBRANCH   7   8
ENDBRANCH   3   7
BRANCH   1  20
HETATM   20  C   UNL     1       8.945  30.091  58.369  1.00  0.00     0.129 A 
HETATM   21  N   UNL     1       8.925  31.082  59.331  1.00  0.00    -0.249 N 
HETATM   22  N   UNL     1       9.923  31.981  59.185  1.00  0.00    -0.183 NA
HETATM   23  C   UNL     1      10.585  31.557  58.110  1.00  0.00     0.142 A 
HETATM   24  C   UNL     1      10.024  30.390  57.565  1.00  0.00     0.071 A 
BRANCH  21  25
HETATM   25  C   UNL     1       7.977  31.288  60.430  1.00  0.00     0.111 C 
HETATM   26  C   UNL     1       8.732  31.419  61.758  1.00  0.00     0.035 C 
BRANCH  25  27
HETATM   27  C   UNL     1       6.974  32.443  60.158  1.00  0.00     0.002 C 
HETATM   28  C   UNL     1       5.942  32.060  59.089  1.00  0.00     0.011 C 
HETATM   29  C   UNL     1       6.232  32.866  61.431  1.00  0.00     0.011 C 
ENDBRANCH  25  27
ENDBRANCH  21  25
ENDBRANCH   1  20
TORSDOF 6
ENDMDL
MODEL 4
REMARK VINA RESULT:      -8.7      5.796     11.331
REMARK  6 active torsions:
REMARK  status: ('A' for Active; 'I' for Inactive)
REMARK    1  A    between atoms: C_2  and  N_3 
REMARK    2  A    between atoms: C_2  and  C_25 
REMARK    3  A    between atoms: C_7  and  N_8 
REMARK       I    between atoms: N_8  and  C_9 
REMARK       I    between atoms: C_9  and  N_10 
REMARK    4  A    between atoms: N_10  and  C_11 
REMARK    5  A    between atoms: C_11  and  C_12 
REMARK    6  A    between atoms: C_20  and  O_21 
ROOT
HETATM    1  N   UNL     1       4.829  29.337  57.636  1.00  0.00    -0.293 N 
HETATM    2  C   UNL     1       4.463  28.864  56.351  1.00  0.00     0.322 C 
HETATM    3  N   UNL     1       4.327  27.514  56.279  1.00  0.00    -0.337 N 
HETATM    4  O   UNL     1       4.236  29.600  55.409  1.00  0.00    -0.247 OA
HETATM    5  H   UNL     1       4.806  28.683  58.402  1.00  0.00     0.172 HD
HETATM    6  H   UNL     1       4.119  27.235  55.328  1.00  0.00     0.164 HD
ENDROOT
BRANCH   3   7
HETATM    7  C   UNL     1       5.034  26.538  57.073  1.00  0.00     0.181 C 
BRANCH   7   8
HETATM    8  C   UNL     1       5.771  25.597  56.193  1.00  0.00     0.028 A 
HETATM    9  N   UNL     1       5.824  25.733  54.824  1.00  0.00    -0.357 N 
HETATM   10  H   UNL     1       5.373  26.467  54.292  1.00  0.00     0.166 HD
HETATM   11  C   UNL     1       6.585  24.731  54.269  1.00  0.00     0.043 A 
HETATM   12  C   UNL     1       7.070  23.953  55.317  1.00  0.00    -0.005 A 
HETATM   13  C   UNL     1       6.894  24.466  52.932  1.00  0.00     0.033 A 
HETATM   14  C   UNL     1       6.551  24.504  56.520  1.00  0.00     0.040 A 
HETATM   15  C   UNL     1       7.920  22.872  55.022  1.00  0.00     0.050 A 
HETATM   16  C   UNL     1       8.270  22.605  53.691  1.00  0.00     0.069 A 
HETATM   17  C   UNL     1       7.746  23.387  52.662  1.00  0.00     0.039 A 
BRANCH  16  18
HETATM   18  O   UNL     1       9.122  21.545  53.532  1.00  0.00    -0.356 OA
HETATM   19  C   UNL     1       8.565  20.358  52.977  1.00  0.00     0.210 C 
ENDBRANCH  16  18
ENDBRANCH   7   8
ENDBRANCH   3   7
BRANCH   1  20
HETATM   20  C   UNL     1       5.143  30.663  57.915  1.00  0.00     0.129 A 
HETATM   21  N   UNL     1       6.369  31.157  58.317  1.00  0.00    -0.249 N 
HETATM   22  N   UNL     1       6.368  32.496  58.488  1.00  0.00    -0.183 NA
HETATM   23  C   UNL     1       5.121  32.859  58.193  1.00  0.00     0.142 A 
HETATM   24  C   UNL     1       4.319  31.765  57.830  1.00  0.00     0.071 A 
BRANCH  21  25
HETATM   25  C   UNL     1       7.612  30.434  58.600  1.00  0.00     0.111 C 
HETATM   26  C   UNL     1       8.175  29.831  57.308  1.00  0.00     0.035 C 
BRANCH  25  27
HETATM   27  C   UNL     1       8.639  31.281  59.400  1.00  0.00     0.002 C 
HETATM   28  C   UNL     1       9.015  30.614  60.730  1.00  0.00     0.011 C 
HETATM   29  C   UNL     1       9.920  31.535  58.596  1.00  0.00     0.011 C 
ENDBRANCH  25  27
ENDBRANCH  21  25
ENDBRANCH   1  20
TORSDOF 6
ENDMDL
MODEL 5
REMARK VINA RESULT:      -8.7      2.850      5.244
REMARK  6 active torsions:
REMARK  status: ('A' for Active; 'I' for Inactive)
REMARK    1  A    between atoms: C_2  and  N_3 
REMARK    2  A    between atoms: C_2  and  C_25 
REMARK    3  A    between atoms: C_7  and  N_8 
REMARK       I    between atoms: N_8  and  C_9 
REMARK       I    between atoms: C_9  and  N_10 
REMARK    4  A    between atoms: N_10  and  C_11 
REMARK    5  A    between atoms: C_11  and  C_12 
REMARK    6  A    between atoms: C_20  and  O_21 
ROOT
HETATM    1  N   UNL     1       8.018  27.087  56.810  1.00  0.00    -0.293 N 
HETATM    2  C   UNL     1       6.878  27.782  57.283  1.00  0.00     0.322 C 
HETATM    3  N   UNL     1       7.126  29.069  57.644  1.00  0.00    -0.337 N 
HETATM    4  O   UNL     1       5.763  27.293  57.315  1.00  0.00    -0.247 OA
HETATM    5  H   UNL     1       8.854  27.621  56.633  1.00  0.00     0.172 HD
HETATM    6  H   UNL     1       6.287  29.492  58.022  1.00  0.00     0.164 HD
ENDROOT
BRANCH   3   7
HETATM    7  C   UNL     1       8.371  29.591  58.152  1.00  0.00     0.181 C 
BRANCH   7   8
HETATM    8  C   UNL     1       8.124  30.435  59.348  1.00  0.00     0.028 A 
HETATM    9  N   UNL     1       6.982  31.185  59.514  1.00  0.00    -0.357 N 
HETATM   10  H   UNL     1       6.218  31.240  58.854  1.00  0.00     0.166 HD
HETATM   11  C   UNL     1       7.016  31.854  60.715  1.00  0.00     0.043 A 
HETATM   12  C   UNL     1       8.196  31.488  61.358  1.00  0.00    -0.005 A 
HETATM   13  C   UNL     1       6.092  32.734  61.286  1.00  0.00     0.033 A 
HETATM   14  C   UNL     1       8.885  30.599  60.489  1.00  0.00     0.040 A 
HETATM   15  C   UNL     1       8.459  32.007  62.638  1.00  0.00     0.050 A 
HETATM   16  C   UNL     1       7.533  32.866  63.246  1.00  0.00     0.069 A 
HETATM   17  C   UNL     1       6.373  33.234  62.565  1.00  0.00     0.039 A 
BRANCH  16  18
HETATM   18  O   UNL     1       7.887  33.283  64.501  1.00  0.00    -0.356 OA
HETATM   19  C   UNL     1       6.845  33.815  65.312  1.00  0.00     0.210 C 
ENDBRANCH  16  18
ENDBRANCH   7   8
ENDBRANCH   3   7
BRANCH   1  20
HETATM   20  C   UNL     1       8.029  25.731  56.503  1.00  0.00     0.129 A 
HETATM   21  N   UNL     1       7.652  25.149  55.307  1.00  0.00    -0.249 N 
HETATM   22  N   UNL     1       7.796  23.807  55.305  1.00  0.00    -0.183 NA
HETATM   23  C   UNL     1       8.268  23.530  56.519  1.00  0.00     0.142 A 
HETATM   24  C   UNL     1       8.432  24.684  57.302  1.00  0.00     0.071 A 
BRANCH  21  25
HETATM   25  C   UNL     1       7.109  25.780  54.100  1.00  0.00     0.111 C 
HETATM   26  C   UNL     1       7.762  25.175  52.853  1.00  0.00     0.035 C 
BRANCH  25  27
HETATM   27  C   UNL     1       5.556  25.782  54.062  1.00  0.00     0.002 C 
HETATM   28  C   UNL     1       4.992  27.201  53.909  1.00  0.00     0.011 C 
HETATM   29  C   UNL     1       5.012  24.909  52.924  1.00  0.00     0.011 C 
ENDBRANCH  25  27
ENDBRANCH  21  25
ENDBRANCH   1  20
TORSDOF 6
ENDMDL
MODEL 6
REMARK VINA RESULT:      -8.6      9.285     12.902
REMARK  6 active torsions:
REMARK  status: ('A' for Active; 'I' for Inactive)
REMARK    1  A    between atoms: C_2  and  N_3 
REMARK    2  A    between atoms: C_2  and  C_25 
REMARK    3  A    between atoms: C_7  and  N_8 
REMARK       I    between atoms: N_8  and  C_9 
REMARK       I    between atoms: C_9  and  N_10 
REMARK    4  A    between atoms: N_10  and  C_11 
REMARK    5  A    between atoms: C_11  and  C_12 
REMARK    6  A    between atoms: C_20  and  O_21 
ROOT
HETATM    1  N   UNL     1       6.785  26.002  55.311  1.00  0.00    -0.293 N 
HETATM    2  C   UNL     1       5.493  26.386  55.745  1.00  0.00     0.322 C 
HETATM    3  N   UNL     1       4.900  27.319  54.953  1.00  0.00    -0.337 N 
HETATM    4  O   UNL     1       4.936  25.890  56.707  1.00  0.00    -0.247 OA
HETATM    5  H   UNL     1       7.089  26.316  54.402  1.00  0.00     0.172 HD
HETATM    6  H   UNL     1       4.006  27.590  55.344  1.00  0.00     0.164 HD
ENDROOT
BRANCH   3   7
HETATM    7  C   UNL     1       5.570  28.330  54.171  1.00  0.00     0.181 C 
BRANCH   7   8
HETATM    8  C   UNL     1       5.349  28.089  52.723  1.00  0.00     0.028 A 
HETATM    9  N   UNL     1       5.678  29.005  51.750  1.00  0.00    -0.357 N 
HETATM   10  H   UNL     1       6.089  29.914  51.919  1.00  0.00     0.166 HD
HETATM   11  C   UNL     1       5.377  28.512  50.502  1.00  0.00     0.043 A 
HETATM   12  C   UNL     1       4.878  27.224  50.677  1.00  0.00    -0.005 A 
HETATM   13  C   UNL     1       5.522  29.096  49.241  1.00  0.00     0.033 A 
HETATM   14  C   UNL     1       4.863  26.969  52.075  1.00  0.00     0.040 A 
HETATM   15  C   UNL     1       4.527  26.473  49.541  1.00  0.00     0.050 A 
HETATM   16  C   UNL     1       4.694  27.024  48.263  1.00  0.00     0.069 A 
HETATM   17  C   UNL     1       5.171  28.327  48.123  1.00  0.00     0.039 A 
BRANCH  16  18
HETATM   18  O   UNL     1       4.343  26.190  47.236  1.00  0.00    -0.356 OA
HETATM   19  C   UNL     1       2.949  26.014  47.008  1.00  0.00     0.210 C 
ENDBRANCH  16  18
ENDBRANCH   7   8
ENDBRANCH   3   7
BRANCH   1  20
HETATM   20  C   UNL     1       7.626  25.158  56.029  1.00  0.00     0.129 A 
HETATM   21  N   UNL     1       8.007  23.877  55.680  1.00  0.00    -0.249 N 
HETATM   22  N   UNL     1       8.854  23.317  56.571  1.00  0.00    -0.183 NA
HETATM   23  C   UNL     1       9.010  24.256  57.503  1.00  0.00     0.142 A 
HETATM   24  C   UNL     1       8.274  25.418  57.217  1.00  0.00     0.071 A 
BRANCH  21  25
HETATM   25  C   UNL     1       7.601  23.070  54.526  1.00  0.00     0.111 C 
HETATM   26  C   UNL     1       7.906  23.822  53.226  1.00  0.00     0.035 C 
BRANCH  25  27
HETATM   27  C   UNL     1       8.166  21.624  54.566  1.00  0.00     0.002 C 
HETATM   28  C   UNL     1       7.447  20.760  55.610  1.00  0.00     0.011 C 
HETATM   29  C   UNL     1       8.065  20.933  53.200  1.00  0.00     0.011 C 
ENDBRANCH  25  27
ENDBRANCH  21  25
ENDBRANCH   1  20
TORSDOF 6
ENDMDL
MODEL 7
REMARK VINA RESULT:      -8.6      1.488      2.086
REMARK  6 active torsions:
REMARK  status: ('A' for Active; 'I' for Inactive)
REMARK    1  A    between atoms: C_2  and  N_3 
REMARK    2  A    between atoms: C_2  and  C_25 
REMARK    3  A    between atoms: C_7  and  N_8 
REMARK       I    between atoms: N_8  and  C_9 
REMARK       I    between atoms: C_9  and  N_10 
REMARK    4  A    between atoms: N_10  and  C_11 
REMARK    5  A    between atoms: C_11  and  C_12 
REMARK    6  A    between atoms: C_20  and  O_21 
ROOT
HETATM    1  N   UNL     1       9.442  30.137  58.825  1.00  0.00    -0.293 N 
HETATM    2  C   UNL     1       9.600  31.458  59.312  1.00  0.00     0.322 C 
HETATM    3  N   UNL     1       9.434  31.574  60.656  1.00  0.00    -0.337 N 
HETATM    4  O   UNL     1       9.910  32.398  58.604  1.00  0.00    -0.247 OA
HETATM    5  H   UNL     1       9.379  29.391  59.500  1.00  0.00     0.172 HD
HETATM    6  H   UNL     1       9.506  32.545  60.933  1.00  0.00     0.164 HD
ENDROOT
BRANCH   3   7
HETATM    7  C   UNL     1       8.594  30.749  61.490  1.00  0.00     0.181 C 
BRANCH   7   8
HETATM    8  C   UNL     1       7.825  31.593  62.439  1.00  0.00     0.028 A 
HETATM    9  N   UNL     1       6.449  31.642  62.456  1.00  0.00    -0.357 N 
HETATM   10  H   UNL     1       5.839  31.125  61.836  1.00  0.00     0.166 HD
HETATM   11  C   UNL     1       6.010  32.492  63.443  1.00  0.00     0.043 A 
HETATM   12  C   UNL     1       7.137  32.971  64.107  1.00  0.00    -0.005 A 
HETATM   13  C   UNL     1       4.712  32.859  63.808  1.00  0.00     0.033 A 
HETATM   14  C   UNL     1       8.271  32.401  63.467  1.00  0.00     0.040 A 
HETATM   15  C   UNL     1       6.962  33.839  65.199  1.00  0.00     0.050 A 
HETATM   16  C   UNL     1       5.668  34.196  65.605  1.00  0.00     0.069 A 
HETATM   17  C   UNL     1       4.562  33.721  64.902  1.00  0.00     0.039 A 
BRANCH  16  18
HETATM   18  O   UNL     1       5.626  35.024  66.695  1.00  0.00    -0.356 OA
HETATM   19  C   UNL     1       5.998  34.452  67.944  1.00  0.00     0.210 C 
ENDBRANCH  16  18
ENDBRANCH   7   8
ENDBRANCH   3   7
BRANCH   1  20
HETATM   20  C   UNL     1       9.444  29.802  57.475  1.00  0.00     0.129 A 
HETATM   21  N   UNL     1       8.404  29.241  56.759  1.00  0.00    -0.249 N 
HETATM   22  N   UNL     1       8.702  29.052  55.456  1.00  0.00    -0.183 NA
HETATM   23  C   UNL     1       9.952  29.496  55.342  1.00  0.00     0.142 A 
HETATM   24  C   UNL     1      10.461  29.973  56.561  1.00  0.00     0.071 A 
BRANCH  21  25
HETATM   25  C   UNL     1       7.081  28.815  57.226  1.00  0.00     0.111 C 
HETATM   26  C   UNL     1       6.041  29.898  56.917  1.00  0.00     0.035 C 
BRANCH  25  27
HETATM   27  C   UNL     1       6.686  27.399  56.722  1.00  0.00     0.002 C 
HETATM   28  C   UNL     1       7.373  26.294  57.535  1.00  0.00     0.011 C 
HETATM   29  C   UNL     1       5.170  27.178  56.772  1.00  0.00     0.011 C 
ENDBRANCH  25  27
ENDBRANCH  21  25
ENDBRANCH   1  20
TORSDOF 6
ENDMDL
MODEL 8
REMARK VINA RESULT:      -8.2      5.519      8.403
REMARK  6 active torsions:
REMARK  status: ('A' for Active; 'I' for Inactive)
REMARK    1  A    between atoms: C_2  and  N_3 
REMARK    2  A    between atoms: C_2  and  C_25 
REMARK    3  A    between atoms: C_7  and  N_8 
REMARK       I    between atoms: N_8  and  C_9 
REMARK       I    between atoms: C_9  and  N_10 
REMARK    4  A    between atoms: N_10  and  C_11 
REMARK    5  A    between atoms: C_11  and  C_12 
REMARK    6  A    between atoms: C_20  and  O_21 
ROOT
HETATM    1  N   UNL     1       6.902  25.924  55.367  1.00  0.00    -0.293 N 
HETATM    2  C   UNL     1       5.534  26.147  55.662  1.00  0.00     0.322 C 
HETATM    3  N   UNL     1       4.969  27.145  54.933  1.00  0.00    -0.337 N 
HETATM    4  O   UNL     1       4.903  25.474  56.456  1.00  0.00    -0.247 OA
HETATM    5  H   UNL     1       7.292  26.391  54.564  1.00  0.00     0.172 HD
HETATM    6  H   UNL     1       4.010  27.291  55.227  1.00  0.00     0.164 HD
ENDROOT
BRANCH   3   7
HETATM    7  C   UNL     1       5.642  28.307  54.403  1.00  0.00     0.181 C 
BRANCH   7   8
HETATM    8  C   UNL     1       6.602  28.843  55.401  1.00  0.00     0.028 A 
HETATM    9  N   UNL     1       7.962  28.877  55.191  1.00  0.00    -0.357 N 
HETATM   10  H   UNL     1       8.433  28.544  54.360  1.00  0.00     0.166 HD
HETATM   11  C   UNL     1       8.602  29.435  56.273  1.00  0.00     0.043 A 
HETATM   12  C   UNL     1       7.619  29.810  57.185  1.00  0.00    -0.005 A 
HETATM   13  C   UNL     1       9.963  29.653  56.504  1.00  0.00     0.033 A 
HETATM   14  C   UNL     1       6.367  29.431  56.629  1.00  0.00     0.040 A 
HETATM   15  C   UNL     1       8.008  30.450  58.376  1.00  0.00     0.050 A 
HETATM   16  C   UNL     1       9.365  30.708  58.617  1.00  0.00     0.069 A 
HETATM   17  C   UNL     1      10.327  30.296  57.694  1.00  0.00     0.039 A 
BRANCH  16  18
HETATM   18  O   UNL     1       9.617  31.358  59.794  1.00  0.00    -0.356 OA
HETATM   19  C   UNL     1       9.230  30.686  60.988  1.00  0.00     0.210 C 
ENDBRANCH  16  18
ENDBRANCH   7   8
ENDBRANCH   3   7
BRANCH   1  20
HETATM   20  C   UNL     1       7.714  25.042  56.072  1.00  0.00     0.129 A 
HETATM   21  N   UNL     1       8.050  23.753  55.705  1.00  0.00    -0.249 N 
HETATM   22  N   UNL     1       8.878  23.153  56.587  1.00  0.00    -0.183 NA
HETATM   23  C   UNL     1       9.067  24.072  57.531  1.00  0.00     0.142 A 
HETATM   24  C   UNL     1       8.371  25.262  57.262  1.00  0.00     0.071 A 
BRANCH  21  25
HETATM   25  C   UNL     1       7.615  22.977  54.540  1.00  0.00     0.111 C 
HETATM   26  C   UNL     1       7.904  23.755  53.252  1.00  0.00     0.035 C 
BRANCH  25  27
HETATM   27  C   UNL     1       8.167  21.525  54.537  1.00  0.00     0.002 C 
HETATM   28  C   UNL     1       7.480  20.653  55.597  1.00  0.00     0.011 C 
HETATM   29  C   UNL     1       8.005  20.855  53.167  1.00  0.00     0.011 C 
ENDBRANCH  25  27
ENDBRANCH  21  25
ENDBRANCH   1  20
TORSDOF 6
ENDMDL
MODEL 9
REMARK VINA RESULT:      -8.2     11.264     14.223
REMARK  6 active torsions:
REMARK  status: ('A' for Active; 'I' for Inactive)
REMARK    1  A    between atoms: C_2  and  N_3 
REMARK    2  A    between atoms: C_2  and  C_25 
REMARK    3  A    between atoms: C_7  and  N_8 
REMARK       I    between atoms: N_8  and  C_9 
REMARK       I    between atoms: C_9  and  N_10 
REMARK    4  A    between atoms: N_10  and  C_11 
REMARK    5  A    between atoms: C_11  and  C_12 
REMARK    6  A    between atoms: C_20  and  O_21 
ROOT
HETATM    1  N   UNL     1       3.250  27.039  49.150  1.00  0.00    -0.293 N 
HETATM    2  C   UNL     1       4.528  26.629  48.695  1.00  0.00     0.322 C 
HETATM    3  N   UNL     1       5.385  26.288  49.693  1.00  0.00    -0.337 N 
HETATM    4  O   UNL     1       4.819  26.536  47.517  1.00  0.00    -0.247 OA
HETATM    5  H   UNL     1       3.032  26.900  50.124  1.00  0.00     0.172 HD
HETATM    6  H   UNL     1       6.293  26.057  49.307  1.00  0.00     0.164 HD
ENDROOT
BRANCH   3   7
HETATM    7  C   UNL     1       5.395  26.820  51.034  1.00  0.00     0.181 C 
BRANCH   7   8
HETATM    8  C   UNL     1       6.068  25.872  51.957  1.00  0.00     0.028 A 
HETATM    9  N   UNL     1       5.746  25.767  53.292  1.00  0.00    -0.357 N 
HETATM   10  H   UNL     1       5.040  26.315  53.767  1.00  0.00     0.166 HD
HETATM   11  C   UNL     1       6.517  24.804  53.899  1.00  0.00     0.043 A 
HETATM   12  C   UNL     1       7.328  24.244  52.914  1.00  0.00    -0.005 A 
HETATM   13  C   UNL     1       6.546  24.375  55.229  1.00  0.00     0.033 A 
HETATM   14  C   UNL     1       7.039  24.924  51.700  1.00  0.00     0.040 A 
HETATM   15  C   UNL     1       8.194  23.194  53.267  1.00  0.00     0.050 A 
HETATM   16  C   UNL     1       8.219  22.724  54.588  1.00  0.00     0.069 A 
HETATM   17  C   UNL     1       7.413  23.324  55.555  1.00  0.00     0.039 A 
BRANCH  16  18
HETATM   18  O   UNL     1       9.082  21.684  54.803  1.00  0.00    -0.356 OA
HETATM   19  C   UNL     1       8.708  20.424  54.257  1.00  0.00     0.210 C 
ENDBRANCH  16  18
ENDBRANCH   7   8
ENDBRANCH   3   7
BRANCH   1  20
HETATM   20  C   UNL     1       2.257  27.548  48.321  1.00  0.00     0.129 A 
HETATM   21  N   UNL     1       2.068  28.871  47.971  1.00  0.00    -0.249 N 
HETATM   22  N   UNL     1       1.029  29.051  47.127  1.00  0.00    -0.183 NA
HETATM   23  C   UNL     1       0.547  27.824  46.941  1.00  0.00     0.142 A 
HETATM   24  C   UNL     1       1.270  26.854  47.655  1.00  0.00     0.071 A 
BRANCH  21  25
HETATM   25  C   UNL     1       2.807  30.060  48.407  1.00  0.00     0.111 C 
HETATM   26  C   UNL     1       2.691  30.223  49.926  1.00  0.00     0.035 C 
BRANCH  25  27
HETATM   27  C   UNL     1       4.267  30.096  47.878  1.00  0.00     0.002 C 
HETATM   28  C   UNL     1       4.485  31.244  46.884  1.00  0.00     0.011 C 
HETATM   29  C   UNL     1       5.284  30.230  49.018  1.00  0.00     0.011 C 
ENDBRANCH  25  27
ENDBRANCH  21  25
ENDBRANCH   1  20
TORSDOF 6
ENDMDL
MODEL 10
REMARK VINA RESULT:      -8.0     10.374     12.959
REMARK  6 active torsions:
REMARK  status: ('A' for Active; 'I' for Inactive)
REMARK    1  A    between atoms: C_2  and  N_3 
REMARK    2  A    between atoms: C_2  and  C_25 
REMARK    3  A    between atoms: C_7  and  N_8 
REMARK       I    between atoms: N_8  and  C_9 
REMARK       I    between atoms: C_9  and  N_10 
REMARK    4  A    between atoms: N_10  and  C_11 
REMARK    5  A    between atoms: C_11  and  C_12 
REMARK    6  A    between atoms: C_20  and  O_21 
ROOT
HETATM    1  N   UNL     1       5.435  27.784  51.458  1.00  0.00    -0.293 N 
HETATM    2  C   UNL     1       4.917  27.850  52.774  1.00  0.00     0.322 C 
HETATM    3  N   UNL     1       5.841  28.180  53.715  1.00  0.00    -0.337 N 
HETATM    4  O   UNL     1       3.741  27.681  53.038  1.00  0.00    -0.247 OA
HETATM    5  H   UNL     1       6.370  28.127  51.303  1.00  0.00     0.172 HD
HETATM    6  H   UNL     1       5.422  28.158  54.637  1.00  0.00     0.164 HD
ENDROOT
BRANCH   3   7
HETATM    7  C   UNL     1       7.254  27.893  53.665  1.00  0.00     0.181 C 
BRANCH   7   8
HETATM    8  C   UNL     1       7.497  26.458  53.961  1.00  0.00     0.028 A 
HETATM    9  N   UNL     1       7.389  25.923  55.225  1.00  0.00    -0.357 N 
HETATM   10  H   UNL     1       7.145  26.440  56.059  1.00  0.00     0.166 HD
HETATM   11  C   UNL     1       7.655  24.574  55.200  1.00  0.00     0.043 A 
HETATM   12  C   UNL     1       7.899  24.225  53.874  1.00  0.00    -0.005 A 
HETATM   13  C   UNL     1       7.681  23.639  56.239  1.00  0.00     0.033 A 
HETATM   14  C   UNL     1       7.799  25.416  53.105  1.00  0.00     0.040 A 
HETATM   15  C   UNL     1       8.160  22.879  53.565  1.00  0.00     0.050 A 
HETATM   16  C   UNL     1       8.160  21.916  54.585  1.00  0.00     0.069 A 
HETATM   17  C   UNL     1       7.939  22.303  55.906  1.00  0.00     0.039 A 
BRANCH  16  18
HETATM   18  O   UNL     1       8.401  20.639  54.157  1.00  0.00    -0.356 OA
HETATM   19  C   UNL     1       8.285  20.403  52.758  1.00  0.00     0.210 C 
ENDBRANCH  16  18
ENDBRANCH   7   8
ENDBRANCH   3   7
BRANCH   1  20
HETATM   20  C   UNL     1       4.705  27.348  50.357  1.00  0.00     0.129 A 
HETATM   21  N   UNL     1       3.902  28.118  49.538  1.00  0.00    -0.249 N 
HETATM   22  N   UNL     1       3.341  27.411  48.534  1.00  0.00    -0.183 NA
HETATM   23  C   UNL     1       3.791  26.171  48.720  1.00  0.00     0.142 A 
HETATM   24  C   UNL     1       4.641  26.075  49.834  1.00  0.00     0.071 A 
BRANCH  21  25
HETATM   25  C   UNL     1       3.573  29.543  49.636  1.00  0.00     0.111 C 
HETATM   26  C   UNL     1       3.298  30.116  48.242  1.00  0.00     0.035 C 
BRANCH  25  27
HETATM   27  C   UNL     1       2.453  29.837  50.672  1.00  0.00     0.002 C 
HETATM   28  C   UNL     1       2.892  30.886  51.703  1.00  0.00     0.011 C 
HETATM   29  C   UNL     1       1.163  30.319  49.996  1.00  0.00     0.011 C 
ENDBRANCH  25  27
ENDBRANCH  21  25
ENDBRANCH   1  20
TORSDOF 6
ENDMDL
