MODEL 1
REMARK VINA RESULT:      -9.6      0.000      0.000
REMARK  5 active torsions:
REMARK  status: ('A' for Active; 'I' for Inactive)
REMARK    1  A    between atoms: C_2  and  C_3 
REMARK    2  A    between atoms: C_7  and  N_8 
REMARK    3  A    between atoms: C_13  and  N_14 
REMARK       I    between atoms: N_14  and  C_15 
REMARK    4  A    between atoms: C_15  and  C_16 
REMARK       I    between atoms: C_16  and  N_17 
REMARK    5  A    between atoms: N_17  and  C_18 
ROOT
HETATM    1  N   UNL     1       7.524  27.350  55.971  1.00  0.00    -0.045 N 
HETATM    2  N   UNL     1       7.830  27.606  57.275  1.00  0.00    -0.156 NA
HETATM    3  C   UNL     1       7.719  28.934  57.386  1.00  0.00     0.055 A 
HETATM    4  C   UNL     1       7.987  29.613  58.679  1.00  0.00     0.072 C 
HETATM    5  C   UNL     1       7.334  29.533  56.166  1.00  0.00     0.079 A 
HETATM    6  C   UNL     1       7.215  28.501  55.263  1.00  0.00     0.152 A 
ENDROOT
BRANCH   6   7
HETATM    7  N   UNL     1       6.872  28.560  53.914  1.00  0.00    -0.303 N 
HETATM    8  C   UNL     1       5.535  28.440  53.420  1.00  0.00     0.315 C 
HETATM    9  O   UNL     1       4.573  28.212  54.136  1.00  0.00    -0.262 OA
HETATM   10  H   UNL     1       7.624  28.698  53.228  1.00  0.00     0.171 HD
BRANCH   8  11
HETATM   11  C   UNL     1       5.371  28.620  51.900  1.00  0.00     0.310 C 
HETATM   12  N   UNL     1       4.504  27.715  51.321  1.00  0.00    -0.348 N 
HETATM   13  H   UNL     1       4.134  26.980  51.919  1.00  0.00     0.163 HD
HETATM   14  O   UNL     1       5.983  29.518  51.341  1.00  0.00    -0.262 OA
BRANCH  12  15
HETATM   15  C   UNL     1       4.182  27.680  49.899  1.00  0.00     0.085 C 
HETATM   16  C   UNL     1       2.991  28.613  49.633  1.00  0.00     0.034 C 
HETATM   17  C   UNL     1       2.482  28.588  48.177  1.00  0.00    -0.045 C 
HETATM   18  C   UNL     1       3.491  29.275  47.238  1.00  0.00     0.015 C 
HETATM   19  C   UNL     1       1.156  29.370  48.101  1.00  0.00     0.015 C 
HETATM   20  C   UNL     1       2.227  27.129  47.736  1.00  0.00     0.013 C 
HETATM   21  C   UNL     1       3.424  26.197  47.978  1.00  0.00    -0.016 C 
HETATM   22  C   UNL     1       3.073  24.765  47.574  1.00  0.00     0.010 C 
HETATM   23  C   UNL     1       3.873  26.250  49.445  1.00  0.00     0.029 C 
ENDBRANCH  12  15
ENDBRANCH   8  11
ENDBRANCH   6   7
BRANCH   1  24
HETATM   24  C   UNL     1       7.536  26.033  55.491  1.00  0.00     0.732 A 
HETATM   25  N   UNL     1       7.931  25.151  56.450  1.00  0.00    -0.152 N 
HETATM   26  C   UNL     1       7.994  23.818  56.204  1.00  0.00     0.268 A 
HETATM   27  H   UNL     1       8.171  25.483  57.379  1.00  0.00     0.188 HD
HETATM   28  C   UNL     1       7.621  23.407  54.820  1.00  0.00     0.035 A 
HETATM   29  O   UNL     1       8.330  23.017  57.067  1.00  0.00    -0.267 OA
HETATM   30  C   UNL     1       7.257  24.381  53.954  1.00  0.00     0.061 A 
HETATM   31  N   UNL     1       7.202  25.727  54.280  1.00  0.00    -0.067 NA
HETATM   32  C   UNL     1       6.842  24.097  52.532  1.00  0.00     0.072 C 
BRANCH  28  33
HETATM   33  C   UNL     1       7.735  21.933  54.529  1.00  0.00     0.042 C 
HETATM   34  C   UNL     1       9.051  21.588  53.845  1.00  0.00     0.010 C 
ENDBRANCH  28  33
ENDBRANCH   1  24
TORSDOF 5
ENDMDL
MODEL 2
REMARK VINA RESULT:      -9.3      1.686      4.349
REMARK  5 active torsions:
REMARK  status: ('A' for Active; 'I' for Inactive)
REMARK    1  A    between atoms: C_2  and  C_3 
REMARK    2  A    between atoms: C_7  and  N_8 
REMARK    3  A    between atoms: C_13  and  N_14 
REMARK       I    between atoms: N_14  and  C_15 
REMARK    4  A    between atoms: C_15  and  C_16 
REMARK       I    between atoms: C_16  and  N_17 
REMARK    5  A    between atoms: N_17  and  C_18 
ROOT
HETATM    1  N   UNL     1       7.603  24.057  54.332  1.00  0.00    -0.045 N 
HETATM    2  N   UNL     1       8.017  22.893  54.910  1.00  0.00    -0.156 NA
HETATM    3  C   UNL     1       8.011  22.007  53.908  1.00  0.00     0.055 A 
HETATM    4  C   UNL     1       8.400  20.594  54.143  1.00  0.00     0.072 C 
HETATM    5  C   UNL     1       7.605  22.595  52.689  1.00  0.00     0.079 A 
HETATM    6  C   UNL     1       7.342  23.915  52.978  1.00  0.00     0.152 A 
ENDROOT
BRANCH   6   7
HETATM    7  N   UNL     1       6.897  24.921  52.124  1.00  0.00    -0.303 N 
HETATM    8  C   UNL     1       5.519  25.246  51.915  1.00  0.00     0.315 C 
HETATM    9  O   UNL     1       4.600  24.624  52.424  1.00  0.00    -0.262 OA
HETATM   10  H   UNL     1       7.598  25.466  51.610  1.00  0.00     0.171 HD
BRANCH   8  11
HETATM   11  C   UNL     1       5.254  26.450  50.994  1.00  0.00     0.310 C 
HETATM   12  N   UNL     1       4.174  26.281  50.152  1.00  0.00    -0.348 N 
HETATM   13  H   UNL     1       3.721  25.369  50.156  1.00  0.00     0.163 HD
HETATM   14  O   UNL     1       5.978  27.431  51.079  1.00  0.00    -0.262 OA
BRANCH  12  15
HETATM   15  C   UNL     1       3.720  27.276  49.188  1.00  0.00     0.085 C 
HETATM   16  C   UNL     1       3.239  28.523  49.945  1.00  0.00     0.034 C 
HETATM   17  C   UNL     1       2.633  29.617  49.041  1.00  0.00    -0.045 C 
HETATM   18  C   UNL     1       3.732  30.300  48.206  1.00  0.00     0.015 C 
HETATM   19  C   UNL     1       1.979  30.691  49.931  1.00  0.00     0.015 C 
HETATM   20  C   UNL     1       1.551  29.001  48.125  1.00  0.00     0.013 C 
HETATM   21  C   UNL     1       2.036  27.768  47.347  1.00  0.00    -0.016 C 
HETATM   22  C   UNL     1       0.895  27.182  46.515  1.00  0.00     0.010 C 
HETATM   23  C   UNL     1       2.608  26.708  48.299  1.00  0.00     0.029 C 
ENDBRANCH  12  15
ENDBRANCH   8  11
ENDBRANCH   6   7
BRANCH   1  24
HETATM   24  C   UNL     1       7.492  25.224  55.102  1.00  0.00     0.732 A 
HETATM   25  N   UNL     1       7.785  24.993  56.411  1.00  0.00    -0.152 N 
HETATM   26  C   UNL     1       7.760  25.992  57.329  1.00  0.00     0.268 A 
HETATM   27  H   UNL     1       8.046  24.061  56.717  1.00  0.00     0.188 HD
HETATM   28  C   UNL     1       7.375  27.333  56.802  1.00  0.00     0.035 A 
HETATM   29  O   UNL     1       8.040  25.796  58.505  1.00  0.00    -0.267 OA
HETATM   30  C   UNL     1       7.094  27.430  55.482  1.00  0.00     0.061 A 
HETATM   31  N   UNL     1       7.154  26.366  54.597  1.00  0.00    -0.067 NA
HETATM   32  C   UNL     1       6.708  28.730  54.823  1.00  0.00     0.072 C 
BRANCH  28  33
HETATM   33  C   UNL     1       7.299  28.435  57.827  1.00  0.00     0.042 C 
HETATM   34  C   UNL     1       8.593  29.234  57.900  1.00  0.00     0.010 C 
ENDBRANCH  28  33
ENDBRANCH   1  24
TORSDOF 5
ENDMDL
MODEL 3
REMARK VINA RESULT:      -9.1      1.734      2.725
REMARK  5 active torsions:
REMARK  status: ('A' for Active; 'I' for Inactive)
REMARK    1  A    between atoms: C_2  and  C_3 
REMARK    2  A    between atoms: C_7  and  N_8 
REMARK    3  A    between atoms: C_13  and  N_14 
REMARK       I    between atoms: N_14  and  C_15 
REMARK    4  A    between atoms: C_15  and  C_16 
REMARK       I    between atoms: C_16  and  N_17 
REMARK    5  A    between atoms: N_17  and  C_18 
ROOT
HETATM    1  N   UNL     1       7.312  28.269  57.022  1.00  0.00    -0.045 N 
HETATM    2  N   UNL     1       7.991  28.406  58.197  1.00  0.00    -0.156 NA
HETATM    3  C   UNL     1       7.882  29.705  58.491  1.00  0.00     0.055 A 
HETATM    4  C   UNL     1       8.509  30.262  59.717  1.00  0.00     0.072 C 
HETATM    5  C   UNL     1       7.130  30.404  57.519  1.00  0.00     0.079 A 
HETATM    6  C   UNL     1       6.773  29.466  56.578  1.00  0.00     0.152 A 
ENDROOT
BRANCH   6   7
HETATM    7  N   UNL     1       6.038  29.644  55.408  1.00  0.00    -0.303 N 
HETATM    8  C   UNL     1       4.610  29.720  55.361  1.00  0.00     0.315 C 
HETATM    9  O   UNL     1       3.898  29.573  56.342  1.00  0.00    -0.262 OA
HETATM   10  H   UNL     1       6.549  29.725  54.521  1.00  0.00     0.171 HD
BRANCH   8  11
HETATM   11  C   UNL     1       4.006  30.005  53.974  1.00  0.00     0.310 C 
HETATM   12  N   UNL     1       4.574  29.267  52.956  1.00  0.00    -0.348 N 
HETATM   13  H   UNL     1       5.374  28.686  53.195  1.00  0.00     0.163 HD
HETATM   14  O   UNL     1       3.098  30.819  53.880  1.00  0.00    -0.262 OA
BRANCH  12  15
HETATM   15  C   UNL     1       4.175  29.356  51.556  1.00  0.00     0.085 C 
HETATM   16  C   UNL     1       4.401  27.993  50.884  1.00  0.00     0.034 C 
HETATM   17  C   UNL     1       4.115  27.980  49.368  1.00  0.00    -0.045 C 
HETATM   18  C   UNL     1       2.602  28.089  49.101  1.00  0.00     0.015 C 
HETATM   19  C   UNL     1       4.604  26.642  48.781  1.00  0.00     0.015 C 
HETATM   20  C   UNL     1       4.878  29.136  48.681  1.00  0.00     0.013 C 
HETATM   21  C   UNL     1       4.636  30.505  49.334  1.00  0.00    -0.016 C 
HETATM   22  C   UNL     1       5.470  31.580  48.639  1.00  0.00     0.010 C 
HETATM   23  C   UNL     1       4.956  30.461  50.836  1.00  0.00     0.029 C 
ENDBRANCH  12  15
ENDBRANCH   8  11
ENDBRANCH   6   7
BRANCH   1  24
HETATM   24  C   UNL     1       7.215  27.012  56.408  1.00  0.00     0.732 A 
HETATM   25  N   UNL     1       8.104  26.125  56.934  1.00  0.00    -0.152 N 
HETATM   26  C   UNL     1       8.166  24.841  56.498  1.00  0.00     0.268 A 
HETATM   27  H   UNL     1       8.730  26.413  57.679  1.00  0.00     0.188 HD
HETATM   28  C   UNL     1       7.212  24.492  55.406  1.00  0.00     0.035 A 
HETATM   29  O   UNL     1       8.950  24.033  56.978  1.00  0.00    -0.267 OA
HETATM   30  C   UNL     1       6.386  25.467  54.961  1.00  0.00     0.061 A 
HETATM   31  N   UNL     1       6.369  26.758  55.464  1.00  0.00    -0.067 NA
HETATM   32  C   UNL     1       5.366  25.239  53.873  1.00  0.00     0.072 C 
BRANCH  28  33
HETATM   33  C   UNL     1       7.309  23.081  54.887  1.00  0.00     0.042 C 
HETATM   34  C   UNL     1       8.220  22.983  53.671  1.00  0.00     0.010 C 
ENDBRANCH  28  33
ENDBRANCH   1  24
TORSDOF 5
ENDMDL
MODEL 4
REMARK VINA RESULT:      -9.0      2.279      8.897
REMARK  5 active torsions:
REMARK  status: ('A' for Active; 'I' for Inactive)
REMARK    1  A    between atoms: C_2  and  C_3 
REMARK    2  A    between atoms: C_7  and  N_8 
REMARK    3  A    between atoms: C_13  and  N_14 
REMARK       I    between atoms: N_14  and  C_15 
REMARK    4  A    between atoms: C_15  and  C_16 
REMARK       I    between atoms: C_16  and  N_17 
REMARK    5  A    between atoms: N_17  and  C_18 
ROOT
HETATM    1  N   UNL     1       6.526  25.507  52.794  1.00  0.00    -0.045 N 
HETATM    2  N   UNL     1       6.476  24.202  52.399  1.00  0.00    -0.156 NA
HETATM    3  C   UNL     1       7.371  23.587  53.180  1.00  0.00     0.055 A 
HETATM    4  C   UNL     1       7.620  22.130  53.046  1.00  0.00     0.072 C 
HETATM    5  C   UNL     1       7.989  24.485  54.080  1.00  0.00     0.079 A 
HETATM    6  C   UNL     1       7.436  25.717  53.817  1.00  0.00     0.152 A 
ENDROOT
BRANCH   6   7
HETATM    7  N   UNL     1       7.715  26.942  54.421  1.00  0.00    -0.303 N 
HETATM    8  C   UNL     1       7.242  27.325  55.716  1.00  0.00     0.315 C 
HETATM    9  O   UNL     1       6.495  26.632  56.388  1.00  0.00    -0.262 OA
HETATM   10  H   UNL     1       8.295  27.615  53.907  1.00  0.00     0.171 HD
BRANCH   8  11
HETATM   11  C   UNL     1       7.740  28.689  56.227  1.00  0.00     0.310 C 
HETATM   12  N   UNL     1       7.178  29.073  57.427  1.00  0.00    -0.348 N 
HETATM   13  H   UNL     1       6.444  28.480  57.807  1.00  0.00     0.163 HD
HETATM   14  O   UNL     1       8.568  29.301  55.569  1.00  0.00    -0.262 OA
BRANCH  12  15
HETATM   15  C   UNL     1       7.486  30.321  58.116  1.00  0.00     0.085 C 
HETATM   16  C   UNL     1       8.314  30.007  59.372  1.00  0.00     0.034 C 
HETATM   17  C   UNL     1       8.620  31.238  60.251  1.00  0.00    -0.045 C 
HETATM   18  C   UNL     1       9.643  32.158  59.559  1.00  0.00     0.015 C 
HETATM   19  C   UNL     1       9.237  30.759  61.579  1.00  0.00     0.015 C 
HETATM   20  C   UNL     1       7.311  32.003  60.555  1.00  0.00     0.013 C 
HETATM   21  C   UNL     1       6.492  32.340  59.300  1.00  0.00    -0.016 C 
HETATM   22  C   UNL     1       5.189  33.038  59.688  1.00  0.00     0.010 C 
HETATM   23  C   UNL     1       6.202  31.076  58.478  1.00  0.00     0.029 C 
ENDBRANCH  12  15
ENDBRANCH   8  11
ENDBRANCH   6   7
BRANCH   1  24
HETATM   24  C   UNL     1       5.701  26.459  52.180  1.00  0.00     0.732 A 
HETATM   25  N   UNL     1       5.706  26.332  50.824  1.00  0.00    -0.152 N 
HETATM   26  C   UNL     1       4.958  27.141  50.033  1.00  0.00     0.268 A 
HETATM   27  H   UNL     1       6.266  25.608  50.384  1.00  0.00     0.188 HD
HETATM   28  C   UNL     1       4.159  28.174  50.753  1.00  0.00     0.035 A 
HETATM   29  O   UNL     1       4.944  27.021  48.815  1.00  0.00    -0.267 OA
HETATM   30  C   UNL     1       4.248  28.207  52.103  1.00  0.00     0.061 A 
HETATM   31  N   UNL     1       5.025  27.336  52.850  1.00  0.00    -0.067 NA
HETATM   32  C   UNL     1       3.479  29.191  52.949  1.00  0.00     0.072 C 
BRANCH  28  33
HETATM   33  C   UNL     1       3.364  29.106  49.876  1.00  0.00     0.042 C 
HETATM   34  C   UNL     1       1.960  28.580  49.610  1.00  0.00     0.010 C 
ENDBRANCH  28  33
ENDBRANCH   1  24
TORSDOF 5
ENDMDL
MODEL 5
REMARK VINA RESULT:      -9.0      5.312      9.464
REMARK  5 active torsions:
REMARK  status: ('A' for Active; 'I' for Inactive)
REMARK    1  A    between atoms: C_2  and  C_3 
REMARK    2  A    between atoms: C_7  and  N_8 
REMARK    3  A    between atoms: C_13  and  N_14 
REMARK       I    between atoms: N_14  and  C_15 
REMARK    4  A    between atoms: C_15  and  C_16 
REMARK       I    between atoms: C_16  and  N_17 
REMARK    5  A    between atoms: N_17  and  C_18 
ROOT
HETATM    1  N   UNL     1       6.214  32.923  61.660  1.00  0.00    -0.045 N 
HETATM    2  N   UNL     1       6.104  33.564  62.858  1.00  0.00    -0.156 NA
HETATM    3  C   UNL     1       7.077  33.034  63.607  1.00  0.00     0.055 A 
HETATM    4  C   UNL     1       7.281  33.474  65.010  1.00  0.00     0.072 C 
HETATM    5  C   UNL     1       7.818  32.063  62.895  1.00  0.00     0.079 A 
HETATM    6  C   UNL     1       7.248  32.001  61.644  1.00  0.00     0.152 A 
ENDROOT
BRANCH   6   7
HETATM    7  N   UNL     1       7.599  31.189  60.567  1.00  0.00    -0.303 N 
HETATM    8  C   UNL     1       8.537  31.561  59.554  1.00  0.00     0.315 C 
HETATM    9  O   UNL     1       9.074  32.657  59.506  1.00  0.00    -0.262 OA
HETATM   10  H   UNL     1       7.159  30.265  60.493  1.00  0.00     0.171 HD
BRANCH   8  11
HETATM   11  C   UNL     1       8.843  30.479  58.502  1.00  0.00     0.310 C 
HETATM   12  N   UNL     1       7.716  29.905  57.950  1.00  0.00    -0.348 N 
HETATM   13  H   UNL     1       6.817  30.178  58.341  1.00  0.00     0.163 HD
HETATM   14  O   UNL     1      10.008  30.226  58.235  1.00  0.00    -0.262 OA
BRANCH  12  15
HETATM   15  C   UNL     1       7.741  28.858  56.935  1.00  0.00     0.085 C 
HETATM   16  C   UNL     1       6.523  29.026  56.014  1.00  0.00     0.034 C 
HETATM   17  C   UNL     1       6.374  27.915  54.954  1.00  0.00    -0.045 C 
HETATM   18  C   UNL     1       7.464  28.047  53.873  1.00  0.00     0.015 C 
HETATM   19  C   UNL     1       5.004  28.065  54.265  1.00  0.00     0.015 C 
HETATM   20  C   UNL     1       6.441  26.528  55.634  1.00  0.00     0.013 C 
HETATM   21  C   UNL     1       7.671  26.348  56.537  1.00  0.00    -0.016 C 
HETATM   22  C   UNL     1       7.633  24.980  57.219  1.00  0.00     0.010 C 
HETATM   23  C   UNL     1       7.755  27.469  57.582  1.00  0.00     0.029 C 
ENDBRANCH  12  15
ENDBRANCH   8  11
ENDBRANCH   6   7
BRANCH   1  24
HETATM   24  C   UNL     1       5.337  33.237  60.612  1.00  0.00     0.732 A 
HETATM   25  N   UNL     1       4.844  34.501  60.728  1.00  0.00    -0.152 N 
HETATM   26  C   UNL     1       3.991  35.016  59.807  1.00  0.00     0.268 A 
HETATM   27  H   UNL     1       5.125  35.086  61.509  1.00  0.00     0.188 HD
HETATM   28  C   UNL     1       3.630  34.098  58.689  1.00  0.00     0.035 A 
HETATM   29  O   UNL     1       3.557  36.158  59.896  1.00  0.00    -0.267 OA
HETATM   30  C   UNL     1       4.178  32.861  58.692  1.00  0.00     0.061 A 
HETATM   31  N   UNL     1       5.056  32.405  59.662  1.00  0.00    -0.067 NA
HETATM   32  C   UNL     1       3.907  31.845  57.611  1.00  0.00     0.072 C 
BRANCH  28  33
HETATM   33  C   UNL     1       2.647  34.650  57.689  1.00  0.00     0.042 C 
HETATM   34  C   UNL     1       3.344  35.324  56.515  1.00  0.00     0.010 C 
ENDBRANCH  28  33
ENDBRANCH   1  24
TORSDOF 5
ENDMDL
MODEL 6
REMARK VINA RESULT:      -8.9      4.624      8.290
REMARK  5 active torsions:
REMARK  status: ('A' for Active; 'I' for Inactive)
REMARK    1  A    between atoms: C_2  and  C_3 
REMARK    2  A    between atoms: C_7  and  N_8 
REMARK    3  A    between atoms: C_13  and  N_14 
REMARK       I    between atoms: N_14  and  C_15 
REMARK    4  A    between atoms: C_15  and  C_16 
REMARK       I    between atoms: C_16  and  N_17 
REMARK    5  A    between atoms: N_17  and  C_18 
ROOT
HETATM    1  N   UNL     1       6.567  32.025  60.234  1.00  0.00    -0.045 N 
HETATM    2  N   UNL     1       6.456  32.795  61.355  1.00  0.00    -0.156 NA
HETATM    3  C   UNL     1       7.420  32.342  62.163  1.00  0.00     0.055 A 
HETATM    4  C   UNL     1       7.619  32.932  63.511  1.00  0.00     0.072 C 
HETATM    5  C   UNL     1       8.157  31.294  61.568  1.00  0.00     0.079 A 
HETATM    6  C   UNL     1       7.594  31.099  60.327  1.00  0.00     0.152 A 
ENDROOT
BRANCH   6   7
HETATM    7  N   UNL     1       7.945  30.171  59.349  1.00  0.00    -0.303 N 
HETATM    8  C   UNL     1       8.988  30.370  58.390  1.00  0.00     0.315 C 
HETATM    9  O   UNL     1       9.630  31.405  58.304  1.00  0.00    -0.262 OA
HETATM   10  H   UNL     1       7.424  29.287  59.310  1.00  0.00     0.171 HD
BRANCH   8  11
HETATM   11  C   UNL     1       9.265  29.180  57.454  1.00  0.00     0.310 C 
HETATM   12  N   UNL     1       8.160  28.389  57.216  1.00  0.00    -0.348 N 
HETATM   13  H   UNL     1       7.313  28.607  57.735  1.00  0.00     0.163 HD
HETATM   14  O   UNL     1      10.390  29.035  56.999  1.00  0.00    -0.262 OA
BRANCH  12  15
HETATM   15  C   UNL     1       8.166  27.205  56.364  1.00  0.00     0.085 C 
HETATM   16  C   UNL     1       6.858  27.161  55.560  1.00  0.00     0.034 C 
HETATM   17  C   UNL     1       6.691  25.896  54.692  1.00  0.00    -0.045 C 
HETATM   18  C   UNL     1       7.662  25.928  53.497  1.00  0.00     0.015 C 
HETATM   19  C   UNL     1       5.255  25.862  54.135  1.00  0.00     0.015 C 
HETATM   20  C   UNL     1       6.923  24.635  55.555  1.00  0.00     0.013 C 
HETATM   21  C   UNL     1       8.242  24.663  56.341  1.00  0.00    -0.016 C 
HETATM   22  C   UNL     1       8.367  23.414  57.213  1.00  0.00     0.010 C 
HETATM   23  C   UNL     1       8.341  25.932  57.200  1.00  0.00     0.029 C 
ENDBRANCH  12  15
ENDBRANCH   8  11
ENDBRANCH   6   7
BRANCH   1  24
HETATM   24  C   UNL     1       5.700  32.228  59.152  1.00  0.00     0.732 A 
HETATM   25  N   UNL     1       4.828  31.193  59.005  1.00  0.00    -0.152 N 
HETATM   26  C   UNL     1       3.885  31.195  58.029  1.00  0.00     0.268 A 
HETATM   27  H   UNL     1       4.863  30.403  59.642  1.00  0.00     0.188 HD
HETATM   28  C   UNL     1       3.892  32.390  57.137  1.00  0.00     0.035 A 
HETATM   29  O   UNL     1       3.086  30.276  57.901  1.00  0.00    -0.267 OA
HETATM   30  C   UNL     1       4.818  33.346  57.380  1.00  0.00     0.061 A 
HETATM   31  N   UNL     1       5.745  33.285  58.408  1.00  0.00    -0.067 NA
HETATM   32  C   UNL     1       4.920  34.610  56.562  1.00  0.00     0.072 C 
BRANCH  28  33
HETATM   33  C   UNL     1       2.878  32.374  56.023  1.00  0.00     0.042 C 
HETATM   34  C   UNL     1       3.418  31.698  54.770  1.00  0.00     0.010 C 
ENDBRANCH  28  33
ENDBRANCH   1  24
TORSDOF 5
ENDMDL
MODEL 7
REMARK VINA RESULT:      -8.6      2.464      5.038
REMARK  5 active torsions:
REMARK  status: ('A' for Active; 'I' for Inactive)
REMARK    1  A    between atoms: C_2  and  C_3 
REMARK    2  A    between atoms: C_7  and  N_8 
REMARK    3  A    between atoms: C_13  and  N_14 
REMARK       I    between atoms: N_14  and  C_15 
REMARK    4  A    between atoms: C_15  and  C_16 
REMARK       I    between atoms: C_16  and  N_17 
REMARK    5  A    between atoms: N_17  and  C_18 
ROOT
HETATM    1  N   UNL     1       7.365  25.023  54.321  1.00  0.00    -0.045 N 
HETATM    2  N   UNL     1       8.005  24.015  54.981  1.00  0.00    -0.156 NA
HETATM    3  C   UNL     1       8.384  23.175  54.012  1.00  0.00     0.055 A 
HETATM    4  C   UNL     1       9.116  21.925  54.335  1.00  0.00     0.072 C 
HETATM    5  C   UNL     1       8.000  23.639  52.733  1.00  0.00     0.079 A 
HETATM    6  C   UNL     1       7.343  24.828  52.949  1.00  0.00     0.152 A 
ENDROOT
BRANCH   6   7
HETATM    7  N   UNL     1       6.755  25.679  52.015  1.00  0.00    -0.303 N 
HETATM    8  C   UNL     1       5.401  25.566  51.566  1.00  0.00     0.315 C 
HETATM    9  O   UNL     1       4.651  24.670  51.917  1.00  0.00    -0.262 OA
HETATM   10  H   UNL     1       7.326  26.436  51.622  1.00  0.00     0.171 HD
BRANCH   8  11
HETATM   11  C   UNL     1       4.931  26.664  50.594  1.00  0.00     0.310 C 
HETATM   12  N   UNL     1       4.698  27.882  51.199  1.00  0.00    -0.348 N 
HETATM   13  H   UNL     1       4.770  27.918  52.214  1.00  0.00     0.163 HD
HETATM   14  O   UNL     1       4.814  26.394  49.408  1.00  0.00    -0.262 OA
BRANCH  12  15
HETATM   15  C   UNL     1       4.246  29.076  50.495  1.00  0.00     0.085 C 
HETATM   16  C   UNL     1       5.472  29.894  50.061  1.00  0.00     0.034 C 
HETATM   17  C   UNL     1       5.129  31.242  49.392  1.00  0.00    -0.045 C 
HETATM   18  C   UNL     1       4.531  31.015  47.991  1.00  0.00     0.015 C 
HETATM   19  C   UNL     1       6.424  32.060  49.228  1.00  0.00     0.015 C 
HETATM   20  C   UNL     1       4.147  32.035  50.285  1.00  0.00     0.013 C 
HETATM   21  C   UNL     1       2.908  31.228  50.701  1.00  0.00    -0.016 C 
HETATM   22  C   UNL     1       2.020  32.058  51.629  1.00  0.00     0.010 C 
HETATM   23  C   UNL     1       3.311  29.910  51.377  1.00  0.00     0.029 C 
ENDBRANCH  12  15
ENDBRANCH   8  11
ENDBRANCH   6   7
BRANCH   1  24
HETATM   24  C   UNL     1       6.828  26.102  55.036  1.00  0.00     0.732 A 
HETATM   25  N   UNL     1       7.502  26.321  56.199  1.00  0.00    -0.152 N 
HETATM   26  C   UNL     1       7.161  27.333  57.036  1.00  0.00     0.268 A 
HETATM   27  H   UNL     1       8.289  25.730  56.449  1.00  0.00     0.188 HD
HETATM   28  C   UNL     1       5.999  28.158  56.597  1.00  0.00     0.035 A 
HETATM   29  O   UNL     1       7.773  27.546  58.075  1.00  0.00    -0.267 OA
HETATM   30  C   UNL     1       5.406  27.832  55.426  1.00  0.00     0.061 A 
HETATM   31  N   UNL     1       5.818  26.790  54.612  1.00  0.00    -0.067 NA
HETATM   32  C   UNL     1       4.234  28.598  54.863  1.00  0.00     0.072 C 
BRANCH  28  33
HETATM   33  C   UNL     1       5.587  29.253  57.547  1.00  0.00     0.042 C 
HETATM   34  C   UNL     1       6.307  30.563  57.255  1.00  0.00     0.010 C 
ENDBRANCH  28  33
ENDBRANCH   1  24
TORSDOF 5
ENDMDL
MODEL 8
REMARK VINA RESULT:      -8.4      3.146      9.500
REMARK  5 active torsions:
REMARK  status: ('A' for Active; 'I' for Inactive)
REMARK    1  A    between atoms: C_2  and  C_3 
REMARK    2  A    between atoms: C_7  and  N_8 
REMARK    3  A    between atoms: C_13  and  N_14 
REMARK       I    between atoms: N_14  and  C_15 
REMARK    4  A    between atoms: C_15  and  C_16 
REMARK       I    between atoms: C_16  and  N_17 
REMARK    5  A    between atoms: N_17  and  C_18 
ROOT
HETATM    1  N   UNL     1       2.472  28.953  47.714  1.00  0.00    -0.045 N 
HETATM    2  N   UNL     1       1.540  29.027  46.720  1.00  0.00    -0.156 NA
HETATM    3  C   UNL     1       0.806  27.920  46.875  1.00  0.00     0.055 A 
HETATM    4  C   UNL     1      -0.327  27.627  45.960  1.00  0.00     0.072 C 
HETATM    5  C   UNL     1       1.252  27.140  47.965  1.00  0.00     0.079 A 
HETATM    6  C   UNL     1       2.327  27.817  48.494  1.00  0.00     0.152 A 
ENDROOT
BRANCH   6   7
HETATM    7  N   UNL     1       3.133  27.463  49.574  1.00  0.00    -0.303 N 
HETATM    8  C   UNL     1       4.293  26.632  49.472  1.00  0.00     0.315 C 
HETATM    9  O   UNL     1       4.651  26.105  48.430  1.00  0.00    -0.262 OA
HETATM   10  H   UNL     1       2.881  27.817  50.504  1.00  0.00     0.171 HD
BRANCH   8  11
HETATM   11  C   UNL     1       5.087  26.437  50.777  1.00  0.00     0.310 C 
HETATM   12  N   UNL     1       4.631  25.394  51.556  1.00  0.00    -0.348 N 
HETATM   13  H   UNL     1       3.784  24.921  51.249  1.00  0.00     0.163 HD
HETATM   14  O   UNL     1       6.029  27.179  51.013  1.00  0.00    -0.262 OA
BRANCH  12  15
HETATM   15  C   UNL     1       5.214  25.008  52.836  1.00  0.00     0.085 C 
HETATM   16  C   UNL     1       5.586  26.277  53.618  1.00  0.00     0.034 C 
HETATM   17  C   UNL     1       6.312  26.007  54.953  1.00  0.00    -0.045 C 
HETATM   18  C   UNL     1       5.339  25.409  55.987  1.00  0.00     0.015 C 
HETATM   19  C   UNL     1       6.836  27.343  55.513  1.00  0.00     0.015 C 
HETATM   20  C   UNL     1       7.510  25.059  54.716  1.00  0.00     0.013 C 
HETATM   21  C   UNL     1       7.137  23.778  53.955  1.00  0.00    -0.016 C 
HETATM   22  C   UNL     1       8.382  22.926  53.707  1.00  0.00     0.010 C 
HETATM   23  C   UNL     1       6.438  24.110  52.629  1.00  0.00     0.029 C 
ENDBRANCH  12  15
ENDBRANCH   8  11
ENDBRANCH   6   7
BRANCH   1  24
HETATM   24  C   UNL     1       3.427  29.969  47.859  1.00  0.00     0.732 A 
HETATM   25  N   UNL     1       3.669  30.605  46.680  1.00  0.00    -0.152 N 
HETATM   26  C   UNL     1       4.546  31.637  46.598  1.00  0.00     0.268 A 
HETATM   27  H   UNL     1       3.178  30.320  45.838  1.00  0.00     0.188 HD
HETATM   28  C   UNL     1       5.224  32.000  47.876  1.00  0.00     0.035 A 
HETATM   29  O   UNL     1       4.757  32.225  45.545  1.00  0.00    -0.267 OA
HETATM   30  C   UNL     1       4.906  31.283  48.979  1.00  0.00     0.061 A 
HETATM   31  N   UNL     1       3.986  30.247  48.992  1.00  0.00    -0.067 NA
HETATM   32  C   UNL     1       5.507  31.560  50.335  1.00  0.00     0.072 C 
BRANCH  28  33
HETATM   33  C   UNL     1       6.234  33.114  47.781  1.00  0.00     0.042 C 
HETATM   34  C   UNL     1       5.607  34.476  48.047  1.00  0.00     0.010 C 
ENDBRANCH  28  33
ENDBRANCH   1  24
TORSDOF 5
ENDMDL
MODEL 9
REMARK VINA RESULT:      -8.2      1.928      4.579
REMARK  5 active torsions:
REMARK  status: ('A' for Active; 'I' for Inactive)
REMARK    1  A    between atoms: C_2  and  C_3 
REMARK    2  A    between atoms: C_7  and  N_8 
REMARK    3  A    between atoms: C_13  and  N_14 
REMARK       I    between atoms: N_14  and  C_15 
REMARK    4  A    between atoms: C_15  and  C_16 
REMARK       I    between atoms: C_16  and  N_17 
REMARK    5  A    between atoms: N_17  and  C_18 
ROOT
HETATM    1  N   UNL     1       7.291  25.273  54.188  1.00  0.00    -0.045 N 
HETATM    2  N   UNL     1       7.836  24.115  54.658  1.00  0.00    -0.156 NA
HETATM    3  C   UNL     1       8.089  23.398  53.558  1.00  0.00     0.055 A 
HETATM    4  C   UNL     1       8.689  22.044  53.655  1.00  0.00     0.072 C 
HETATM    5  C   UNL     1       7.721  24.092  52.383  1.00  0.00     0.079 A 
HETATM    6  C   UNL     1       7.206  25.296  52.805  1.00  0.00     0.152 A 
ENDROOT
BRANCH   6   7
HETATM    7  N   UNL     1       6.688  26.337  52.038  1.00  0.00    -0.303 N 
HETATM    8  C   UNL     1       5.416  26.296  51.383  1.00  0.00     0.315 C 
HETATM    9  O   UNL     1       4.691  25.314  51.387  1.00  0.00    -0.262 OA
HETATM   10  H   UNL     1       7.251  27.189  51.933  1.00  0.00     0.171 HD
BRANCH   8  11
HETATM   11  C   UNL     1       5.001  27.590  50.659  1.00  0.00     0.310 C 
HETATM   12  N   UNL     1       3.848  27.465  49.912  1.00  0.00    -0.348 N 
HETATM   13  H   UNL     1       3.439  26.536  49.840  1.00  0.00     0.163 HD
HETATM   14  O   UNL     1       5.685  28.593  50.800  1.00  0.00    -0.262 OA
BRANCH  12  15
HETATM   15  C   UNL     1       3.251  28.546  49.136  1.00  0.00     0.085 C 
HETATM   16  C   UNL     1       1.997  28.016  48.423  1.00  0.00     0.034 C 
HETATM   17  C   UNL     1       1.326  29.037  47.481  1.00  0.00    -0.045 C 
HETATM   18  C   UNL     1       0.641  30.154  48.291  1.00  0.00     0.015 C 
HETATM   19  C   UNL     1       0.241  28.316  46.658  1.00  0.00     0.015 C 
HETATM   20  C   UNL     1       2.378  29.627  46.513  1.00  0.00     0.013 C 
HETATM   21  C   UNL     1       3.622  30.180  47.224  1.00  0.00    -0.016 C 
HETATM   22  C   UNL     1       4.637  30.687  46.199  1.00  0.00     0.010 C 
HETATM   23  C   UNL     1       4.256  29.115  48.129  1.00  0.00     0.029 C 
ENDBRANCH  12  15
ENDBRANCH   8  11
ENDBRANCH   6   7
BRANCH   1  24
HETATM   24  C   UNL     1       6.900  26.280  55.081  1.00  0.00     0.732 A 
HETATM   25  N   UNL     1       7.886  26.574  55.972  1.00  0.00    -0.152 N 
HETATM   26  C   UNL     1       7.726  27.537  56.915  1.00  0.00     0.268 A 
HETATM   27  H   UNL     1       8.773  26.081  55.931  1.00  0.00     0.188 HD
HETATM   28  C   UNL     1       6.400  28.220  56.909  1.00  0.00     0.035 A 
HETATM   29  O   UNL     1       8.614  27.819  57.708  1.00  0.00    -0.267 OA
HETATM   30  C   UNL     1       5.498  27.828  55.980  1.00  0.00     0.061 A 
HETATM   31  N   UNL     1       5.736  26.844  55.034  1.00  0.00    -0.067 NA
HETATM   32  C   UNL     1       4.129  28.450  55.857  1.00  0.00     0.072 C 
BRANCH  28  33
HETATM   33  C   UNL     1       6.200  29.256  57.984  1.00  0.00     0.042 C 
HETATM   34  C   UNL     1       6.550  30.656  57.499  1.00  0.00     0.010 C 
ENDBRANCH  28  33
ENDBRANCH   1  24
TORSDOF 5
ENDMDL
MODEL 10
REMARK VINA RESULT:      -8.2      1.845      4.680
REMARK  5 active torsions:
REMARK  status: ('A' for Active; 'I' for Inactive)
REMARK    1  A    between atoms: C_2  and  C_3 
REMARK    2  A    between atoms: C_7  and  N_8 
REMARK    3  A    between atoms: C_13  and  N_14 
REMARK       I    between atoms: N_14  and  C_15 
REMARK    4  A    between atoms: C_15  and  C_16 
REMARK       I    between atoms: C_16  and  N_17 
REMARK    5  A    between atoms: N_17  and  C_18 
ROOT
HETATM    1  N   UNL     1       7.474  25.252  54.125  1.00  0.00    -0.045 N 
HETATM    2  N   UNL     1       7.993  24.214  54.840  1.00  0.00    -0.156 NA
HETATM    3  C   UNL     1       8.188  23.252  53.933  1.00  0.00     0.055 A 
HETATM    4  C   UNL     1       8.744  21.934  54.330  1.00  0.00     0.072 C 
HETATM    5  C   UNL     1       7.806  23.666  52.636  1.00  0.00     0.079 A 
HETATM    6  C   UNL     1       7.345  24.956  52.777  1.00  0.00     0.152 A 
ENDROOT
BRANCH   6   7
HETATM    7  N   UNL     1       6.838  25.809  51.800  1.00  0.00    -0.303 N 
HETATM    8  C   UNL     1       5.453  25.900  51.453  1.00  0.00     0.315 C 
HETATM    9  O   UNL     1       4.591  25.188  51.943  1.00  0.00    -0.262 OA
HETATM   10  H   UNL     1       7.497  26.413  51.294  1.00  0.00     0.171 HD
BRANCH   8  11
HETATM   11  C   UNL     1       5.100  26.972  50.405  1.00  0.00     0.310 C 
HETATM   12  N   UNL     1       3.824  26.853  49.894  1.00  0.00    -0.348 N 
HETATM   13  H   UNL     1       3.282  26.041  50.183  1.00  0.00     0.163 HD
HETATM   14  O   UNL     1       5.934  27.820  50.122  1.00  0.00    -0.262 OA
BRANCH  12  15
HETATM   15  C   UNL     1       3.255  27.745  48.891  1.00  0.00     0.085 C 
HETATM   16  C   UNL     1       2.666  28.977  49.594  1.00  0.00     0.034 C 
HETATM   17  C   UNL     1       1.937  29.956  48.649  1.00  0.00    -0.045 C 
HETATM   18  C   UNL     1       2.946  30.697  47.753  1.00  0.00     0.015 C 
HETATM   19  C   UNL     1       1.196  31.007  49.498  1.00  0.00     0.015 C 
HETATM   20  C   UNL     1       0.904  29.187  47.793  1.00  0.00     0.013 C 
HETATM   21  C   UNL     1       1.495  27.968  47.069  1.00  0.00    -0.016 C 
HETATM   22  C   UNL     1       0.402  27.228  46.297  1.00  0.00     0.010 C 
HETATM   23  C   UNL     1       2.188  27.022  48.061  1.00  0.00     0.029 C 
ENDBRANCH  12  15
ENDBRANCH   8  11
ENDBRANCH   6   7
BRANCH   1  24
HETATM   24  C   UNL     1       7.145  26.454  54.766  1.00  0.00     0.732 A 
HETATM   25  N   UNL     1       6.001  26.997  54.265  1.00  0.00    -0.152 N 
HETATM   26  C   UNL     1       5.490  28.153  54.758  1.00  0.00     0.268 A 
HETATM   27  H   UNL     1       5.502  26.527  53.515  1.00  0.00     0.188 HD
HETATM   28  C   UNL     1       6.276  28.779  55.859  1.00  0.00     0.035 A 
HETATM   29  O   UNL     1       4.452  28.637  54.324  1.00  0.00    -0.267 OA
HETATM   30  C   UNL     1       7.403  28.148  56.261  1.00  0.00     0.061 A 
HETATM   31  N   UNL     1       7.860  26.957  55.720  1.00  0.00    -0.067 NA
HETATM   32  C   UNL     1       8.277  28.668  57.375  1.00  0.00     0.072 C 
BRANCH  28  33
HETATM   33  C   UNL     1       5.737  30.087  56.377  1.00  0.00     0.042 C 
HETATM   34  C   UNL     1       4.761  29.886  57.529  1.00  0.00     0.010 C 
ENDBRANCH  28  33
ENDBRANCH   1  24
TORSDOF 5
ENDMDL
