MODEL 1
REMARK VINA RESULT:     -11.3      0.000      0.000
REMARK  6 active torsions:
REMARK  status: ('A' for Active; 'I' for Inactive)
REMARK    1  A    between atoms: C_8  and  C_9 
REMARK    2  A    between atoms: C_9  and  C_10 
REMARK    3  A    between atoms: C_10  and  N_11 
REMARK       I    between atoms: N_11  and  C_12 
REMARK    4  A    between atoms: C_12  and  C_13 
REMARK    5  A    between atoms: C_18  and  C_19 
REMARK    6  A    between atoms: C_29  and  C_30 
ROOT
HETATM    1  C   UNL     1       7.746  29.167  57.281  1.00  0.00     0.148 A 
HETATM    2  N   UNL     1       6.595  28.466  57.384  1.00  0.00    -0.165 NA
HETATM    3  N   UNL     1       6.627  27.646  56.317  1.00  0.00    -0.240 N 
HETATM    4  C   UNL     1       7.724  27.818  55.521  1.00  0.00     0.123 A 
HETATM    5  N   UNL     1       7.900  27.113  54.384  1.00  0.00    -0.366 N 
HETATM    6  C   UNL     1       6.985  26.060  53.967  1.00  0.00     0.118 C 
HETATM    7  C   UNL     1       5.579  26.286  54.550  1.00  0.00     0.066 C 
HETATM    8  C   UNL     1       5.544  26.727  56.027  1.00  0.00     0.221 C 
HETATM    9  C   UNL     1       8.479  28.787  56.124  1.00  0.00     0.088 A 
HETATM   10  H   UNL     1       8.777  27.161  53.868  1.00  0.00     0.161 HD
ENDROOT
BRANCH   1  11
HETATM   11  C   UNL     1       8.147  30.188  58.262  1.00  0.00     0.272 C 
HETATM   12  N   UNL     1       7.257  30.348  59.300  1.00  0.00    -0.355 N 
HETATM   13  H   UNL     1       6.546  29.622  59.373  1.00  0.00     0.162 HD
HETATM   14  O   UNL     1       9.196  30.820  58.166  1.00  0.00    -0.266 OA
BRANCH  12  15
HETATM   15  C   UNL     1       7.593  31.161  60.450  1.00  0.00     0.127 C 
BRANCH  15  16
HETATM   16  C   UNL     1       6.906  32.526  60.451  1.00  0.00     0.060 C 
BRANCH  16  17
HETATM   17  C   UNL     1       5.957  32.706  61.597  1.00  0.00    -0.029 A 
HETATM   18  C   UNL     1       6.283  33.077  62.940  1.00  0.00    -0.002 A 
HETATM   19  C   UNL     1       7.484  33.383  63.612  1.00  0.00     0.014 A 
HETATM   20  C   UNL     1       5.089  33.116  63.663  1.00  0.00     0.042 A 
HETATM   21  C   UNL     1       7.448  33.714  64.972  1.00  0.00     0.001 A 
HETATM   22  C   UNL     1       6.241  33.743  65.664  1.00  0.00     0.002 A 
HETATM   23  C   UNL     1       5.036  33.445  65.024  1.00  0.00     0.030 A 
HETATM   24  N   UNL     1       4.078  32.786  62.794  1.00  0.00    -0.365 N 
HETATM   25  H   UNL     1       3.100  32.737  63.046  1.00  0.00     0.165 HD
HETATM   26  C   UNL     1       4.586  32.533  61.549  1.00  0.00     0.096 A 
ENDBRANCH  16  17
ENDBRANCH  15  16
ENDBRANCH  12  15
ENDBRANCH   1  11
BRANCH   8  27
HETATM   27  C   UNL     1       5.542  25.576  57.006  1.00  0.00     0.409 C 
HETATM   28  F   UNL     1       4.496  25.639  57.862  1.00  0.00    -0.169 F 
HETATM   29  F   UNL     1       5.409  24.399  56.338  1.00  0.00    -0.169 F 
HETATM   30  F   UNL     1       6.664  25.486  57.743  1.00  0.00    -0.169 F 
ENDBRANCH   8  27
BRANCH   6  31
HETATM   31  C   UNL     1       7.562  24.670  54.175  1.00  0.00    -0.033 A 
HETATM   32  C   UNL     1       7.271  23.668  53.228  1.00  0.00     0.049 A 
HETATM   33  C   UNL     1       7.830  22.417  53.393  1.00  0.00     0.105 A 
HETATM   34  C   UNL     1       8.647  22.122  54.457  1.00  0.00     0.105 A 
HETATM   35  O   UNL     1       7.663  21.357  52.559  1.00  0.00    -0.323 OA
HETATM   36  O   UNL     1       9.095  20.840  54.430  1.00  0.00    -0.323 OA
HETATM   37  C   UNL     1       8.952  23.064  55.412  1.00  0.00     0.040 A 
HETATM   38  C   UNL     1       8.482  20.366  53.214  1.00  0.00     0.352 A 
HETATM   39  C   UNL     1       8.411  24.346  55.261  1.00  0.00     0.012 A 
ENDBRANCH   6  31
TORSDOF 6
ENDMDL
MODEL 2
REMARK VINA RESULT:     -11.1      3.372     11.428
REMARK  6 active torsions:
REMARK  status: ('A' for Active; 'I' for Inactive)
REMARK    1  A    between atoms: C_8  and  C_9 
REMARK    2  A    between atoms: C_9  and  C_10 
REMARK    3  A    between atoms: C_10  and  N_11 
REMARK       I    between atoms: N_11  and  C_12 
REMARK    4  A    between atoms: C_12  and  C_13 
REMARK    5  A    between atoms: C_18  and  C_19 
REMARK    6  A    between atoms: C_29  and  C_30 
ROOT
HETATM    1  C   UNL     1       7.615  29.032  58.029  1.00  0.00     0.148 A 
HETATM    2  N   UNL     1       8.617  29.361  58.875  1.00  0.00    -0.165 NA
HETATM    3  N   UNL     1       8.230  30.549  59.376  1.00  0.00    -0.240 N 
HETATM    4  C   UNL     1       7.050  31.009  58.863  1.00  0.00     0.123 A 
HETATM    5  N   UNL     1       6.533  32.203  59.217  1.00  0.00    -0.366 N 
HETATM    6  C   UNL     1       7.143  33.049  60.233  1.00  0.00     0.118 C 
HETATM    7  C   UNL     1       8.653  32.773  60.349  1.00  0.00     0.066 C 
HETATM    8  C   UNL     1       9.051  31.284  60.318  1.00  0.00     0.221 C 
HETATM    9  C   UNL     1       6.616  30.042  57.997  1.00  0.00     0.088 A 
HETATM   10  H   UNL     1       5.596  32.475  58.924  1.00  0.00     0.161 HD
ENDROOT
BRANCH   1  11
HETATM   11  C   UNL     1       7.603  27.779  57.257  1.00  0.00     0.272 C 
HETATM   12  N   UNL     1       7.615  26.642  58.035  1.00  0.00    -0.355 N 
HETATM   13  H   UNL     1       7.433  26.796  59.025  1.00  0.00     0.162 HD
HETATM   14  O   UNL     1       7.563  27.760  56.030  1.00  0.00    -0.266 OA
BRANCH  12  15
HETATM   15  C   UNL     1       7.403  25.336  57.446  1.00  0.00     0.127 C 
BRANCH  15  16
HETATM   16  C   UNL     1       8.702  24.620  57.075  1.00  0.00     0.060 C 
BRANCH  16  17
HETATM   17  C   UNL     1       8.486  23.206  56.630  1.00  0.00    -0.029 A 
HETATM   18  C   UNL     1       8.286  22.741  55.291  1.00  0.00    -0.002 A 
HETATM   19  C   UNL     1       8.227  23.369  54.030  1.00  0.00     0.014 A 
HETATM   20  C   UNL     1       8.121  21.356  55.350  1.00  0.00     0.042 A 
HETATM   21  C   UNL     1       8.007  22.597  52.884  1.00  0.00     0.001 A 
HETATM   22  C   UNL     1       7.846  21.217  52.978  1.00  0.00     0.002 A 
HETATM   23  C   UNL     1       7.900  20.568  54.214  1.00  0.00     0.030 A 
HETATM   24  N   UNL     1       8.221  20.992  56.672  1.00  0.00    -0.365 N 
HETATM   25  H   UNL     1       8.144  20.044  57.011  1.00  0.00     0.165 HD
HETATM   26  C   UNL     1       8.437  22.095  57.452  1.00  0.00     0.096 A 
ENDBRANCH  16  17
ENDBRANCH  15  16
ENDBRANCH  12  15
ENDBRANCH   1  11
BRANCH   8  27
HETATM   27  C   UNL     1       9.033  30.620  61.675  1.00  0.00     0.409 C 
HETATM   28  F   UNL     1       9.951  29.630  61.769  1.00  0.00    -0.169 F 
HETATM   29  F   UNL     1       9.358  31.523  62.638  1.00  0.00    -0.169 F 
HETATM   30  F   UNL     1       7.839  30.099  62.011  1.00  0.00    -0.169 F 
ENDBRANCH   8  27
BRANCH   6  31
HETATM   31  C   UNL     1       6.374  33.034  61.543  1.00  0.00    -0.033 A 
HETATM   32  C   UNL     1       6.978  33.590  62.688  1.00  0.00     0.049 A 
HETATM   33  C   UNL     1       6.263  33.616  63.869  1.00  0.00     0.105 A 
HETATM   34  C   UNL     1       4.991  33.107  63.958  1.00  0.00     0.105 A 
HETATM   35  O   UNL     1       6.697  34.135  65.048  1.00  0.00    -0.323 OA
HETATM   36  O   UNL     1       4.464  33.235  65.204  1.00  0.00    -0.323 OA
HETATM   37  C   UNL     1       4.363  32.546  62.870  1.00  0.00     0.040 A 
HETATM   38  C   UNL     1       5.545  33.905  65.885  1.00  0.00     0.352 A 
HETATM   39  C   UNL     1       5.059  32.519  61.656  1.00  0.00     0.012 A 
ENDBRANCH   6  31
TORSDOF 6
ENDMDL
MODEL 3
REMARK VINA RESULT:     -10.7      6.591     10.465
REMARK  6 active torsions:
REMARK  status: ('A' for Active; 'I' for Inactive)
REMARK    1  A    between atoms: C_8  and  C_9 
REMARK    2  A    between atoms: C_9  and  C_10 
REMARK    3  A    between atoms: C_10  and  N_11 
REMARK       I    between atoms: N_11  and  C_12 
REMARK    4  A    between atoms: C_12  and  C_13 
REMARK    5  A    between atoms: C_18  and  C_19 
REMARK    6  A    between atoms: C_29  and  C_30 
ROOT
HETATM    1  C   UNL     1       5.633  26.395  52.880  1.00  0.00     0.148 A 
HETATM    2  N   UNL     1       5.405  27.725  52.795  1.00  0.00    -0.165 NA
HETATM    3  N   UNL     1       5.244  27.934  51.474  1.00  0.00    -0.240 N 
HETATM    4  C   UNL     1       5.396  26.809  50.714  1.00  0.00     0.123 A 
HETATM    5  N   UNL     1       5.314  26.839  49.368  1.00  0.00    -0.366 N 
HETATM    6  C   UNL     1       4.972  28.048  48.632  1.00  0.00     0.118 C 
HETATM    7  C   UNL     1       5.350  29.308  49.432  1.00  0.00     0.066 C 
HETATM    8  C   UNL     1       5.007  29.258  50.934  1.00  0.00     0.221 C 
HETATM    9  C   UNL     1       5.634  25.789  51.595  1.00  0.00     0.088 A 
HETATM   10  H   UNL     1       5.304  25.978  48.824  1.00  0.00     0.161 HD
ENDROOT
BRANCH   1  11
HETATM   11  C   UNL     1       5.851  25.705  54.162  1.00  0.00     0.272 C 
HETATM   12  N   UNL     1       6.951  26.154  54.860  1.00  0.00    -0.355 N 
HETATM   13  H   UNL     1       7.356  27.022  54.512  1.00  0.00     0.162 HD
HETATM   14  O   UNL     1       5.100  24.825  54.574  1.00  0.00    -0.266 OA
BRANCH  12  15
HETATM   15  C   UNL     1       7.192  25.727  56.222  1.00  0.00     0.127 C 
BRANCH  15  16
HETATM   16  C   UNL     1       8.526  25.003  56.403  1.00  0.00     0.060 C 
BRANCH  16  17
HETATM   17  C   UNL     1       8.409  23.515  56.281  1.00  0.00    -0.029 A 
HETATM   18  C   UNL     1       8.253  22.755  55.078  1.00  0.00    -0.002 A 
HETATM   19  C   UNL     1       8.166  23.086  53.710  1.00  0.00     0.014 A 
HETATM   20  C   UNL     1       8.179  21.409  55.441  1.00  0.00     0.042 A 
HETATM   21  C   UNL     1       8.009  22.067  52.763  1.00  0.00     0.001 A 
HETATM   22  C   UNL     1       7.938  20.734  53.159  1.00  0.00     0.002 A 
HETATM   23  C   UNL     1       8.022  20.378  54.507  1.00  0.00     0.030 A 
HETATM   24  N   UNL     1       8.289  21.352  56.810  1.00  0.00    -0.365 N 
HETATM   25  H   UNL     1       8.271  20.498  57.350  1.00  0.00     0.165 HD
HETATM   26  C   UNL     1       8.424  22.611  57.328  1.00  0.00     0.096 A 
ENDBRANCH  16  17
ENDBRANCH  15  16
ENDBRANCH  12  15
ENDBRANCH   1  11
BRANCH   8  27
HETATM   27  C   UNL     1       3.605  29.723  51.255  1.00  0.00     0.409 C 
HETATM   28  F   UNL     1       3.154  30.631  50.360  1.00  0.00    -0.169 F 
HETATM   29  F   UNL     1       2.743  28.674  51.190  1.00  0.00    -0.169 F 
HETATM   30  F   UNL     1       3.477  30.263  52.480  1.00  0.00    -0.169 F 
ENDBRANCH   8  27
BRANCH   6  31
HETATM   31  C   UNL     1       3.552  28.020  48.091  1.00  0.00    -0.033 A 
HETATM   32  C   UNL     1       3.079  29.138  47.375  1.00  0.00     0.049 A 
HETATM   33  C   UNL     1       1.805  29.095  46.846  1.00  0.00     0.105 A 
HETATM   34  C   UNL     1       0.988  28.003  47.008  1.00  0.00     0.105 A 
HETATM   35  O   UNL     1       1.216  30.079  46.116  1.00  0.00    -0.323 OA
HETATM   36  O   UNL     1      -0.220  28.162  46.407  1.00  0.00    -0.323 OA
HETATM   37  C   UNL     1       1.402  26.893  47.707  1.00  0.00     0.040 A 
HETATM   38  C   UNL     1      -0.062  29.474  45.827  1.00  0.00     0.352 A 
HETATM   39  C   UNL     1       2.695  26.903  48.242  1.00  0.00     0.012 A 
ENDBRANCH   6  31
TORSDOF 6
ENDMDL
MODEL 4
REMARK VINA RESULT:     -10.7      3.247     11.353
REMARK  6 active torsions:
REMARK  status: ('A' for Active; 'I' for Inactive)
REMARK    1  A    between atoms: C_8  and  C_9 
REMARK    2  A    between atoms: C_9  and  C_10 
REMARK    3  A    between atoms: C_10  and  N_11 
REMARK       I    between atoms: N_11  and  C_12 
REMARK    4  A    between atoms: C_12  and  C_13 
REMARK    5  A    between atoms: C_18  and  C_19 
REMARK    6  A    between atoms: C_29  and  C_30 
ROOT
HETATM    1  C   UNL     1       7.578  29.107  58.192  1.00  0.00     0.148 A 
HETATM    2  N   UNL     1       8.537  29.460  59.077  1.00  0.00    -0.165 NA
HETATM    3  N   UNL     1       8.130  30.663  59.523  1.00  0.00    -0.240 N 
HETATM    4  C   UNL     1       6.978  31.109  58.938  1.00  0.00     0.123 A 
HETATM    5  N   UNL     1       6.448  32.314  59.230  1.00  0.00    -0.366 N 
HETATM    6  C   UNL     1       7.008  33.189  60.250  1.00  0.00     0.118 C 
HETATM    7  C   UNL     1       8.510  32.914  60.450  1.00  0.00     0.066 C 
HETATM    8  C   UNL     1       8.905  31.424  60.482  1.00  0.00     0.221 C 
HETATM    9  C   UNL     1       6.585  30.118  58.080  1.00  0.00     0.088 A 
HETATM   10  H   UNL     1       5.528  32.579  58.883  1.00  0.00     0.161 HD
ENDROOT
BRANCH   1  11
HETATM   11  C   UNL     1       7.601  27.833  57.458  1.00  0.00     0.272 C 
HETATM   12  N   UNL     1       6.512  27.639  56.636  1.00  0.00    -0.355 N 
HETATM   13  H   UNL     1       5.936  28.466  56.484  1.00  0.00     0.162 HD
HETATM   14  O   UNL     1       8.524  27.029  57.559  1.00  0.00    -0.266 OA
BRANCH  12  15
HETATM   15  C   UNL     1       6.475  26.539  55.696  1.00  0.00     0.127 C 
BRANCH  15  16
HETATM   16  C   UNL     1       7.544  26.635  54.607  1.00  0.00     0.060 C 
BRANCH  16  17
HETATM   17  C   UNL     1       7.619  25.410  53.748  1.00  0.00    -0.029 A 
HETATM   18  C   UNL     1       7.721  24.051  54.185  1.00  0.00    -0.002 A 
HETATM   19  C   UNL     1       7.778  23.425  55.447  1.00  0.00     0.014 A 
HETATM   20  C   UNL     1       7.770  23.248  53.044  1.00  0.00     0.042 A 
HETATM   21  C   UNL     1       7.882  22.031  55.522  1.00  0.00     0.001 A 
HETATM   22  C   UNL     1       7.929  21.260  54.364  1.00  0.00     0.002 A 
HETATM   23  C   UNL     1       7.874  21.853  53.101  1.00  0.00     0.030 A 
HETATM   24  N   UNL     1       7.697  24.085  51.956  1.00  0.00    -0.365 N 
HETATM   25  H   UNL     1       7.708  23.775  50.995  1.00  0.00     0.165 HD
HETATM   26  C   UNL     1       7.610  25.388  52.365  1.00  0.00     0.096 A 
ENDBRANCH  16  17
ENDBRANCH  15  16
ENDBRANCH  12  15
ENDBRANCH   1  11
BRANCH   8  27
HETATM   27  C   UNL     1       8.816  30.800  61.856  1.00  0.00     0.409 C 
HETATM   28  F   UNL     1       9.126  31.682  62.835  1.00  0.00    -0.169 F 
HETATM   29  F   UNL     1       7.540  30.402  62.103  1.00  0.00    -0.169 F 
HETATM   30  F   UNL     1       9.604  29.722  62.017  1.00  0.00    -0.169 F 
ENDBRANCH   8  27
BRANCH   6  31
HETATM   31  C   UNL     1       6.175  33.214  61.520  1.00  0.00    -0.033 A 
HETATM   32  C   UNL     1       6.753  33.727  62.698  1.00  0.00     0.049 A 
HETATM   33  C   UNL     1       5.982  33.790  63.842  1.00  0.00     0.105 A 
HETATM   34  C   UNL     1       4.679  33.359  63.863  1.00  0.00     0.105 A 
HETATM   35  O   UNL     1       6.387  34.276  65.045  1.00  0.00    -0.323 OA
HETATM   36  O   UNL     1       4.099  33.513  65.082  1.00  0.00    -0.323 OA
HETATM   37  C   UNL     1       4.074  32.843  62.740  1.00  0.00     0.040 A 
HETATM   38  C   UNL     1       5.182  34.112  65.822  1.00  0.00     0.352 A 
HETATM   39  C   UNL     1       4.828  32.780  61.562  1.00  0.00     0.012 A 
ENDBRANCH   6  31
TORSDOF 6
ENDMDL
MODEL 5
REMARK VINA RESULT:     -10.6      2.246      3.203
REMARK  6 active torsions:
REMARK  status: ('A' for Active; 'I' for Inactive)
REMARK    1  A    between atoms: C_8  and  C_9 
REMARK    2  A    between atoms: C_9  and  C_10 
REMARK    3  A    between atoms: C_10  and  N_11 
REMARK       I    between atoms: N_11  and  C_12 
REMARK    4  A    between atoms: C_12  and  C_13 
REMARK    5  A    between atoms: C_18  and  C_19 
REMARK    6  A    between atoms: C_29  and  C_30 
ROOT
HETATM    1  C   UNL     1       5.420  28.501  55.559  1.00  0.00     0.148 A 
HETATM    2  N   UNL     1       4.804  27.910  54.511  1.00  0.00    -0.165 NA
HETATM    3  N   UNL     1       5.760  27.120  53.987  1.00  0.00    -0.240 N 
HETATM    4  C   UNL     1       6.963  27.208  54.628  1.00  0.00     0.123 A 
HETATM    5  N   UNL     1       8.047  26.521  54.213  1.00  0.00    -0.366 N 
HETATM    6  C   UNL     1       7.996  25.572  53.110  1.00  0.00     0.118 C 
HETATM    7  C   UNL     1       6.853  25.914  52.137  1.00  0.00     0.066 C 
HETATM    8  C   UNL     1       5.522  26.316  52.804  1.00  0.00     0.221 C 
HETATM    9  C   UNL     1       6.775  28.084  55.662  1.00  0.00     0.088 A 
HETATM   10  H   UNL     1       8.899  26.499  54.770  1.00  0.00     0.161 HD
ENDROOT
BRANCH   1  11
HETATM   11  C   UNL     1       4.738  29.453  56.451  1.00  0.00     0.272 C 
HETATM   12  N   UNL     1       5.520  29.906  57.491  1.00  0.00    -0.355 N 
HETATM   13  H   UNL     1       6.512  29.691  57.407  1.00  0.00     0.162 HD
HETATM   14  O   UNL     1       3.582  29.821  56.264  1.00  0.00    -0.266 OA
BRANCH  12  15
HETATM   15  C   UNL     1       5.075  30.992  58.337  1.00  0.00     0.127 C 
BRANCH  15  16
HETATM   16  C   UNL     1       6.162  32.032  58.612  1.00  0.00     0.060 C 
BRANCH  16  17
HETATM   17  C   UNL     1       7.017  31.691  59.794  1.00  0.00    -0.029 A 
HETATM   18  C   UNL     1       7.016  32.329  61.076  1.00  0.00    -0.002 A 
HETATM   19  C   UNL     1       6.288  33.394  61.644  1.00  0.00     0.014 A 
HETATM   20  C   UNL     1       7.976  31.688  61.861  1.00  0.00     0.042 A 
HETATM   21  C   UNL     1       6.545  33.778  62.965  1.00  0.00     0.001 A 
HETATM   22  C   UNL     1       7.510  33.119  63.721  1.00  0.00     0.002 A 
HETATM   23  C   UNL     1       8.246  32.060  63.184  1.00  0.00     0.030 A 
HETATM   24  N   UNL     1       8.536  30.699  61.089  1.00  0.00    -0.365 N 
HETATM   25  H   UNL     1       9.262  30.070  61.404  1.00  0.00     0.165 HD
HETATM   26  C   UNL     1       7.971  30.692  59.843  1.00  0.00     0.096 A 
ENDBRANCH  16  17
ENDBRANCH  15  16
ENDBRANCH  12  15
ENDBRANCH   1  11
BRANCH   8  27
HETATM   27  C   UNL     1       4.624  25.145  53.126  1.00  0.00     0.409 C 
HETATM   28  F   UNL     1       4.694  24.177  52.182  1.00  0.00    -0.169 F 
HETATM   29  F   UNL     1       5.020  24.562  54.289  1.00  0.00    -0.169 F 
HETATM   30  F   UNL     1       3.328  25.475  53.272  1.00  0.00    -0.169 F 
ENDBRANCH   8  27
BRANCH   6  31
HETATM   31  C   UNL     1       8.040  24.127  53.581  1.00  0.00    -0.033 A 
HETATM   32  C   UNL     1       8.248  23.868  54.950  1.00  0.00     0.049 A 
HETATM   33  C   UNL     1       8.246  22.558  55.385  1.00  0.00     0.105 A 
HETATM   34  C   UNL     1       8.058  21.508  54.521  1.00  0.00     0.105 A 
HETATM   35  O   UNL     1       8.410  22.148  56.671  1.00  0.00    -0.323 OA
HETATM   36  O   UNL     1       8.086  20.304  55.150  1.00  0.00    -0.323 OA
HETATM   37  C   UNL     1       7.860  21.710  53.175  1.00  0.00     0.040 A 
HETATM   38  C   UNL     1       8.291  20.719  56.516  1.00  0.00     0.352 A 
HETATM   39  C   UNL     1       7.844  23.030  52.708  1.00  0.00     0.012 A 
ENDBRANCH   6  31
TORSDOF 6
ENDMDL
MODEL 6
REMARK VINA RESULT:     -10.6      6.285     10.131
REMARK  6 active torsions:
REMARK  status: ('A' for Active; 'I' for Inactive)
REMARK    1  A    between atoms: C_8  and  C_9 
REMARK    2  A    between atoms: C_9  and  C_10 
REMARK    3  A    between atoms: C_10  and  N_11 
REMARK       I    between atoms: N_11  and  C_12 
REMARK    4  A    between atoms: C_12  and  C_13 
REMARK    5  A    between atoms: C_18  and  C_19 
REMARK    6  A    between atoms: C_29  and  C_30 
ROOT
HETATM    1  C   UNL     1       5.455  28.980  51.206  1.00  0.00     0.148 A 
HETATM    2  N   UNL     1       6.009  29.188  52.422  1.00  0.00    -0.165 NA
HETATM    3  N   UNL     1       5.790  28.029  53.071  1.00  0.00    -0.240 N 
HETATM    4  C   UNL     1       5.094  27.108  52.341  1.00  0.00     0.123 A 
HETATM    5  N   UNL     1       4.747  25.907  52.848  1.00  0.00    -0.366 N 
HETATM    6  C   UNL     1       5.161  25.468  54.172  1.00  0.00     0.118 C 
HETATM    7  C   UNL     1       5.430  26.671  55.095  1.00  0.00     0.066 C 
HETATM    8  C   UNL     1       6.206  27.835  54.446  1.00  0.00     0.221 C 
HETATM    9  C   UNL     1       4.872  27.686  51.120  1.00  0.00     0.088 A 
HETATM   10  H   UNL     1       4.339  25.187  52.255  1.00  0.00     0.161 HD
ENDROOT
BRANCH   1  11
HETATM   11  C   UNL     1       5.473  29.993  50.139  1.00  0.00     0.272 C 
HETATM   12  N   UNL     1       4.238  30.240  49.580  1.00  0.00    -0.355 N 
HETATM   13  H   UNL     1       3.448  29.851  50.093  1.00  0.00     0.162 HD
HETATM   14  O   UNL     1       6.498  30.577  49.799  1.00  0.00    -0.266 OA
BRANCH  12  15
HETATM   15  C   UNL     1       4.043  31.344  48.665  1.00  0.00     0.127 C 
BRANCH  15  16
HETATM   16  C   UNL     1       3.862  30.903  47.212  1.00  0.00     0.060 C 
BRANCH  16  17
HETATM   17  C   UNL     1       2.909  29.758  47.060  1.00  0.00    -0.029 A 
HETATM   18  C   UNL     1       3.198  28.364  47.217  1.00  0.00    -0.002 A 
HETATM   19  C   UNL     1       4.357  27.631  47.542  1.00  0.00     0.014 A 
HETATM   20  C   UNL     1       2.015  27.663  46.974  1.00  0.00     0.042 A 
HETATM   21  C   UNL     1       4.293  26.234  47.612  1.00  0.00     0.001 A 
HETATM   22  C   UNL     1       3.097  25.565  47.363  1.00  0.00     0.002 A 
HETATM   23  C   UNL     1       1.933  26.267  47.040  1.00  0.00     0.030 A 
HETATM   24  N   UNL     1       1.045  28.593  46.685  1.00  0.00    -0.365 N 
HETATM   25  H   UNL     1       0.084  28.368  46.470  1.00  0.00     0.165 HD
HETATM   26  C   UNL     1       1.570  29.855  46.729  1.00  0.00     0.096 A 
ENDBRANCH  16  17
ENDBRANCH  15  16
ENDBRANCH  12  15
ENDBRANCH   1  11
BRANCH   8  27
HETATM   27  C   UNL     1       7.708  27.690  54.536  1.00  0.00     0.409 C 
HETATM   28  F   UNL     1       8.082  26.921  55.584  1.00  0.00    -0.169 F 
HETATM   29  F   UNL     1       8.180  27.065  53.425  1.00  0.00    -0.169 F 
HETATM   30  F   UNL     1       8.363  28.860  54.638  1.00  0.00    -0.169 F 
ENDBRANCH   8  27
BRANCH   6  31
HETATM   31  C   UNL     1       6.265  24.425  54.122  1.00  0.00    -0.033 A 
HETATM   32  C   UNL     1       6.699  23.841  55.329  1.00  0.00     0.049 A 
HETATM   33  C   UNL     1       7.671  22.862  55.279  1.00  0.00     0.105 A 
HETATM   34  C   UNL     1       8.229  22.454  54.093  1.00  0.00     0.105 A 
HETATM   35  O   UNL     1       8.177  22.192  56.349  1.00  0.00    -0.323 OA
HETATM   36  O   UNL     1       9.161  21.479  54.265  1.00  0.00    -0.323 OA
HETATM   37  C   UNL     1       7.844  23.000  52.891  1.00  0.00     0.040 A 
HETATM   38  C   UNL     1       9.109  21.305  55.695  1.00  0.00     0.352 A 
HETATM   39  C   UNL     1       6.850  23.985  52.910  1.00  0.00     0.012 A 
ENDBRANCH   6  31
TORSDOF 6
ENDMDL
MODEL 7
REMARK VINA RESULT:     -10.5      2.379      2.995
REMARK  6 active torsions:
REMARK  status: ('A' for Active; 'I' for Inactive)
REMARK    1  A    between atoms: C_8  and  C_9 
REMARK    2  A    between atoms: C_9  and  C_10 
REMARK    3  A    between atoms: C_10  and  N_11 
REMARK       I    between atoms: N_11  and  C_12 
REMARK    4  A    between atoms: C_12  and  C_13 
REMARK    5  A    between atoms: C_18  and  C_19 
REMARK    6  A    between atoms: C_29  and  C_30 
ROOT
HETATM    1  C   UNL     1       4.565  29.745  56.594  1.00  0.00     0.148 A 
HETATM    2  N   UNL     1       4.329  29.442  55.297  1.00  0.00    -0.165 NA
HETATM    3  N   UNL     1       5.403  28.712  54.943  1.00  0.00    -0.240 N 
HETATM    4  C   UNL     1       6.327  28.567  55.939  1.00  0.00     0.123 A 
HETATM    5  N   UNL     1       7.486  27.904  55.748  1.00  0.00    -0.366 N 
HETATM    6  C   UNL     1       7.800  27.220  54.502  1.00  0.00     0.118 C 
HETATM    7  C   UNL     1       7.043  27.851  53.319  1.00  0.00     0.066 C 
HETATM    8  C   UNL     1       5.568  28.202  53.596  1.00  0.00     0.221 C 
HETATM    9  C   UNL     1       5.809  29.212  57.029  1.00  0.00     0.088 A 
HETATM   10  H   UNL     1       8.106  27.697  56.529  1.00  0.00     0.161 HD
ENDROOT
BRANCH   1  11
HETATM   11  C   UNL     1       3.629  30.532  57.411  1.00  0.00     0.272 C 
HETATM   12  N   UNL     1       3.862  30.450  58.766  1.00  0.00    -0.355 N 
HETATM   13  H   UNL     1       4.752  30.027  59.025  1.00  0.00     0.162 HD
HETATM   14  O   UNL     1       2.736  31.217  56.918  1.00  0.00    -0.266 OA
BRANCH  12  15
HETATM   15  C   UNL     1       3.166  31.315  59.695  1.00  0.00     0.127 C 
BRANCH  15  16
HETATM   16  C   UNL     1       3.891  32.636  59.953  1.00  0.00     0.060 C 
BRANCH  16  17
HETATM   17  C   UNL     1       4.485  32.722  61.325  1.00  0.00    -0.029 A 
HETATM   18  C   UNL     1       5.861  32.555  61.685  1.00  0.00    -0.002 A 
HETATM   19  C   UNL     1       7.040  32.282  60.961  1.00  0.00     0.014 A 
HETATM   20  C   UNL     1       5.954  32.712  63.069  1.00  0.00     0.042 A 
HETATM   21  C   UNL     1       8.259  32.176  61.642  1.00  0.00     0.001 A 
HETATM   22  C   UNL     1       8.316  32.339  63.024  1.00  0.00     0.002 A 
HETATM   23  C   UNL     1       7.164  32.610  63.766  1.00  0.00     0.030 A 
HETATM   24  N   UNL     1       4.685  32.969  63.533  1.00  0.00    -0.365 N 
HETATM   25  H   UNL     1       4.453  33.128  64.503  1.00  0.00     0.165 HD
HETATM   26  C   UNL     1       3.793  32.973  62.496  1.00  0.00     0.096 A 
ENDBRANCH  16  17
ENDBRANCH  15  16
ENDBRANCH  12  15
ENDBRANCH   1  11
BRANCH   8  27
HETATM   27  C   UNL     1       4.611  27.061  53.335  1.00  0.00     0.409 C 
HETATM   28  F   UNL     1       4.977  26.328  52.259  1.00  0.00    -0.169 F 
HETATM   29  F   UNL     1       4.613  26.204  54.390  1.00  0.00    -0.169 F 
HETATM   30  F   UNL     1       3.338  27.450  53.146  1.00  0.00    -0.169 F 
ENDBRANCH   8  27
BRANCH   6  31
HETATM   31  C   UNL     1       7.683  25.709  54.619  1.00  0.00    -0.033 A 
HETATM   32  C   UNL     1       7.871  24.925  53.464  1.00  0.00     0.049 A 
HETATM   33  C   UNL     1       7.808  23.550  53.579  1.00  0.00     0.105 A 
HETATM   34  C   UNL     1       7.558  22.934  54.780  1.00  0.00     0.105 A 
HETATM   35  O   UNL     1       7.987  22.660  52.567  1.00  0.00    -0.323 OA
HETATM   36  O   UNL     1       7.543  21.579  54.677  1.00  0.00    -0.323 OA
HETATM   37  C   UNL     1       7.360  23.658  55.933  1.00  0.00     0.040 A 
HETATM   38  C   UNL     1       7.834  21.412  53.275  1.00  0.00     0.352 A 
HETATM   39  C   UNL     1       7.432  25.053  55.849  1.00  0.00     0.012 A 
ENDBRANCH   6  31
TORSDOF 6
ENDMDL
MODEL 8
REMARK VINA RESULT:     -10.3      7.386     11.417
REMARK  6 active torsions:
REMARK  status: ('A' for Active; 'I' for Inactive)
REMARK    1  A    between atoms: C_8  and  C_9 
REMARK    2  A    between atoms: C_9  and  C_10 
REMARK    3  A    between atoms: C_10  and  N_11 
REMARK       I    between atoms: N_11  and  C_12 
REMARK    4  A    between atoms: C_12  and  C_13 
REMARK    5  A    between atoms: C_18  and  C_19 
REMARK    6  A    between atoms: C_29  and  C_30 
ROOT
HETATM    1  C   UNL     1       4.766  26.685  51.282  1.00  0.00     0.148 A 
HETATM    2  N   UNL     1       4.392  27.977  51.414  1.00  0.00    -0.165 NA
HETATM    3  N   UNL     1       4.104  28.353  50.153  1.00  0.00    -0.240 N 
HETATM    4  C   UNL     1       4.312  27.375  49.223  1.00  0.00     0.123 A 
HETATM    5  N   UNL     1       4.118  27.589  47.905  1.00  0.00    -0.366 N 
HETATM    6  C   UNL     1       3.592  28.842  47.385  1.00  0.00     0.118 C 
HETATM    7  C   UNL     1       3.897  30.010  48.341  1.00  0.00     0.066 C 
HETATM    8  C   UNL     1       3.685  29.705  49.837  1.00  0.00     0.221 C 
HETATM    9  C   UNL     1       4.727  26.274  49.921  1.00  0.00     0.088 A 
HETATM   10  H   UNL     1       4.155  26.819  47.239  1.00  0.00     0.161 HD
ENDROOT
BRANCH   1  11
HETATM   11  C   UNL     1       5.159  25.848  52.426  1.00  0.00     0.272 C 
HETATM   12  N   UNL     1       6.108  26.424  53.242  1.00  0.00    -0.355 N 
HETATM   13  H   UNL     1       6.275  27.415  53.074  1.00  0.00     0.162 HD
HETATM   14  O   UNL     1       4.662  24.746  52.640  1.00  0.00    -0.266 OA
BRANCH  12  15
HETATM   15  C   UNL     1       6.456  25.829  54.514  1.00  0.00     0.127 C 
BRANCH  15  16
HETATM   16  C   UNL     1       7.874  25.257  54.550  1.00  0.00     0.060 C 
BRANCH  16  17
HETATM   17  C   UNL     1       7.937  23.818  54.140  1.00  0.00    -0.029 A 
HETATM   18  C   UNL     1       8.107  22.681  54.993  1.00  0.00    -0.002 A 
HETATM   19  C   UNL     1       8.256  22.509  56.385  1.00  0.00     0.014 A 
HETATM   20  C   UNL     1       8.115  21.546  54.180  1.00  0.00     0.042 A 
HETATM   21  C   UNL     1       8.408  21.220  56.908  1.00  0.00     0.001 A 
HETATM   22  C   UNL     1       8.412  20.109  56.069  1.00  0.00     0.002 A 
HETATM   23  C   UNL     1       8.266  20.249  54.687  1.00  0.00     0.030 A 
HETATM   24  N   UNL     1       7.954  21.975  52.884  1.00  0.00    -0.365 N 
HETATM   25  H   UNL     1       7.919  21.364  52.080  1.00  0.00     0.165 HD
HETATM   26  C   UNL     1       7.850  23.338  52.845  1.00  0.00     0.096 A 
ENDBRANCH  16  17
ENDBRANCH  15  16
ENDBRANCH  12  15
ENDBRANCH   1  11
BRANCH   8  27
HETATM   27  C   UNL     1       2.272  29.952  50.315  1.00  0.00     0.409 C 
HETATM   28  F   UNL     1       2.239  30.402  51.590  1.00  0.00    -0.169 F 
HETATM   29  F   UNL     1       1.691  30.923  49.560  1.00  0.00    -0.169 F 
HETATM   30  F   UNL     1       1.476  28.870  50.246  1.00  0.00    -0.169 F 
ENDBRANCH   8  27
BRANCH   6  31
HETATM   31  C   UNL     1       2.144  28.727  46.938  1.00  0.00    -0.033 A 
HETATM   32  C   UNL     1       1.490  29.880  46.460  1.00  0.00     0.049 A 
HETATM   33  C   UNL     1       0.189  29.766  46.014  1.00  0.00     0.105 A 
HETATM   34  C   UNL     1      -0.484  28.569  46.035  1.00  0.00     0.105 A 
HETATM   35  O   UNL     1      -0.567  30.776  45.506  1.00  0.00    -0.323 OA
HETATM   36  O   UNL     1      -1.748  28.673  45.548  1.00  0.00    -0.323 OA
HETATM   37  C   UNL     1       0.110  27.419  46.500  1.00  0.00     0.040 A 
HETATM   38  C   UNL     1      -1.788  30.071  45.198  1.00  0.00     0.352 A 
HETATM   39  C   UNL     1       1.434  27.501  46.946  1.00  0.00     0.012 A 
ENDBRANCH   6  31
TORSDOF 6
ENDMDL
MODEL 9
REMARK VINA RESULT:     -10.3      6.860     10.478
REMARK  6 active torsions:
REMARK  status: ('A' for Active; 'I' for Inactive)
REMARK    1  A    between atoms: C_8  and  C_9 
REMARK    2  A    between atoms: C_9  and  C_10 
REMARK    3  A    between atoms: C_10  and  N_11 
REMARK       I    between atoms: N_11  and  C_12 
REMARK    4  A    between atoms: C_12  and  C_13 
REMARK    5  A    between atoms: C_18  and  C_19 
REMARK    6  A    between atoms: C_29  and  C_30 
ROOT
HETATM    1  C   UNL     1       5.423  27.586  53.246  1.00  0.00     0.148 A 
HETATM    2  N   UNL     1       5.005  28.834  52.933  1.00  0.00    -0.165 NA
HETATM    3  N   UNL     1       4.941  28.818  51.589  1.00  0.00    -0.240 N 
HETATM    4  C   UNL     1       5.332  27.635  51.030  1.00  0.00     0.123 A 
HETATM    5  N   UNL     1       5.373  27.454  49.694  1.00  0.00    -0.366 N 
HETATM    6  C   UNL     1       4.924  28.470  48.753  1.00  0.00     0.118 C 
HETATM    7  C   UNL     1       5.030  29.878  49.366  1.00  0.00     0.066 C 
HETATM    8  C   UNL     1       4.558  29.992  50.830  1.00  0.00     0.221 C 
HETATM    9  C   UNL     1       5.637  26.807  52.076  1.00  0.00     0.088 A 
HETATM   10  H   UNL     1       5.545  26.533  49.295  1.00  0.00     0.161 HD
ENDROOT
BRANCH   1  11
HETATM   11  C   UNL     1       5.621  27.136  54.632  1.00  0.00     0.272 C 
HETATM   12  N   UNL     1       5.348  25.801  54.833  1.00  0.00    -0.355 N 
HETATM   13  H   UNL     1       5.238  25.252  53.981  1.00  0.00     0.162 HD
HETATM   14  O   UNL     1       6.015  27.887  55.520  1.00  0.00    -0.266 OA
BRANCH  12  15
HETATM   15  C   UNL     1       5.682  25.152  56.083  1.00  0.00     0.127 C 
BRANCH  15  16
HETATM   16  C   UNL     1       7.152  24.746  56.182  1.00  0.00     0.060 C 
BRANCH  16  17
HETATM   17  C   UNL     1       7.617  23.931  55.014  1.00  0.00    -0.029 A 
HETATM   18  C   UNL     1       7.927  22.533  55.002  1.00  0.00    -0.002 A 
HETATM   19  C   UNL     1       7.909  21.513  55.976  1.00  0.00     0.014 A 
HETATM   20  C   UNL     1       8.324  22.205  53.705  1.00  0.00     0.042 A 
HETATM   21  C   UNL     1       8.286  20.213  55.620  1.00  0.00     0.001 A 
HETATM   22  C   UNL     1       8.678  19.919  54.317  1.00  0.00     0.002 A 
HETATM   23  C   UNL     1       8.705  20.910  53.332  1.00  0.00     0.030 A 
HETATM   24  N   UNL     1       8.255  23.355  52.957  1.00  0.00    -0.365 N 
HETATM   25  H   UNL     1       8.485  23.413  51.975  1.00  0.00     0.165 HD
HETATM   26  C   UNL     1       7.835  24.401  53.732  1.00  0.00     0.096 A 
ENDBRANCH  16  17
ENDBRANCH  15  16
ENDBRANCH  12  15
ENDBRANCH   1  11
BRANCH   8  27
HETATM   27  C   UNL     1       3.078  30.263  50.973  1.00  0.00     0.409 C 
HETATM   28  F   UNL     1       2.591  30.985  49.938  1.00  0.00    -0.169 F 
HETATM   29  F   UNL     1       2.390  29.090  50.968  1.00  0.00    -0.169 F 
HETATM   30  F   UNL     1       2.749  30.908  52.107  1.00  0.00    -0.169 F 
ENDBRANCH   8  27
BRANCH   6  31
HETATM   31  C   UNL     1       3.583  28.131  48.124  1.00  0.00    -0.033 A 
HETATM   32  C   UNL     1       2.872  29.148  47.456  1.00  0.00     0.049 A 
HETATM   33  C   UNL     1       1.675  28.830  46.848  1.00  0.00     0.105 A 
HETATM   34  C   UNL     1       1.156  27.559  46.888  1.00  0.00     0.105 A 
HETATM   35  O   UNL     1       0.886  29.690  46.151  1.00  0.00    -0.323 OA
HETATM   36  O   UNL     1      -0.026  27.458  46.225  1.00  0.00    -0.323 OA
HETATM   37  C   UNL     1       1.808  26.536  47.535  1.00  0.00     0.040 A 
HETATM   38  C   UNL     1      -0.182  28.809  45.745  1.00  0.00     0.352 A 
HETATM   39  C   UNL     1       3.032  26.826  48.149  1.00  0.00     0.012 A 
ENDBRANCH   6  31
TORSDOF 6
ENDMDL
MODEL 10
REMARK VINA RESULT:     -10.0      5.012      9.342
REMARK  6 active torsions:
REMARK  status: ('A' for Active; 'I' for Inactive)
REMARK    1  A    between atoms: C_8  and  C_9 
REMARK    2  A    between atoms: C_9  and  C_10 
REMARK    3  A    between atoms: C_10  and  N_11 
REMARK       I    between atoms: N_11  and  C_12 
REMARK    4  A    between atoms: C_12  and  C_13 
REMARK    5  A    between atoms: C_18  and  C_19 
REMARK    6  A    between atoms: C_29  and  C_30 
ROOT
HETATM    1  C   UNL     1       4.533  29.571  53.941  1.00  0.00     0.148 A 
HETATM    2  N   UNL     1       5.572  29.829  54.767  1.00  0.00    -0.165 NA
HETATM    3  N   UNL     1       5.701  28.692  55.476  1.00  0.00    -0.240 N 
HETATM    4  C   UNL     1       4.773  27.738  55.168  1.00  0.00     0.123 A 
HETATM    5  N   UNL     1       4.725  26.553  55.811  1.00  0.00    -0.366 N 
HETATM    6  C   UNL     1       5.706  26.168  56.815  1.00  0.00     0.118 C 
HETATM    7  C   UNL     1       6.333  27.406  57.481  1.00  0.00     0.066 C 
HETATM    8  C   UNL     1       6.700  28.553  56.518  1.00  0.00     0.221 C 
HETATM    9  C   UNL     1       4.008  28.269  54.165  1.00  0.00     0.088 A 
HETATM   10  H   UNL     1       4.112  25.807  55.488  1.00  0.00     0.161 HD
ENDROOT
BRANCH   1  11
HETATM   11  C   UNL     1       4.039  30.543  52.954  1.00  0.00     0.272 C 
HETATM   12  N   UNL     1       3.628  29.978  51.767  1.00  0.00    -0.355 N 
HETATM   13  H   UNL     1       3.529  28.964  51.785  1.00  0.00     0.162 HD
HETATM   14  O   UNL     1       3.980  31.748  53.186  1.00  0.00    -0.266 OA
BRANCH  12  15
HETATM   15  C   UNL     1       2.931  30.763  50.770  1.00  0.00     0.127 C 
BRANCH  15  16
HETATM   16  C   UNL     1       3.637  30.788  49.414  1.00  0.00     0.060 C 
BRANCH  16  17
HETATM   17  C   UNL     1       4.206  29.459  49.023  1.00  0.00    -0.029 A 
HETATM   18  C   UNL     1       3.490  28.324  48.524  1.00  0.00    -0.002 A 
HETATM   19  C   UNL     1       2.134  28.063  48.240  1.00  0.00     0.014 A 
HETATM   20  C   UNL     1       4.422  27.308  48.302  1.00  0.00     0.042 A 
HETATM   21  C   UNL     1       1.761  26.807  47.749  1.00  0.00     0.001 A 
HETATM   22  C   UNL     1       2.716  25.815  47.539  1.00  0.00     0.002 A 
HETATM   23  C   UNL     1       4.066  26.045  47.811  1.00  0.00     0.030 A 
HETATM   24  N   UNL     1       5.655  27.806  48.649  1.00  0.00    -0.365 N 
HETATM   25  H   UNL     1       6.519  27.286  48.587  1.00  0.00     0.165 HD
HETATM   26  C   UNL     1       5.539  29.096  49.088  1.00  0.00     0.096 A 
ENDBRANCH  16  17
ENDBRANCH  15  16
ENDBRANCH  12  15
ENDBRANCH   1  11
BRANCH   8  27
HETATM   27  C   UNL     1       8.082  28.428  55.921  1.00  0.00     0.409 C 
HETATM   28  F   UNL     1       8.935  27.777  56.745  1.00  0.00    -0.169 F 
HETATM   29  F   UNL     1       8.029  27.689  54.780  1.00  0.00    -0.169 F 
HETATM   30  F   UNL     1       8.647  29.606  55.601  1.00  0.00    -0.169 F 
ENDBRANCH   8  27
BRANCH   6  31
HETATM   31  C   UNL     1       6.694  25.134  56.299  1.00  0.00    -0.033 A 
HETATM   32  C   UNL     1       6.449  24.527  55.052  1.00  0.00     0.049 A 
HETATM   33  C   UNL     1       7.368  23.621  54.564  1.00  0.00     0.105 A 
HETATM   34  C   UNL     1       8.502  23.290  55.263  1.00  0.00     0.105 A 
HETATM   35  O   UNL     1       7.285  22.970  53.373  1.00  0.00    -0.323 OA
HETATM   36  O   UNL     1       9.275  22.386  54.606  1.00  0.00    -0.323 OA
HETATM   37  C   UNL     1       8.780  23.849  56.489  1.00  0.00     0.040 A 
HETATM   38  C   UNL     1       8.506  22.201  53.400  1.00  0.00     0.352 A 
HETATM   39  C   UNL     1       7.872  24.783  57.002  1.00  0.00     0.012 A 
ENDBRANCH   6  31
TORSDOF 6
ENDMDL
