MODEL 1
REMARK VINA RESULT:      -9.8      0.000      0.000
REMARK  9 active torsions:
REMARK  status: ('A' for Active; 'I' for Inactive)
REMARK    1  A    between atoms: C_2  and  O_3 
REMARK    2  A    between atoms: O_3  and  C_4 
REMARK    3  A    between atoms: C_5  and  C_6 
REMARK    4  A    between atoms: N_7  and  C_9 
REMARK    5  A    between atoms: C_9  and  C_10 
REMARK       I    between atoms: C_10  and  N_11 
REMARK    6  A    between atoms: N_11  and  C_12 
REMARK    7  A    between atoms: C_20  and  C_21 
REMARK    8  A    between atoms: C_21  and  O_22 
REMARK    9  A    between atoms: C_28  and  O_29 
ROOT
HETATM    1  C   UNL     1       6.634  29.138  57.587  1.00  0.00     0.231 C 
HETATM    2  N   UNL     1       6.102  27.991  56.697  1.00  0.00    -0.054 N 
HETATM    3  H   UNL     1       6.967  27.476  56.467  1.00  0.00     0.281 HD
HETATM    4  C   UNL     1       5.456  28.405  55.408  1.00  0.00     0.239 C 
HETATM    5  C   UNL     1       4.385  29.456  55.640  1.00  0.00     0.066 C 
HETATM    6  C   UNL     1       4.965  30.695  56.327  1.00  0.00     0.065 C 
HETATM    7  C   UNL     1       5.595  30.290  57.672  1.00  0.00     0.055 C 
HETATM    8  C   UNL     1       3.863  31.752  56.537  1.00  0.00     0.038 C 
HETATM    9  C   UNL     1       4.341  32.960  57.346  1.00  0.00     0.003 C 
HETATM   10  C   UNL     1       5.001  32.547  58.657  1.00  0.00     0.001 C 
HETATM   11  C   UNL     1       6.110  31.518  58.446  1.00  0.00     0.010 C 
ENDROOT
BRANCH   2  12
HETATM   12  C   UNL     1       5.269  26.952  57.468  1.00  0.00     0.338 C 
BRANCH  12  13
HETATM   13  C   UNL     1       5.547  25.512  57.020  1.00  0.00     0.248 C 
HETATM   14  N   UNL     1       6.837  25.327  56.566  1.00  0.00    -0.319 N 
HETATM   15  H   UNL     1       7.585  25.908  56.952  1.00  0.00     0.169 HD
HETATM   16  O   UNL     1       4.672  24.660  57.138  1.00  0.00    -0.271 OA
BRANCH  14  17
HETATM   17  C   UNL     1       7.294  24.190  55.913  1.00  0.00     0.094 A 
HETATM   18  S   UNL     1       7.792  22.839  56.809  1.00  0.00    -0.075 SA
HETATM   19  C   UNL     1       8.030  21.921  55.403  1.00  0.00    -0.008 A 
HETATM   20  C   UNL     1       7.740  22.624  54.246  1.00  0.00    -0.026 A 
HETATM   21  C   UNL     1       8.471  20.490  55.466  1.00  0.00     0.047 C 
HETATM   22  C   UNL     1       7.904  21.989  52.890  1.00  0.00     0.041 C 
HETATM   23  C   UNL     1       7.307  23.974  54.540  1.00  0.00     0.080 A 
HETATM   24  C   UNL     1       8.031  20.460  52.971  1.00  0.00     0.005 C 
HETATM   25  C   UNL     1       8.978  20.024  54.095  1.00  0.00     0.005 C 
BRANCH  23  26
HETATM   26  C   UNL     1       6.941  25.042  53.604  1.00  0.00     0.296 C 
HETATM   27  O   UNL     1       7.775  25.588  52.884  1.00  0.00    -0.259 OA
BRANCH  26  28
HETATM   28  O   UNL     1       5.610  25.320  53.588  1.00  0.00    -0.322 OA
HETATM   29  C   UNL     1       4.908  24.822  52.447  1.00  0.00     0.213 C 
ENDBRANCH  26  28
ENDBRANCH  23  26
ENDBRANCH  14  17
ENDBRANCH  12  13
ENDBRANCH   2  12
BRANCH   1  30
HETATM   30  C   UNL     1       8.092  29.507  57.311  1.00  0.00     0.006 A 
HETATM   31  C   UNL     1       8.922  29.942  58.376  1.00  0.00     0.077 A 
HETATM   32  C   UNL     1      10.264  30.264  58.137  1.00  0.00     0.037 A 
HETATM   33  C   UNL     1      10.799  30.171  56.854  1.00  0.00     0.003 A 
HETATM   34  C   UNL     1       9.997  29.765  55.799  1.00  0.00     0.001 A 
HETATM   35  C   UNL     1       8.659  29.439  56.026  1.00  0.00     0.012 A 
BRANCH  31  36
HETATM   36  O   UNL     1       8.318  30.030  59.603  1.00  0.00    -0.351 OA
BRANCH  36  37
HETATM   37  C   UNL     1       9.047  30.540  60.722  1.00  0.00     0.171 C 
HETATM   38  C   UNL     1       8.684  31.988  61.006  1.00  0.00     0.034 C 
ENDBRANCH  36  37
ENDBRANCH  31  36
ENDBRANCH   1  30
BRANCH   6  39
HETATM   39  O   UNL     1       5.946  31.224  55.440  1.00  0.00    -0.389 OA
HETATM   40  H   UNL     1       5.990  32.195  55.528  1.00  0.00     0.210 HD
ENDBRANCH   6  39
TORSDOF 9
ENDMDL
MODEL 2
REMARK VINA RESULT:      -9.3      2.787      8.290
REMARK  9 active torsions:
REMARK  status: ('A' for Active; 'I' for Inactive)
REMARK    1  A    between atoms: C_2  and  O_3 
REMARK    2  A    between atoms: O_3  and  C_4 
REMARK    3  A    between atoms: C_5  and  C_6 
REMARK    4  A    between atoms: N_7  and  C_9 
REMARK    5  A    between atoms: C_9  and  C_10 
REMARK       I    between atoms: C_10  and  N_11 
REMARK    6  A    between atoms: N_11  and  C_12 
REMARK    7  A    between atoms: C_20  and  C_21 
REMARK    8  A    between atoms: C_21  and  O_22 
REMARK    9  A    between atoms: C_28  and  O_29 
ROOT
HETATM    1  C   UNL     1       6.672  27.717  53.586  1.00  0.00     0.231 C 
HETATM    2  N   UNL     1       6.287  28.106  55.032  1.00  0.00    -0.054 N 
HETATM    3  H   UNL     1       6.821  27.421  55.591  1.00  0.00     0.281 HD
HETATM    4  C   UNL     1       4.837  27.959  55.388  1.00  0.00     0.239 C 
HETATM    5  C   UNL     1       3.947  28.663  54.379  1.00  0.00     0.066 C 
HETATM    6  C   UNL     1       4.171  28.116  52.967  1.00  0.00     0.065 C 
HETATM    7  C   UNL     1       5.648  28.299  52.573  1.00  0.00     0.055 C 
HETATM    8  C   UNL     1       3.246  28.835  51.965  1.00  0.00     0.038 C 
HETATM    9  C   UNL     1       3.517  28.439  50.512  1.00  0.00     0.003 C 
HETATM   10  C   UNL     1       4.990  28.584  50.144  1.00  0.00     0.001 C 
HETATM   11  C   UNL     1       5.905  27.850  51.122  1.00  0.00     0.010 C 
ENDROOT
BRANCH   2  12
HETATM   12  C   UNL     1       6.871  29.457  55.481  1.00  0.00     0.338 C 
BRANCH  12  13
HETATM   13  C   UNL     1       6.766  29.681  56.993  1.00  0.00     0.248 C 
HETATM   14  N   UNL     1       6.792  31.015  57.345  1.00  0.00    -0.319 N 
HETATM   15  H   UNL     1       6.424  31.706  56.688  1.00  0.00     0.169 HD
HETATM   16  O   UNL     1       6.621  28.718  57.742  1.00  0.00    -0.271 OA
BRANCH  14  17
HETATM   17  C   UNL     1       6.922  31.492  58.643  1.00  0.00     0.094 A 
HETATM   18  S   UNL     1       5.541  31.872  59.550  1.00  0.00    -0.075 SA
HETATM   19  C   UNL     1       6.467  32.201  60.932  1.00  0.00    -0.008 A 
HETATM   20  C   UNL     1       7.825  32.032  60.723  1.00  0.00    -0.026 A 
HETATM   21  C   UNL     1       5.827  32.593  62.230  1.00  0.00     0.047 C 
HETATM   22  C   UNL     1       8.818  32.292  61.824  1.00  0.00     0.041 C 
HETATM   23  C   UNL     1       8.103  31.616  59.364  1.00  0.00     0.080 A 
HETATM   24  C   UNL     1       8.154  32.367  63.207  1.00  0.00     0.005 C 
HETATM   25  C   UNL     1       6.868  33.201  63.179  1.00  0.00     0.005 C 
BRANCH  23  26
HETATM   26  C   UNL     1       9.403  31.364  58.733  1.00  0.00     0.296 C 
HETATM   27  O   UNL     1      10.216  32.265  58.537  1.00  0.00    -0.259 OA
BRANCH  26  28
HETATM   28  O   UNL     1       9.622  30.053  58.441  1.00  0.00    -0.322 OA
HETATM   29  C   UNL     1      10.440  29.824  57.293  1.00  0.00     0.213 C 
ENDBRANCH  26  28
ENDBRANCH  23  26
ENDBRANCH  14  17
ENDBRANCH  12  13
ENDBRANCH   2  12
BRANCH   1  30
HETATM   30  C   UNL     1       7.082  26.252  53.429  1.00  0.00     0.006 A 
HETATM   31  C   UNL     1       7.575  25.535  54.549  1.00  0.00     0.077 A 
HETATM   32  C   UNL     1       7.935  24.188  54.419  1.00  0.00     0.037 A 
HETATM   33  C   UNL     1       7.822  23.537  53.192  1.00  0.00     0.003 A 
HETATM   34  C   UNL     1       7.359  24.229  52.084  1.00  0.00     0.001 A 
HETATM   35  C   UNL     1       6.995  25.571  52.201  1.00  0.00     0.012 A 
BRANCH  31  36
HETATM   36  O   UNL     1       7.678  26.249  55.714  1.00  0.00    -0.351 OA
BRANCH  36  37
HETATM   37  C   UNL     1       7.561  25.581  56.973  1.00  0.00     0.171 C 
HETATM   38  C   UNL     1       6.116  25.225  57.278  1.00  0.00     0.034 C 
ENDBRANCH  36  37
ENDBRANCH  31  36
ENDBRANCH   1  30
BRANCH   6  39
HETATM   39  O   UNL     1       3.819  26.737  53.009  1.00  0.00    -0.389 OA
HETATM   40  H   UNL     1       4.429  26.217  52.453  1.00  0.00     0.210 HD
ENDBRANCH   6  39
TORSDOF 9
ENDMDL
MODEL 3
REMARK VINA RESULT:      -8.9      2.640      8.374
REMARK  9 active torsions:
REMARK  status: ('A' for Active; 'I' for Inactive)
REMARK    1  A    between atoms: C_2  and  O_3 
REMARK    2  A    between atoms: O_3  and  C_4 
REMARK    3  A    between atoms: C_5  and  C_6 
REMARK    4  A    between atoms: N_7  and  C_9 
REMARK    5  A    between atoms: C_9  and  C_10 
REMARK       I    between atoms: C_10  and  N_11 
REMARK    6  A    between atoms: N_11  and  C_12 
REMARK    7  A    between atoms: C_20  and  C_21 
REMARK    8  A    between atoms: C_21  and  O_22 
REMARK    9  A    between atoms: C_28  and  O_29 
ROOT
HETATM    1  C   UNL     1       7.172  27.400  53.886  1.00  0.00     0.231 C 
HETATM    2  N   UNL     1       7.029  27.691  55.397  1.00  0.00    -0.054 N 
HETATM    3  H   UNL     1       7.560  26.912  55.820  1.00  0.00     0.281 HD
HETATM    4  C   UNL     1       5.634  27.647  55.946  1.00  0.00     0.239 C 
HETATM    5  C   UNL     1       4.694  28.520  55.132  1.00  0.00     0.066 C 
HETATM    6  C   UNL     1       4.666  28.083  53.665  1.00  0.00     0.065 C 
HETATM    7  C   UNL     1       6.087  28.164  53.078  1.00  0.00     0.055 C 
HETATM    8  C   UNL     1       3.694  28.973  52.864  1.00  0.00     0.038 C 
HETATM    9  C   UNL     1       3.723  28.686  51.361  1.00  0.00     0.003 C 
HETATM   10  C   UNL     1       5.139  28.726  50.797  1.00  0.00     0.001 C 
HETATM   11  C   UNL     1       6.096  27.824  51.575  1.00  0.00     0.010 C 
ENDROOT
BRANCH   2  12
HETATM   12  C   UNL     1       7.807  28.936  55.859  1.00  0.00     0.338 C 
BRANCH  12  13
HETATM   13  C   UNL     1       7.699  29.182  57.368  1.00  0.00     0.248 C 
HETATM   14  N   UNL     1       7.233  30.444  57.678  1.00  0.00    -0.319 N 
HETATM   15  H   UNL     1       6.598  30.909  57.026  1.00  0.00     0.169 HD
HETATM   16  O   UNL     1       7.969  28.277  58.153  1.00  0.00    -0.271 OA
BRANCH  14  17
HETATM   17  C   UNL     1       7.236  31.002  58.950  1.00  0.00     0.094 A 
HETATM   18  S   UNL     1       8.535  30.713  60.000  1.00  0.00    -0.075 SA
HETATM   19  C   UNL     1       7.902  31.769  61.167  1.00  0.00    -0.008 A 
HETATM   20  C   UNL     1       6.706  32.345  60.778  1.00  0.00    -0.026 A 
HETATM   21  C   UNL     1       8.626  32.043  62.451  1.00  0.00     0.047 C 
HETATM   22  C   UNL     1       5.974  33.301  61.684  1.00  0.00     0.041 C 
HETATM   23  C   UNL     1       6.301  31.891  59.464  1.00  0.00     0.080 A 
HETATM   24  C   UNL     1       6.861  33.822  62.824  1.00  0.00     0.005 C 
HETATM   25  C   UNL     1       7.684  32.699  63.468  1.00  0.00     0.005 C 
BRANCH  23  26
HETATM   26  C   UNL     1       5.089  32.233  58.712  1.00  0.00     0.296 C 
HETATM   27  O   UNL     1       3.973  31.874  59.079  1.00  0.00    -0.259 OA
BRANCH  26  28
HETATM   28  O   UNL     1       5.328  33.008  57.620  1.00  0.00    -0.322 OA
HETATM   29  C   UNL     1       4.611  34.245  57.595  1.00  0.00     0.213 C 
ENDBRANCH  26  28
ENDBRANCH  23  26
ENDBRANCH  14  17
ENDBRANCH  12  13
ENDBRANCH   2  12
BRANCH   1  30
HETATM   30  C   UNL     1       7.401  25.923  53.560  1.00  0.00     0.006 A 
HETATM   31  C   UNL     1       7.612  24.995  54.611  1.00  0.00     0.077 A 
HETATM   32  C   UNL     1       7.805  23.638  54.325  1.00  0.00     0.037 A 
HETATM   33  C   UNL     1       7.799  23.182  53.008  1.00  0.00     0.003 A 
HETATM   34  C   UNL     1       7.611  24.079  51.968  1.00  0.00     0.001 A 
HETATM   35  C   UNL     1       7.416  25.434  52.242  1.00  0.00     0.012 A 
BRANCH  31  36
HETATM   36  O   UNL     1       7.628  25.522  55.876  1.00  0.00    -0.351 OA
BRANCH  36  37
HETATM   37  C   UNL     1       7.675  24.653  57.011  1.00  0.00     0.171 C 
HETATM   38  C   UNL     1       9.088  24.535  57.559  1.00  0.00     0.034 C 
ENDBRANCH  36  37
ENDBRANCH  31  36
ENDBRANCH   1  30
BRANCH   6  39
HETATM   39  O   UNL     1       4.180  26.745  53.652  1.00  0.00    -0.389 OA
HETATM   40  H   UNL     1       4.005  26.460  52.736  1.00  0.00     0.210 HD
ENDBRANCH   6  39
TORSDOF 9
ENDMDL
MODEL 4
REMARK VINA RESULT:      -8.9      4.035      7.286
REMARK  9 active torsions:
REMARK  status: ('A' for Active; 'I' for Inactive)
REMARK    1  A    between atoms: C_2  and  O_3 
REMARK    2  A    between atoms: O_3  and  C_4 
REMARK    3  A    between atoms: C_5  and  C_6 
REMARK    4  A    between atoms: N_7  and  C_9 
REMARK    5  A    between atoms: C_9  and  C_10 
REMARK       I    between atoms: C_10  and  N_11 
REMARK    6  A    between atoms: N_11  and  C_12 
REMARK    7  A    between atoms: C_20  and  C_21 
REMARK    8  A    between atoms: C_21  and  O_22 
REMARK    9  A    between atoms: C_28  and  O_29 
ROOT
HETATM    1  C   UNL     1       4.194  28.646  50.576  1.00  0.00     0.231 C 
HETATM    2  N   UNL     1       4.203  27.836  51.893  1.00  0.00    -0.054 N 
HETATM    3  H   UNL     1       3.763  26.947  51.604  1.00  0.00     0.281 HD
HETATM    4  C   UNL     1       3.393  28.405  53.020  1.00  0.00     0.239 C 
HETATM    5  C   UNL     1       3.745  29.860  53.274  1.00  0.00     0.066 C 
HETATM    6  C   UNL     1       3.521  30.710  52.020  1.00  0.00     0.065 C 
HETATM    7  C   UNL     1       4.380  30.161  50.866  1.00  0.00     0.055 C 
HETATM    8  C   UNL     1       3.871  32.183  52.307  1.00  0.00     0.038 C 
HETATM    9  C   UNL     1       3.806  33.066  51.059  1.00  0.00     0.003 C 
HETATM   10  C   UNL     1       4.626  32.493  49.908  1.00  0.00     0.001 C 
HETATM   11  C   UNL     1       4.261  31.040  49.607  1.00  0.00     0.010 C 
ENDROOT
BRANCH   2  12
HETATM   12  C   UNL     1       5.611  27.403  52.338  1.00  0.00     0.338 C 
BRANCH  12  13
HETATM   13  C   UNL     1       5.655  25.964  52.867  1.00  0.00     0.248 C 
HETATM   14  N   UNL     1       6.801  25.687  53.584  1.00  0.00    -0.319 N 
HETATM   15  H   UNL     1       7.261  26.445  54.092  1.00  0.00     0.169 HD
HETATM   16  O   UNL     1       4.701  25.216  52.674  1.00  0.00    -0.271 OA
BRANCH  14  17
HETATM   17  C   UNL     1       7.195  24.420  53.994  1.00  0.00     0.094 A 
HETATM   18  S   UNL     1       7.719  23.282  52.850  1.00  0.00    -0.075 SA
HETATM   19  C   UNL     1       8.122  22.165  54.060  1.00  0.00    -0.008 A 
HETATM   20  C   UNL     1       7.863  22.636  55.336  1.00  0.00    -0.026 A 
HETATM   21  C   UNL     1       8.730  20.836  53.729  1.00  0.00     0.047 C 
HETATM   22  C   UNL     1       8.137  21.785  56.547  1.00  0.00     0.041 C 
HETATM   23  C   UNL     1       7.307  23.972  55.304  1.00  0.00     0.080 A 
HETATM   24  C   UNL     1       9.046  20.588  56.230  1.00  0.00     0.005 C 
HETATM   25  C   UNL     1       8.635  19.887  54.930  1.00  0.00     0.005 C 
BRANCH  23  26
HETATM   26  C   UNL     1       6.868  24.807  56.427  1.00  0.00     0.296 C 
HETATM   27  O   UNL     1       7.658  25.239  57.264  1.00  0.00    -0.259 OA
BRANCH  26  28
HETATM   28  O   UNL     1       5.535  25.080  56.414  1.00  0.00    -0.322 OA
HETATM   29  C   UNL     1       5.200  26.440  56.697  1.00  0.00     0.213 C 
ENDBRANCH  26  28
ENDBRANCH  23  26
ENDBRANCH  14  17
ENDBRANCH  12  13
ENDBRANCH   2  12
BRANCH   1  30
HETATM   30  C   UNL     1       3.088  28.233  49.604  1.00  0.00     0.006 A 
HETATM   31  C   UNL     1       3.305  27.155  48.708  1.00  0.00     0.077 A 
HETATM   32  C   UNL     1       2.291  26.757  47.827  1.00  0.00     0.037 A 
HETATM   33  C   UNL     1       1.064  27.415  47.813  1.00  0.00     0.003 A 
HETATM   34  C   UNL     1       0.842  28.482  48.670  1.00  0.00     0.001 A 
HETATM   35  C   UNL     1       1.844  28.886  49.554  1.00  0.00     0.012 A 
BRANCH  31  36
HETATM   36  O   UNL     1       4.545  26.574  48.766  1.00  0.00    -0.351 OA
BRANCH  36  37
HETATM   37  C   UNL     1       5.399  26.601  47.620  1.00  0.00     0.171 C 
HETATM   38  C   UNL     1       5.681  28.026  47.173  1.00  0.00     0.034 C 
ENDBRANCH  36  37
ENDBRANCH  31  36
ENDBRANCH   1  30
BRANCH   6  39
HETATM   39  O   UNL     1       2.133  30.618  51.715  1.00  0.00    -0.389 OA
HETATM   40  H   UNL     1       1.652  31.368  52.113  1.00  0.00     0.210 HD
ENDBRANCH   6  39
TORSDOF 9
ENDMDL
MODEL 5
REMARK VINA RESULT:      -8.4      4.183      7.210
REMARK  9 active torsions:
REMARK  status: ('A' for Active; 'I' for Inactive)
REMARK    1  A    between atoms: C_2  and  O_3 
REMARK    2  A    between atoms: O_3  and  C_4 
REMARK    3  A    between atoms: C_5  and  C_6 
REMARK    4  A    between atoms: N_7  and  C_9 
REMARK    5  A    between atoms: C_9  and  C_10 
REMARK       I    between atoms: C_10  and  N_11 
REMARK    6  A    between atoms: N_11  and  C_12 
REMARK    7  A    between atoms: C_20  and  C_21 
REMARK    8  A    between atoms: C_21  and  O_22 
REMARK    9  A    between atoms: C_28  and  O_29 
ROOT
HETATM    1  C   UNL     1       4.074  28.887  50.984  1.00  0.00     0.231 C 
HETATM    2  N   UNL     1       5.057  28.154  51.926  1.00  0.00    -0.054 N 
HETATM    3  H   UNL     1       5.644  28.929  52.274  1.00  0.00     0.281 HD
HETATM    4  C   UNL     1       5.962  27.148  51.278  1.00  0.00     0.239 C 
HETATM    5  C   UNL     1       5.174  26.159  50.436  1.00  0.00     0.066 C 
HETATM    6  C   UNL     1       4.367  26.877  49.350  1.00  0.00     0.065 C 
HETATM    7  C   UNL     1       3.404  27.883  50.006  1.00  0.00     0.055 C 
HETATM    8  C   UNL     1       3.590  25.852  48.501  1.00  0.00     0.038 C 
HETATM    9  C   UNL     1       2.651  26.508  47.486  1.00  0.00     0.003 C 
HETATM   10  C   UNL     1       1.730  27.534  48.138  1.00  0.00     0.001 C 
HETATM   11  C   UNL     1       2.503  28.564  48.959  1.00  0.00     0.010 C 
ENDROOT
BRANCH   2  12
HETATM   12  C   UNL     1       4.394  27.614  53.206  1.00  0.00     0.338 C 
BRANCH  12  13
HETATM   13  C   UNL     1       4.711  26.137  53.465  1.00  0.00     0.248 C 
HETATM   14  N   UNL     1       5.904  25.950  54.133  1.00  0.00    -0.319 N 
HETATM   15  H   UNL     1       6.229  26.675  54.777  1.00  0.00     0.169 HD
HETATM   16  O   UNL     1       3.905  25.274  53.129  1.00  0.00    -0.271 OA
BRANCH  14  17
HETATM   17  C   UNL     1       6.531  24.723  54.311  1.00  0.00     0.094 A 
HETATM   18  S   UNL     1       7.005  23.809  52.964  1.00  0.00    -0.075 SA
HETATM   19  C   UNL     1       7.757  22.647  53.943  1.00  0.00    -0.008 A 
HETATM   20  C   UNL     1       7.656  22.934  55.293  1.00  0.00    -0.026 A 
HETATM   21  C   UNL     1       8.476  21.472  53.354  1.00  0.00     0.047 C 
HETATM   22  C   UNL     1       8.245  22.014  56.329  1.00  0.00     0.041 C 
HETATM   23  C   UNL     1       6.925  24.164  55.520  1.00  0.00     0.080 A 
HETATM   24  C   UNL     1       9.243  21.014  55.725  1.00  0.00     0.005 C 
HETATM   25  C   UNL     1       8.717  20.399  54.423  1.00  0.00     0.005 C 
BRANCH  23  26
HETATM   26  C   UNL     1       6.572  24.796  56.796  1.00  0.00     0.296 C 
HETATM   27  O   UNL     1       5.403  24.954  57.141  1.00  0.00    -0.259 OA
BRANCH  26  28
HETATM   28  O   UNL     1       7.651  25.136  57.551  1.00  0.00    -0.322 OA
HETATM   29  C   UNL     1       8.231  26.402  57.232  1.00  0.00     0.213 C 
ENDBRANCH  26  28
ENDBRANCH  23  26
ENDBRANCH  14  17
ENDBRANCH  12  13
ENDBRANCH   2  12
BRANCH   1  30
HETATM   30  C   UNL     1       4.629  30.190  50.406  1.00  0.00     0.006 A 
HETATM   31  C   UNL     1       3.889  31.392  50.542  1.00  0.00     0.077 A 
HETATM   32  C   UNL     1       4.397  32.593  50.033  1.00  0.00     0.037 A 
HETATM   33  C   UNL     1       5.628  32.624  49.381  1.00  0.00     0.003 A 
HETATM   34  C   UNL     1       6.356  31.455  49.225  1.00  0.00     0.001 A 
HETATM   35  C   UNL     1       5.861  30.252  49.730  1.00  0.00     0.012 A 
BRANCH  31  36
HETATM   36  O   UNL     1       2.678  31.277  51.174  1.00  0.00    -0.351 OA
BRANCH  36  37
HETATM   37  C   UNL     1       1.588  32.117  50.785  1.00  0.00     0.171 C 
HETATM   38  C   UNL     1       0.464  31.310  50.157  1.00  0.00     0.034 C 
ENDBRANCH  36  37
ENDBRANCH  31  36
ENDBRANCH   1  30
BRANCH   6  39
HETATM   39  O   UNL     1       5.314  27.540  48.518  1.00  0.00    -0.389 OA
HETATM   40  H   UNL     1       5.926  28.071  49.062  1.00  0.00     0.210 HD
ENDBRANCH   6  39
TORSDOF 9
ENDMDL
MODEL 6
REMARK VINA RESULT:      -8.2      3.944      8.051
REMARK  9 active torsions:
REMARK  status: ('A' for Active; 'I' for Inactive)
REMARK    1  A    between atoms: C_2  and  O_3 
REMARK    2  A    between atoms: O_3  and  C_4 
REMARK    3  A    between atoms: C_5  and  C_6 
REMARK    4  A    between atoms: N_7  and  C_9 
REMARK    5  A    between atoms: C_9  and  C_10 
REMARK       I    between atoms: C_10  and  N_11 
REMARK    6  A    between atoms: N_11  and  C_12 
REMARK    7  A    between atoms: C_20  and  C_21 
REMARK    8  A    between atoms: C_21  and  O_22 
REMARK    9  A    between atoms: C_28  and  O_29 
ROOT
HETATM    1  C   UNL     1       4.119  29.332  51.544  1.00  0.00     0.231 C 
HETATM    2  N   UNL     1       4.956  28.644  52.646  1.00  0.00    -0.054 N 
HETATM    3  H   UNL     1       5.434  29.446  53.089  1.00  0.00     0.281 HD
HETATM    4  C   UNL     1       6.011  27.688  52.170  1.00  0.00     0.239 C 
HETATM    5  C   UNL     1       5.434  26.666  51.206  1.00  0.00     0.066 C 
HETATM    6  C   UNL     1       4.795  27.348  49.994  1.00  0.00     0.065 C 
HETATM    7  C   UNL     1       3.682  28.301  50.466  1.00  0.00     0.055 C 
HETATM    8  C   UNL     1       4.231  26.291  49.024  1.00  0.00     0.038 C 
HETATM    9  C   UNL     1       3.452  26.904  47.859  1.00  0.00     0.003 C 
HETATM   10  C   UNL     1       2.381  27.878  48.335  1.00  0.00     0.001 C 
HETATM   11  C   UNL     1       2.945  28.942  49.276  1.00  0.00     0.010 C 
ENDROOT
BRANCH   2  12
HETATM   12  C   UNL     1       4.108  28.064  53.791  1.00  0.00     0.338 C 
BRANCH  12  13
HETATM   13  C   UNL     1       4.485  28.635  55.163  1.00  0.00     0.248 C 
HETATM   14  N   UNL     1       5.504  29.564  55.100  1.00  0.00    -0.319 N 
HETATM   15  H   UNL     1       5.606  30.128  54.254  1.00  0.00     0.169 HD
HETATM   16  O   UNL     1       3.858  28.287  56.160  1.00  0.00    -0.271 OA
BRANCH  14  17
HETATM   17  C   UNL     1       6.178  30.079  56.199  1.00  0.00     0.094 A 
HETATM   18  S   UNL     1       5.463  31.295  57.140  1.00  0.00    -0.075 SA
HETATM   19  C   UNL     1       6.737  31.261  58.259  1.00  0.00    -0.008 A 
HETATM   20  C   UNL     1       7.715  30.336  57.933  1.00  0.00    -0.026 A 
HETATM   21  C   UNL     1       6.735  32.133  59.477  1.00  0.00     0.047 C 
HETATM   22  C   UNL     1       8.939  30.165  58.793  1.00  0.00     0.041 C 
HETATM   23  C   UNL     1       7.392  29.634  56.708  1.00  0.00     0.080 A 
HETATM   24  C   UNL     1       8.775  30.805  60.179  1.00  0.00     0.005 C 
HETATM   25  C   UNL     1       8.138  32.197  60.094  1.00  0.00     0.005 C 
BRANCH  23  26
HETATM   26  C   UNL     1       8.174  28.609  56.008  1.00  0.00     0.296 C 
HETATM   27  O   UNL     1       8.676  28.816  54.905  1.00  0.00    -0.259 OA
BRANCH  26  28
HETATM   28  O   UNL     1       8.316  27.456  56.714  1.00  0.00    -0.322 OA
HETATM   29  C   UNL     1       7.328  26.461  56.442  1.00  0.00     0.213 C 
ENDBRANCH  26  28
ENDBRANCH  23  26
ENDBRANCH  14  17
ENDBRANCH  12  13
ENDBRANCH   2  12
BRANCH   1  30
HETATM   30  C   UNL     1       4.700  30.664  51.068  1.00  0.00     0.006 A 
HETATM   31  C   UNL     1       4.302  31.871  51.698  1.00  0.00     0.077 A 
HETATM   32  C   UNL     1       4.842  33.094  51.281  1.00  0.00     0.037 A 
HETATM   33  C   UNL     1       5.769  33.144  50.242  1.00  0.00     0.003 A 
HETATM   34  C   UNL     1       6.155  31.976  49.605  1.00  0.00     0.001 A 
HETATM   35  C   UNL     1       5.625  30.750  50.012  1.00  0.00     0.012 A 
BRANCH  31  36
HETATM   36  O   UNL     1       3.370  31.742  52.695  1.00  0.00    -0.351 OA
BRANCH  36  37
HETATM   37  C   UNL     1       3.580  32.386  53.954  1.00  0.00     0.171 C 
HETATM   38  C   UNL     1       2.454  32.080  54.927  1.00  0.00     0.034 C 
ENDBRANCH  36  37
ENDBRANCH  31  36
ENDBRANCH   1  30
BRANCH   6  39
HETATM   39  O   UNL     1       5.838  28.062  49.338  1.00  0.00    -0.389 OA
HETATM   40  H   UNL     1       5.935  27.748  48.420  1.00  0.00     0.210 HD
ENDBRANCH   6  39
TORSDOF 9
ENDMDL
MODEL 7
REMARK VINA RESULT:      -8.1      6.039      9.338
REMARK  9 active torsions:
REMARK  status: ('A' for Active; 'I' for Inactive)
REMARK    1  A    between atoms: C_2  and  O_3 
REMARK    2  A    between atoms: O_3  and  C_4 
REMARK    3  A    between atoms: C_5  and  C_6 
REMARK    4  A    between atoms: N_7  and  C_9 
REMARK    5  A    between atoms: C_9  and  C_10 
REMARK       I    between atoms: C_10  and  N_11 
REMARK    6  A    between atoms: N_11  and  C_12 
REMARK    7  A    between atoms: C_20  and  C_21 
REMARK    8  A    between atoms: C_21  and  O_22 
REMARK    9  A    between atoms: C_28  and  O_29 
ROOT
HETATM    1  C   UNL     1       3.935  29.240  47.539  1.00  0.00     0.231 C 
HETATM    2  N   UNL     1       4.161  28.853  49.019  1.00  0.00    -0.054 N 
HETATM    3  H   UNL     1       3.448  28.119  49.163  1.00  0.00     0.281 HD
HETATM    4  C   UNL     1       3.914  29.937  50.027  1.00  0.00     0.239 C 
HETATM    5  C   UNL     1       4.674  31.202  49.673  1.00  0.00     0.066 C 
HETATM    6  C   UNL     1       4.281  31.714  48.284  1.00  0.00     0.065 C 
HETATM    7  C   UNL     1       4.569  30.625  47.235  1.00  0.00     0.055 C 
HETATM    8  C   UNL     1       5.054  33.006  47.955  1.00  0.00     0.038 C 
HETATM    9  C   UNL     1       4.818  33.496  46.525  1.00  0.00     0.003 C 
HETATM   10  C   UNL     1       5.064  32.399  45.496  1.00  0.00     0.001 C 
HETATM   11  C   UNL     1       4.278  31.126  45.808  1.00  0.00     0.010 C 
ENDROOT
BRANCH   2  12
HETATM   12  C   UNL     1       5.485  28.109  49.265  1.00  0.00     0.338 C 
BRANCH  12  13
HETATM   13  C   UNL     1       5.367  27.013  50.329  1.00  0.00     0.248 C 
HETATM   14  N   UNL     1       6.251  27.179  51.376  1.00  0.00    -0.319 N 
HETATM   15  H   UNL     1       6.543  28.124  51.630  1.00  0.00     0.169 HD
HETATM   16  O   UNL     1       4.509  26.142  50.213  1.00  0.00    -0.271 OA
BRANCH  14  17
HETATM   17  C   UNL     1       6.502  26.232  52.361  1.00  0.00     0.094 A 
HETATM   18  S   UNL     1       7.599  24.972  52.068  1.00  0.00    -0.075 SA
HETATM   19  C   UNL     1       7.465  24.407  53.661  1.00  0.00    -0.008 A 
HETATM   20  C   UNL     1       6.591  25.158  54.428  1.00  0.00    -0.026 A 
HETATM   21  C   UNL     1       8.263  23.235  54.147  1.00  0.00     0.047 C 
HETATM   22  C   UNL     1       6.321  24.807  55.867  1.00  0.00     0.041 C 
HETATM   23  C   UNL     1       6.012  26.242  53.661  1.00  0.00     0.080 A 
HETATM   24  C   UNL     1       7.366  23.836  56.438  1.00  0.00     0.005 C 
HETATM   25  C   UNL     1       7.683  22.698  55.461  1.00  0.00     0.005 C 
BRANCH  23  26
HETATM   26  C   UNL     1       5.024  27.238  54.089  1.00  0.00     0.296 C 
HETATM   27  O   UNL     1       3.970  27.412  53.479  1.00  0.00    -0.259 OA
BRANCH  26  28
HETATM   28  O   UNL     1       5.371  27.896  55.227  1.00  0.00    -0.322 OA
HETATM   29  C   UNL     1       4.501  28.971  55.587  1.00  0.00     0.213 C 
ENDBRANCH  26  28
ENDBRANCH  23  26
ENDBRANCH  14  17
ENDBRANCH  12  13
ENDBRANCH   2  12
BRANCH   1  30
HETATM   30  C   UNL     1       2.513  28.977  47.042  1.00  0.00     0.006 A 
HETATM   31  C   UNL     1       2.016  27.650  47.000  1.00  0.00     0.077 A 
HETATM   32  C   UNL     1       0.708  27.401  46.563  1.00  0.00     0.037 A 
HETATM   33  C   UNL     1      -0.117  28.448  46.160  1.00  0.00     0.003 A 
HETATM   34  C   UNL     1       0.360  29.750  46.179  1.00  0.00     0.001 A 
HETATM   35  C   UNL     1       1.661  30.010  46.613  1.00  0.00     0.012 A 
BRANCH  31  36
HETATM   36  O   UNL     1       2.894  26.673  47.390  1.00  0.00    -0.351 OA
BRANCH  36  37
HETATM   37  C   UNL     1       2.749  25.341  46.890  1.00  0.00     0.171 C 
HETATM   38  C   UNL     1       2.892  24.314  48.000  1.00  0.00     0.034 C 
ENDBRANCH  36  37
ENDBRANCH  31  36
ENDBRANCH   1  30
BRANCH   6  39
HETATM   39  O   UNL     1       2.890  32.013  48.345  1.00  0.00    -0.389 OA
HETATM   40  H   UNL     1       2.445  31.709  47.532  1.00  0.00     0.210 HD
ENDBRANCH   6  39
TORSDOF 9
ENDMDL
MODEL 8
REMARK VINA RESULT:      -7.9      4.740      7.786
REMARK  9 active torsions:
REMARK  status: ('A' for Active; 'I' for Inactive)
REMARK    1  A    between atoms: C_2  and  O_3 
REMARK    2  A    between atoms: O_3  and  C_4 
REMARK    3  A    between atoms: C_5  and  C_6 
REMARK    4  A    between atoms: N_7  and  C_9 
REMARK    5  A    between atoms: C_9  and  C_10 
REMARK       I    between atoms: C_10  and  N_11 
REMARK    6  A    between atoms: N_11  and  C_12 
REMARK    7  A    between atoms: C_20  and  C_21 
REMARK    8  A    between atoms: C_21  and  O_22 
REMARK    9  A    between atoms: C_28  and  O_29 
ROOT
HETATM    1  C   UNL     1       6.399  27.669  54.683  1.00  0.00     0.231 C 
HETATM    2  N   UNL     1       5.432  27.496  53.489  1.00  0.00    -0.054 N 
HETATM    3  H   UNL     1       4.872  28.363  53.535  1.00  0.00     0.281 HD
HETATM    4  C   UNL     1       4.486  26.335  53.574  1.00  0.00     0.239 C 
HETATM    5  C   UNL     1       5.225  25.041  53.868  1.00  0.00     0.066 C 
HETATM    6  C   UNL     1       6.012  25.140  55.177  1.00  0.00     0.065 C 
HETATM    7  C   UNL     1       7.017  26.302  55.088  1.00  0.00     0.055 C 
HETATM    8  C   UNL     1       6.741  23.811  55.461  1.00  0.00     0.038 C 
HETATM    9  C   UNL     1       7.661  23.883  56.681  1.00  0.00     0.003 C 
HETATM   10  C   UNL     1       8.624  25.063  56.603  1.00  0.00     0.001 C 
HETATM   11  C   UNL     1       7.899  26.384  56.347  1.00  0.00     0.010 C 
ENDROOT
BRANCH   2  12
HETATM   12  C   UNL     1       6.123  27.596  52.118  1.00  0.00     0.338 C 
BRANCH  12  13
HETATM   13  C   UNL     1       5.330  28.433  51.109  1.00  0.00     0.248 C 
HETATM   14  N   UNL     1       3.994  28.090  51.054  1.00  0.00    -0.319 N 
HETATM   15  H   UNL     1       3.544  27.721  51.894  1.00  0.00     0.169 HD
HETATM   16  O   UNL     1       5.891  29.334  50.492  1.00  0.00    -0.271 OA
BRANCH  14  17
HETATM   17  C   UNL     1       3.098  28.536  50.090  1.00  0.00     0.094 A 
HETATM   18  S   UNL     1       2.145  29.906  50.388  1.00  0.00    -0.075 SA
HETATM   19  C   UNL     1       1.505  29.874  48.818  1.00  0.00    -0.008 A 
HETATM   20  C   UNL     1       2.000  28.830  48.056  1.00  0.00    -0.026 A 
HETATM   21  C   UNL     1       0.537  30.916  48.343  1.00  0.00     0.047 C 
HETATM   22  C   UNL     1       1.542  28.619  46.637  1.00  0.00     0.041 C 
HETATM   23  C   UNL     1       2.943  28.028  48.807  1.00  0.00     0.080 A 
HETATM   24  C   UNL     1       0.825  29.850  46.063  1.00  0.00     0.005 C 
HETATM   25  C   UNL     1      -0.169  30.450  47.064  1.00  0.00     0.005 C 
BRANCH  23  26
HETATM   26  C   UNL     1       3.661  26.822  48.380  1.00  0.00     0.296 C 
HETATM   27  O   UNL     1       3.575  25.762  48.996  1.00  0.00    -0.259 OA
BRANCH  26  28
HETATM   28  O   UNL     1       4.375  26.990  47.234  1.00  0.00    -0.322 OA
HETATM   29  C   UNL     1       5.431  27.949  47.321  1.00  0.00     0.213 C 
ENDBRANCH  26  28
ENDBRANCH  23  26
ENDBRANCH  14  17
ENDBRANCH  12  13
ENDBRANCH   2  12
BRANCH   1  30
HETATM   30  C   UNL     1       5.854  28.568  55.794  1.00  0.00     0.006 A 
HETATM   31  C   UNL     1       6.714  29.496  56.434  1.00  0.00     0.077 A 
HETATM   32  C   UNL     1       6.220  30.336  57.440  1.00  0.00     0.037 A 
HETATM   33  C   UNL     1       4.884  30.267  57.830  1.00  0.00     0.003 A 
HETATM   34  C   UNL     1       4.035  29.353  57.226  1.00  0.00     0.001 A 
HETATM   35  C   UNL     1       4.516  28.512  56.221  1.00  0.00     0.012 A 
BRANCH  31  36
HETATM   36  O   UNL     1       8.018  29.488  56.012  1.00  0.00    -0.351 OA
BRANCH  36  37
HETATM   37  C   UNL     1       9.074  29.688  56.955  1.00  0.00     0.171 C 
HETATM   38  C   UNL     1      10.420  29.810  56.261  1.00  0.00     0.034 C 
ENDBRANCH  36  37
ENDBRANCH  31  36
ENDBRANCH   1  30
BRANCH   6  39
HETATM   39  O   UNL     1       5.054  25.367  56.206  1.00  0.00    -0.389 OA
HETATM   40  H   UNL     1       4.699  24.517  56.528  1.00  0.00     0.210 HD
ENDBRANCH   6  39
TORSDOF 9
ENDMDL
MODEL 9
REMARK VINA RESULT:      -7.9      5.056      8.126
REMARK  9 active torsions:
REMARK  status: ('A' for Active; 'I' for Inactive)
REMARK    1  A    between atoms: C_2  and  O_3 
REMARK    2  A    between atoms: O_3  and  C_4 
REMARK    3  A    between atoms: C_5  and  C_6 
REMARK    4  A    between atoms: N_7  and  C_9 
REMARK    5  A    between atoms: C_9  and  C_10 
REMARK       I    between atoms: C_10  and  N_11 
REMARK    6  A    between atoms: N_11  and  C_12 
REMARK    7  A    between atoms: C_20  and  C_21 
REMARK    8  A    between atoms: C_21  and  O_22 
REMARK    9  A    between atoms: C_28  and  O_29 
ROOT
HETATM    1  C   UNL     1       3.686  29.344  49.428  1.00  0.00     0.231 C 
HETATM    2  N   UNL     1       4.825  28.773  50.304  1.00  0.00    -0.054 N 
HETATM    3  H   UNL     1       5.485  29.566  50.347  1.00  0.00     0.281 HD
HETATM    4  C   UNL     1       5.560  27.594  49.737  1.00  0.00     0.239 C 
HETATM    5  C   UNL     1       4.600  26.498  49.310  1.00  0.00     0.066 C 
HETATM    6  C   UNL     1       3.604  27.012  48.267  1.00  0.00     0.065 C 
HETATM    7  C   UNL     1       2.813  28.196  48.851  1.00  0.00     0.055 C 
HETATM    8  C   UNL     1       2.651  25.879  47.838  1.00  0.00     0.038 C 
HETATM    9  C   UNL     1       1.538  26.356  46.903  1.00  0.00     0.003 C 
HETATM   10  C   UNL     1       0.788  27.556  47.470  1.00  0.00     0.001 C 
HETATM   11  C   UNL     1       1.731  28.689  47.872  1.00  0.00     0.010 C 
ENDROOT
BRANCH   2  12
HETATM   12  C   UNL     1       4.425  28.568  51.775  1.00  0.00     0.338 C 
BRANCH  12  13
HETATM   13  C   UNL     1       5.528  27.906  52.608  1.00  0.00     0.248 C 
HETATM   14  N   UNL     1       5.157  26.677  53.116  1.00  0.00    -0.319 N 
HETATM   15  H   UNL     1       4.483  26.111  52.596  1.00  0.00     0.169 HD
HETATM   16  O   UNL     1       6.621  28.455  52.717  1.00  0.00    -0.271 OA
BRANCH  14  17
HETATM   17  C   UNL     1       5.874  25.960  54.065  1.00  0.00     0.094 A 
HETATM   18  S   UNL     1       6.592  24.481  53.648  1.00  0.00    -0.075 SA
HETATM   19  C   UNL     1       7.330  24.344  55.168  1.00  0.00    -0.008 A 
HETATM   20  C   UNL     1       7.040  25.408  56.005  1.00  0.00    -0.026 A 
HETATM   21  C   UNL     1       8.226  23.190  55.504  1.00  0.00     0.047 C 
HETATM   22  C   UNL     1       7.588  25.465  57.407  1.00  0.00     0.041 C 
HETATM   23  C   UNL     1       6.172  26.370  55.358  1.00  0.00     0.080 A 
HETATM   24  C   UNL     1       8.743  24.476  57.625  1.00  0.00     0.005 C 
HETATM   25  C   UNL     1       8.439  23.100  57.020  1.00  0.00     0.005 C 
BRANCH  23  26
HETATM   26  C   UNL     1       5.609  27.608  55.907  1.00  0.00     0.296 C 
HETATM   27  O   UNL     1       4.410  27.724  56.152  1.00  0.00    -0.259 OA
BRANCH  26  28
HETATM   28  O   UNL     1       6.541  28.568  56.152  1.00  0.00    -0.322 OA
HETATM   29  C   UNL     1       6.568  29.047  57.498  1.00  0.00     0.213 C 
ENDBRANCH  26  28
ENDBRANCH  23  26
ENDBRANCH  14  17
ENDBRANCH  12  13
ENDBRANCH   2  12
BRANCH   1  30
HETATM   30  C   UNL     1       4.136  30.452  48.474  1.00  0.00     0.006 A 
HETATM   31  C   UNL     1       4.565  31.699  48.996  1.00  0.00     0.077 A 
HETATM   32  C   UNL     1       4.997  32.712  48.131  1.00  0.00     0.037 A 
HETATM   33  C   UNL     1       5.005  32.514  46.752  1.00  0.00     0.003 A 
HETATM   34  C   UNL     1       4.573  31.307  46.225  1.00  0.00     0.001 A 
HETATM   35  C   UNL     1       4.141  30.289  47.077  1.00  0.00     0.012 A 
BRANCH  31  36
HETATM   36  O   UNL     1       4.507  31.825  50.359  1.00  0.00    -0.351 OA
BRANCH  36  37
HETATM   37  C   UNL     1       3.574  32.732  50.952  1.00  0.00     0.171 C 
HETATM   38  C   UNL     1       3.138  32.257  52.328  1.00  0.00     0.034 C 
ENDBRANCH  36  37
ENDBRANCH  31  36
ENDBRANCH   1  30
BRANCH   6  39
HETATM   39  O   UNL     1       4.375  27.415  47.139  1.00  0.00    -0.389 OA
HETATM   40  H   UNL     1       4.326  26.737  46.439  1.00  0.00     0.210 HD
ENDBRANCH   6  39
TORSDOF 9
ENDMDL
MODEL 10
REMARK VINA RESULT:      -7.8      4.541      6.578
REMARK  9 active torsions:
REMARK  status: ('A' for Active; 'I' for Inactive)
REMARK    1  A    between atoms: C_2  and  O_3 
REMARK    2  A    between atoms: O_3  and  C_4 
REMARK    3  A    between atoms: C_5  and  C_6 
REMARK    4  A    between atoms: N_7  and  C_9 
REMARK    5  A    between atoms: C_9  and  C_10 
REMARK       I    between atoms: C_10  and  N_11 
REMARK    6  A    between atoms: N_11  and  C_12 
REMARK    7  A    between atoms: C_20  and  C_21 
REMARK    8  A    between atoms: C_21  and  O_22 
REMARK    9  A    between atoms: C_28  and  O_29 
ROOT
HETATM    1  C   UNL     1       4.530  30.683  51.314  1.00  0.00     0.231 C 
HETATM    2  N   UNL     1       5.490  29.517  51.642  1.00  0.00    -0.054 N 
HETATM    3  H   UNL     1       6.401  29.998  51.712  1.00  0.00     0.281 HD
HETATM    4  C   UNL     1       5.613  28.451  50.592  1.00  0.00     0.239 C 
HETATM    5  C   UNL     1       4.249  27.932  50.172  1.00  0.00     0.066 C 
HETATM    6  C   UNL     1       3.369  29.063  49.633  1.00  0.00     0.065 C 
HETATM    7  C   UNL     1       3.200  30.144  50.716  1.00  0.00     0.055 C 
HETATM    8  C   UNL     1       1.997  28.509  49.199  1.00  0.00     0.038 C 
HETATM    9  C   UNL     1       1.015  29.605  48.782  1.00  0.00     0.003 C 
HETATM   10  C   UNL     1       0.887  30.693  49.843  1.00  0.00     0.001 C 
HETATM   11  C   UNL     1       2.245  31.260  50.256  1.00  0.00     0.010 C 
ENDROOT
BRANCH   2  12
HETATM   12  C   UNL     1       5.291  28.935  53.053  1.00  0.00     0.338 C 
BRANCH  12  13
HETATM   13  C   UNL     1       6.232  27.764  53.355  1.00  0.00     0.248 C 
HETATM   14  N   UNL     1       5.580  26.549  53.419  1.00  0.00    -0.319 N 
HETATM   15  H   UNL     1       4.737  26.411  52.858  1.00  0.00     0.169 HD
HETATM   16  O   UNL     1       7.439  27.965  53.460  1.00  0.00    -0.271 OA
BRANCH  14  17
HETATM   17  C   UNL     1       6.146  25.367  53.878  1.00  0.00     0.094 A 
HETATM   18  S   UNL     1       6.535  24.132  52.783  1.00  0.00    -0.075 SA
HETATM   19  C   UNL     1       7.250  23.196  54.003  1.00  0.00    -0.008 A 
HETATM   20  C   UNL     1       7.199  23.802  55.247  1.00  0.00    -0.026 A 
HETATM   21  C   UNL     1       7.891  21.874  53.704  1.00  0.00     0.047 C 
HETATM   22  C   UNL     1       7.766  23.123  56.465  1.00  0.00     0.041 C 
HETATM   23  C   UNL     1       6.540  25.090  55.181  1.00  0.00     0.080 A 
HETATM   24  C   UNL     1       8.694  21.953  56.106  1.00  0.00     0.005 C 
HETATM   25  C   UNL     1       8.103  21.075  54.996  1.00  0.00     0.005 C 
BRANCH  23  26
HETATM   26  C   UNL     1       6.255  26.027  56.272  1.00  0.00     0.296 C 
HETATM   27  O   UNL     1       5.111  26.220  56.681  1.00  0.00    -0.259 OA
BRANCH  26  28
HETATM   28  O   UNL     1       7.367  26.607  56.797  1.00  0.00    -0.322 OA
HETATM   29  C   UNL     1       7.117  27.747  57.622  1.00  0.00     0.213 C 
ENDBRANCH  26  28
ENDBRANCH  23  26
ENDBRANCH  14  17
ENDBRANCH  12  13
ENDBRANCH   2  12
BRANCH   1  30
HETATM   30  C   UNL     1       5.206  31.860  50.611  1.00  0.00     0.006 A 
HETATM   31  C   UNL     1       5.184  33.145  51.210  1.00  0.00     0.077 A 
HETATM   32  C   UNL     1       5.817  34.226  50.584  1.00  0.00     0.037 A 
HETATM   33  C   UNL     1       6.468  34.058  49.364  1.00  0.00     0.003 A 
HETATM   34  C   UNL     1       6.484  32.812  48.756  1.00  0.00     0.001 A 
HETATM   35  C   UNL     1       5.858  31.727  49.372  1.00  0.00     0.012 A 
BRANCH  31  36
HETATM   36  O   UNL     1       4.504  33.236  52.397  1.00  0.00    -0.351 OA
BRANCH  36  37
HETATM   37  C   UNL     1       3.381  34.113  52.511  1.00  0.00     0.171 C 
HETATM   38  C   UNL     1       3.597  35.152  53.598  1.00  0.00     0.034 C 
ENDBRANCH  36  37
ENDBRANCH  31  36
ENDBRANCH   1  30
BRANCH   6  39
HETATM   39  O   UNL     1       4.038  29.583  48.488  1.00  0.00    -0.389 OA
HETATM   40  H   UNL     1       4.412  30.461  48.688  1.00  0.00     0.210 HD
ENDBRANCH   6  39
TORSDOF 9
ENDMDL
