MODEL 1
REMARK VINA RESULT:     -10.4      0.000      0.000
REMARK  7 active torsions:
REMARK  status: ('A' for Active; 'I' for Inactive)
REMARK       I    between atoms: C_2  and  N_3 
REMARK    1  A    between atoms: N_3  and  C_4 
REMARK    2  A    between atoms: C_7  and  C_8 
REMARK    3  A    between atoms: C_13  and  C_14 
REMARK    4  A    between atoms: C_14  and  C_15 
REMARK    5  A    between atoms: C_15  and  C_16 
REMARK    6  A    between atoms: C_16  and  O_17 
REMARK    7  A    between atoms: C_19  and  C_20 
ROOT
HETATM    1  C   UNL     1       6.407  27.424  55.282  1.00  0.00     0.058 A 
HETATM    2  N   UNL     1       6.198  28.016  54.057  1.00  0.00    -0.188 N 
HETATM    3  C   UNL     1       5.750  27.333  52.987  1.00  0.00     0.726 A 
HETATM    4  N   UNL     1       5.506  25.990  53.101  1.00  0.00    -0.084 N 
HETATM    5  N   UNL     1       5.039  25.475  51.942  1.00  0.00    -0.140 NA
HETATM    6  C   UNL     1       5.076  26.560  51.154  1.00  0.00     0.166 A 
HETATM    7  N   UNL     1       5.490  27.721  51.765  1.00  0.00    -0.046 NA
HETATM    8  C   UNL     1       5.701  25.223  54.340  1.00  0.00     0.187 A 
HETATM    9  C   UNL     1       6.173  26.114  55.483  1.00  0.00     0.036 A 
HETATM   10  H   UNL     1       6.405  29.007  53.972  1.00  0.00     0.184 HD
ENDROOT
BRANCH   1  11
HETATM   11  C   UNL     1       6.930  28.265  56.362  1.00  0.00    -0.009 A 
HETATM   12  C   UNL     1       6.170  29.340  56.834  1.00  0.00     0.016 A 
HETATM   13  C   UNL     1       6.645  30.142  57.877  1.00  0.00     0.030 A 
HETATM   14  C   UNL     1       7.884  29.882  58.463  1.00  0.00     0.034 A 
HETATM   15  C   UNL     1       8.647  28.809  57.982  1.00  0.00     0.030 A 
HETATM   16  C   UNL     1       8.175  28.005  56.938  1.00  0.00     0.016 A 
BRANCH  14  17
HETATM   17  N   UNL     1       8.427  30.635  59.524  1.00  0.00    -0.328 N 
HETATM   18  C   UNL     1       9.391  31.624  59.447  1.00  0.00     0.218 C 
HETATM   19  C   UNL     1       9.705  32.229  60.793  1.00  0.00     0.117 C 
HETATM   20  O   UNL     1       9.946  32.036  58.435  1.00  0.00    -0.274 OA
HETATM   21  H   UNL     1       8.051  30.437  60.443  1.00  0.00     0.169 HD
ENDBRANCH  14  17
ENDBRANCH   1  11
BRANCH   8  22
HETATM   22  C   UNL     1       6.660  24.054  54.147  1.00  0.00    -0.028 A 
HETATM   23  C   UNL     1       7.036  23.274  55.257  1.00  0.00     0.028 A 
HETATM   24  C   UNL     1       7.951  22.232  55.107  1.00  0.00     0.011 A 
HETATM   25 BR   UNL     1       8.449  21.203  56.614  1.00  0.00    -0.051 Br
HETATM   26  C   UNL     1       8.508  21.948  53.863  1.00  0.00     0.019 A 
HETATM   27  C   UNL     1       8.150  22.717  52.758  1.00  0.00     0.002 A 
HETATM   28  C   UNL     1       7.240  23.766  52.898  1.00  0.00     0.010 A 
ENDBRANCH   8  22
BRANCH   6  29
HETATM   29  C   UNL     1       4.741  26.512  49.709  1.00  0.00     0.085 C 
BRANCH  29  30
HETATM   30  C   UNL     1       5.120  27.791  48.964  1.00  0.00     0.034 C 
BRANCH  30  31
HETATM   31  C   UNL     1       4.981  27.662  47.450  1.00  0.00     0.164 C 
BRANCH  31  32
HETATM   32  O   UNL     1       6.153  27.060  46.909  1.00  0.00    -0.401 OA
HETATM   33  H   UNL     1       6.161  27.238  45.953  1.00  0.00     0.209 HD
ENDBRANCH  31  32
ENDBRANCH  30  31
ENDBRANCH  29  30
ENDBRANCH   6  29
TORSDOF 7
ENDMDL
MODEL 2
REMARK VINA RESULT:      -9.4      4.132      9.125
REMARK  7 active torsions:
REMARK  status: ('A' for Active; 'I' for Inactive)
REMARK       I    between atoms: C_2  and  N_3 
REMARK    1  A    between atoms: N_3  and  C_4 
REMARK    2  A    between atoms: C_7  and  C_8 
REMARK    3  A    between atoms: C_13  and  C_14 
REMARK    4  A    between atoms: C_14  and  C_15 
REMARK    5  A    between atoms: C_15  and  C_16 
REMARK    6  A    between atoms: C_16  and  O_17 
REMARK    7  A    between atoms: C_19  and  C_20 
ROOT
HETATM    1  C   UNL     1       7.217  27.085  56.603  1.00  0.00     0.058 A 
HETATM    2  N   UNL     1       8.237  27.853  57.115  1.00  0.00    -0.188 N 
HETATM    3  C   UNL     1       8.017  28.994  57.795  1.00  0.00     0.726 A 
HETATM    4  N   UNL     1       6.731  29.432  57.975  1.00  0.00    -0.084 N 
HETATM    5  N   UNL     1       6.697  30.573  58.698  1.00  0.00    -0.140 NA
HETATM    6  C   UNL     1       8.008  30.794  58.877  1.00  0.00     0.166 A 
HETATM    7  N   UNL     1       8.846  29.839  58.352  1.00  0.00    -0.046 NA
HETATM    8  C   UNL     1       5.546  28.725  57.469  1.00  0.00     0.187 A 
HETATM    9  C   UNL     1       5.926  27.434  56.753  1.00  0.00     0.036 A 
HETATM   10  H   UNL     1       9.190  27.537  56.957  1.00  0.00     0.184 HD
ENDROOT
BRANCH   1  11
HETATM   11  C   UNL     1       7.585  25.882  55.852  1.00  0.00    -0.009 A 
HETATM   12  C   UNL     1       8.289  24.855  56.488  1.00  0.00     0.016 A 
HETATM   13  C   UNL     1       8.633  23.691  55.792  1.00  0.00     0.030 A 
HETATM   14  C   UNL     1       8.277  23.537  54.452  1.00  0.00     0.034 A 
HETATM   15  C   UNL     1       7.578  24.571  53.815  1.00  0.00     0.030 A 
HETATM   16  C   UNL     1       7.234  25.736  54.509  1.00  0.00     0.016 A 
BRANCH  14  17
HETATM   17  N   UNL     1       8.575  22.391  53.686  1.00  0.00    -0.328 N 
HETATM   18  C   UNL     1       8.174  21.090  53.927  1.00  0.00     0.218 C 
HETATM   19  C   UNL     1       8.667  20.130  52.873  1.00  0.00     0.117 C 
HETATM   20  O   UNL     1       7.473  20.693  54.851  1.00  0.00    -0.274 OA
HETATM   21  H   UNL     1       9.134  22.548  52.856  1.00  0.00     0.169 HD
ENDBRANCH  14  17
ENDBRANCH   1  11
BRANCH   8  22
HETATM   22  C   UNL     1       4.696  29.605  56.560  1.00  0.00    -0.028 A 
HETATM   23  C   UNL     1       4.810  29.477  55.164  1.00  0.00     0.028 A 
HETATM   24  C   UNL     1       4.077  30.310  54.318  1.00  0.00     0.011 A 
HETATM   25 BR   UNL     1       4.253  30.127  52.444  1.00  0.00    -0.051 Br
HETATM   26  C   UNL     1       3.224  31.279  54.840  1.00  0.00     0.019 A 
HETATM   27  C   UNL     1       3.107  31.422  56.221  1.00  0.00     0.002 A 
HETATM   28  C   UNL     1       3.842  30.598  57.075  1.00  0.00     0.010 A 
ENDBRANCH   8  22
BRANCH   6  29
HETATM   29  C   UNL     1       8.529  32.009  59.552  1.00  0.00     0.085 C 
BRANCH  29  30
HETATM   30  C   UNL     1       9.394  31.692  60.771  1.00  0.00     0.034 C 
BRANCH  30  31
HETATM   31  C   UNL     1       8.624  30.975  61.876  1.00  0.00     0.164 C 
BRANCH  31  32
HETATM   32  O   UNL     1       9.232  29.716  62.147  1.00  0.00    -0.401 OA
HETATM   33  H   UNL     1       8.539  29.120  62.480  1.00  0.00     0.209 HD
ENDBRANCH  31  32
ENDBRANCH  30  31
ENDBRANCH  29  30
ENDBRANCH   6  29
TORSDOF 7
ENDMDL
MODEL 3
REMARK VINA RESULT:      -9.3      4.381      9.468
REMARK  7 active torsions:
REMARK  status: ('A' for Active; 'I' for Inactive)
REMARK       I    between atoms: C_2  and  N_3 
REMARK    1  A    between atoms: N_3  and  C_4 
REMARK    2  A    between atoms: C_7  and  C_8 
REMARK    3  A    between atoms: C_13  and  C_14 
REMARK    4  A    between atoms: C_14  and  C_15 
REMARK    5  A    between atoms: C_15  and  C_16 
REMARK    6  A    between atoms: C_16  and  O_17 
REMARK    7  A    between atoms: C_19  and  C_20 
ROOT
HETATM    1  C   UNL     1       6.814  27.850  56.979  1.00  0.00     0.058 A 
HETATM    2  N   UNL     1       7.928  28.294  57.655  1.00  0.00    -0.188 N 
HETATM    3  C   UNL     1       7.952  29.458  58.331  1.00  0.00     0.726 A 
HETATM    4  N   UNL     1       6.836  30.253  58.340  1.00  0.00    -0.084 N 
HETATM    5  N   UNL     1       7.029  31.363  59.085  1.00  0.00    -0.140 NA
HETATM    6  C   UNL     1       8.307  31.196  59.456  1.00  0.00     0.166 A 
HETATM    7  N   UNL     1       8.900  30.032  59.027  1.00  0.00    -0.046 NA
HETATM    8  C   UNL     1       5.583  29.915  57.649  1.00  0.00     0.187 A 
HETATM    9  C   UNL     1       5.672  28.562  56.954  1.00  0.00     0.036 A 
HETATM   10  H   UNL     1       8.760  27.713  57.624  1.00  0.00     0.184 HD
ENDROOT
BRANCH   1  11
HETATM   11  C   UNL     1       6.923  26.583  56.252  1.00  0.00    -0.009 A 
HETATM   12  C   UNL     1       7.273  26.589  54.898  1.00  0.00     0.016 A 
HETATM   13  C   UNL     1       7.401  25.388  54.191  1.00  0.00     0.030 A 
HETATM   14  C   UNL     1       7.181  24.166  54.827  1.00  0.00     0.034 A 
HETATM   15  C   UNL     1       6.822  24.164  56.183  1.00  0.00     0.030 A 
HETATM   16  C   UNL     1       6.693  25.363  56.891  1.00  0.00     0.016 A 
BRANCH  14  17
HETATM   17  N   UNL     1       7.301  22.914  54.189  1.00  0.00    -0.328 N 
HETATM   18  C   UNL     1       8.392  22.064  54.201  1.00  0.00     0.218 C 
HETATM   19  C   UNL     1       8.143  20.796  53.423  1.00  0.00     0.117 C 
HETATM   20  O   UNL     1       9.457  22.240  54.782  1.00  0.00    -0.274 OA
HETATM   21  H   UNL     1       6.485  22.599  53.678  1.00  0.00     0.169 HD
ENDBRANCH  14  17
ENDBRANCH   1  11
BRANCH   8  22
HETATM   22  C   UNL     1       5.165  30.995  56.656  1.00  0.00    -0.028 A 
HETATM   23  C   UNL     1       5.105  32.337  57.074  1.00  0.00     0.028 A 
HETATM   24  C   UNL     1       4.676  33.330  56.193  1.00  0.00     0.011 A 
HETATM   25 BR   UNL     1       4.593  35.126  56.780  1.00  0.00    -0.051 Br
HETATM   26  C   UNL     1       4.300  33.011  54.892  1.00  0.00     0.019 A 
HETATM   27  C   UNL     1       4.348  31.685  54.466  1.00  0.00     0.002 A 
HETATM   28  C   UNL     1       4.769  30.683  55.343  1.00  0.00     0.010 A 
ENDBRANCH   8  22
BRANCH   6  29
HETATM   29  C   UNL     1       9.055  32.214  60.235  1.00  0.00     0.085 C 
BRANCH  29  30
HETATM   30  C   UNL     1       9.616  31.670  61.548  1.00  0.00     0.034 C 
BRANCH  30  31
HETATM   31  C   UNL     1       8.601  30.843  62.332  1.00  0.00     0.164 C 
BRANCH  31  32
HETATM   32  O   UNL     1       8.999  29.476  62.341  1.00  0.00    -0.401 OA
HETATM   33  H   UNL     1       9.212  29.237  63.259  1.00  0.00     0.209 HD
ENDBRANCH  31  32
ENDBRANCH  30  31
ENDBRANCH  29  30
ENDBRANCH   6  29
TORSDOF 7
ENDMDL
MODEL 4
REMARK VINA RESULT:      -9.1      3.842      8.229
REMARK  7 active torsions:
REMARK  status: ('A' for Active; 'I' for Inactive)
REMARK       I    between atoms: C_2  and  N_3 
REMARK    1  A    between atoms: N_3  and  C_4 
REMARK    2  A    between atoms: C_7  and  C_8 
REMARK    3  A    between atoms: C_13  and  C_14 
REMARK    4  A    between atoms: C_14  and  C_15 
REMARK    5  A    between atoms: C_15  and  C_16 
REMARK    6  A    between atoms: C_16  and  O_17 
REMARK    7  A    between atoms: C_19  and  C_20 
ROOT
HETATM    1  C   UNL     1       5.609  26.644  51.595  1.00  0.00     0.058 A 
HETATM    2  N   UNL     1       6.564  25.659  51.481  1.00  0.00    -0.188 N 
HETATM    3  C   UNL     1       6.955  24.902  52.523  1.00  0.00     0.726 A 
HETATM    4  N   UNL     1       6.404  25.122  53.758  1.00  0.00    -0.084 N 
HETATM    5  N   UNL     1       6.892  24.258  54.676  1.00  0.00    -0.140 NA
HETATM    6  C   UNL     1       7.775  23.576  53.931  1.00  0.00     0.166 A 
HETATM    7  N   UNL     1       7.829  23.932  52.604  1.00  0.00    -0.046 NA
HETATM    8  C   UNL     1       5.389  26.149  54.032  1.00  0.00     0.187 A 
HETATM    9  C   UNL     1       5.005  26.910  52.768  1.00  0.00     0.036 A 
HETATM   10  H   UNL     1       6.988  25.518  50.569  1.00  0.00     0.184 HD
ENDROOT
BRANCH   1  11
HETATM   11  C   UNL     1       5.293  27.424  50.396  1.00  0.00    -0.009 A 
HETATM   12  C   UNL     1       4.809  26.777  49.255  1.00  0.00     0.016 A 
HETATM   13  C   UNL     1       4.483  27.507  48.107  1.00  0.00     0.030 A 
HETATM   14  C   UNL     1       4.637  28.894  48.084  1.00  0.00     0.034 A 
HETATM   15  C   UNL     1       5.130  29.539  49.227  1.00  0.00     0.030 A 
HETATM   16  C   UNL     1       5.456  28.810  50.375  1.00  0.00     0.016 A 
BRANCH  14  17
HETATM   17  N   UNL     1       4.321  29.702  46.972  1.00  0.00    -0.328 N 
HETATM   18  C   UNL     1       3.181  30.461  46.781  1.00  0.00     0.218 C 
HETATM   19  C   UNL     1       3.204  31.218  45.476  1.00  0.00     0.117 C 
HETATM   20  O   UNL     1       2.236  30.581  47.552  1.00  0.00    -0.274 OA
HETATM   21  H   UNL     1       5.020  29.739  46.241  1.00  0.00     0.169 HD
ENDBRANCH  14  17
ENDBRANCH   1  11
BRANCH   8  22
HETATM   22  C   UNL     1       5.831  27.119  55.122  1.00  0.00    -0.028 A 
HETATM   23  C   UNL     1       7.108  27.705  55.053  1.00  0.00     0.028 A 
HETATM   24  C   UNL     1       7.549  28.555  56.069  1.00  0.00     0.011 A 
HETATM   25 BR   UNL     1       9.273  29.324  55.961  1.00  0.00    -0.051 Br
HETATM   26  C   UNL     1       6.735  28.835  57.163  1.00  0.00     0.019 A 
HETATM   27  C   UNL     1       5.471  28.255  57.247  1.00  0.00     0.002 A 
HETATM   28  C   UNL     1       5.024  27.398  56.240  1.00  0.00     0.010 A 
ENDBRANCH   8  22
BRANCH   6  29
HETATM   29  C   UNL     1       8.671  22.540  54.502  1.00  0.00     0.085 C 
BRANCH  29  30
HETATM   30  C   UNL     1       8.007  21.167  54.608  1.00  0.00     0.034 C 
BRANCH  30  31
HETATM   31  C   UNL     1       8.721  20.096  53.790  1.00  0.00     0.164 C 
BRANCH  31  32
HETATM   32  O   UNL     1       8.130  20.004  52.497  1.00  0.00    -0.401 OA
HETATM   33  H   UNL     1       8.293  19.106  52.162  1.00  0.00     0.209 HD
ENDBRANCH  31  32
ENDBRANCH  30  31
ENDBRANCH  29  30
ENDBRANCH   6  29
TORSDOF 7
ENDMDL
MODEL 5
REMARK VINA RESULT:      -9.0      3.858      8.343
REMARK  7 active torsions:
REMARK  status: ('A' for Active; 'I' for Inactive)
REMARK       I    between atoms: C_2  and  N_3 
REMARK    1  A    between atoms: N_3  and  C_4 
REMARK    2  A    between atoms: C_7  and  C_8 
REMARK    3  A    between atoms: C_13  and  C_14 
REMARK    4  A    between atoms: C_14  and  C_15 
REMARK    5  A    between atoms: C_15  and  C_16 
REMARK    6  A    between atoms: C_16  and  O_17 
REMARK    7  A    between atoms: C_19  and  C_20 
ROOT
HETATM    1  C   UNL     1       5.395  26.475  53.707  1.00  0.00     0.058 A 
HETATM    2  N   UNL     1       6.042  25.262  53.650  1.00  0.00    -0.188 N 
HETATM    3  C   UNL     1       6.596  24.682  54.732  1.00  0.00     0.726 A 
HETATM    4  N   UNL     1       6.538  25.323  55.941  1.00  0.00    -0.084 N 
HETATM    5  N   UNL     1       7.118  24.588  56.916  1.00  0.00    -0.140 NA
HETATM    6  C   UNL     1       7.552  23.534  56.208  1.00  0.00     0.166 A 
HETATM    7  N   UNL     1       7.236  23.549  54.870  1.00  0.00    -0.046 NA
HETATM    8  C   UNL     1       5.896  26.629  56.147  1.00  0.00     0.187 A 
HETATM    9  C   UNL     1       5.277  27.160  54.860  1.00  0.00     0.036 A 
HETATM   10  H   UNL     1       6.105  24.803  52.746  1.00  0.00     0.184 HD
ENDROOT
BRANCH   1  11
HETATM   11  C   UNL     1       4.863  27.019  52.455  1.00  0.00    -0.009 A 
HETATM   12  C   UNL     1       4.065  28.166  52.481  1.00  0.00     0.016 A 
HETATM   13  C   UNL     1       3.564  28.712  51.294  1.00  0.00     0.030 A 
HETATM   14  C   UNL     1       3.855  28.119  50.065  1.00  0.00     0.034 A 
HETATM   15  C   UNL     1       4.650  26.964  50.043  1.00  0.00     0.030 A 
HETATM   16  C   UNL     1       5.151  26.417  51.229  1.00  0.00     0.016 A 
BRANCH  14  17
HETATM   17  N   UNL     1       3.399  28.613  48.825  1.00  0.00    -0.328 N 
HETATM   18  C   UNL     1       2.211  28.312  48.186  1.00  0.00     0.218 C 
HETATM   19  C   UNL     1       2.054  29.055  46.882  1.00  0.00     0.117 C 
HETATM   20  O   UNL     1       1.326  27.565  48.586  1.00  0.00    -0.274 OA
HETATM   21  H   UNL     1       4.009  29.277  48.364  1.00  0.00     0.169 HD
ENDBRANCH  14  17
ENDBRANCH   1  11
BRANCH   8  22
HETATM   22  C   UNL     1       6.856  27.656  56.737  1.00  0.00    -0.028 A 
HETATM   23  C   UNL     1       6.346  28.834  57.311  1.00  0.00     0.028 A 
HETATM   24  C   UNL     1       7.213  29.808  57.810  1.00  0.00     0.011 A 
HETATM   25 BR   UNL     1       6.505  31.388  58.568  1.00  0.00    -0.051 Br
HETATM   26  C   UNL     1       8.592  29.630  57.746  1.00  0.00     0.019 A 
HETATM   27  C   UNL     1       9.111  28.471  57.173  1.00  0.00     0.002 A 
HETATM   28  C   UNL     1       8.252  27.495  56.665  1.00  0.00     0.010 A 
ENDBRANCH   8  22
BRANCH   6  29
HETATM   29  C   UNL     1       8.361  22.445  56.810  1.00  0.00     0.085 C 
BRANCH  29  30
HETATM   30  C   UNL     1       8.032  21.068  56.235  1.00  0.00     0.034 C 
BRANCH  30  31
HETATM   31  C   UNL     1       9.271  20.289  55.807  1.00  0.00     0.164 C 
BRANCH  31  32
HETATM   32  O   UNL     1       8.963  19.476  54.679  1.00  0.00    -0.401 OA
HETATM   33  H   UNL     1       9.281  18.577  54.868  1.00  0.00     0.209 HD
ENDBRANCH  31  32
ENDBRANCH  30  31
ENDBRANCH  29  30
ENDBRANCH   6  29
TORSDOF 7
ENDMDL
MODEL 6
REMARK VINA RESULT:      -9.0      5.521      7.760
REMARK  7 active torsions:
REMARK  status: ('A' for Active; 'I' for Inactive)
REMARK       I    between atoms: C_2  and  N_3 
REMARK    1  A    between atoms: N_3  and  C_4 
REMARK    2  A    between atoms: C_7  and  C_8 
REMARK    3  A    between atoms: C_13  and  C_14 
REMARK    4  A    between atoms: C_14  and  C_15 
REMARK    5  A    between atoms: C_15  and  C_16 
REMARK    6  A    between atoms: C_16  and  O_17 
REMARK    7  A    between atoms: C_19  and  C_20 
ROOT
HETATM    1  C   UNL     1       5.656  26.472  51.379  1.00  0.00     0.058 A 
HETATM    2  N   UNL     1       4.768  26.054  50.414  1.00  0.00    -0.188 N 
HETATM    3  C   UNL     1       4.152  26.907  49.575  1.00  0.00     0.726 A 
HETATM    4  N   UNL     1       4.393  28.251  49.686  1.00  0.00    -0.084 N 
HETATM    5  N   UNL     1       3.714  28.952  48.751  1.00  0.00    -0.140 NA
HETATM    6  C   UNL     1       3.041  27.965  48.140  1.00  0.00     0.166 A 
HETATM    7  N   UNL     1       3.297  26.697  48.607  1.00  0.00    -0.046 NA
HETATM    8  C   UNL     1       5.301  28.842  50.680  1.00  0.00     0.187 A 
HETATM    9  C   UNL     1       5.962  27.773  51.542  1.00  0.00     0.036 A 
HETATM   10  H   UNL     1       4.574  25.059  50.353  1.00  0.00     0.184 HD
ENDROOT
BRANCH   1  11
HETATM   11  C   UNL     1       6.235  25.452  52.256  1.00  0.00    -0.009 A 
HETATM   12  C   UNL     1       7.437  24.832  51.899  1.00  0.00     0.016 A 
HETATM   13  C   UNL     1       8.016  23.869  52.733  1.00  0.00     0.030 A 
HETATM   14  C   UNL     1       7.402  23.512  53.934  1.00  0.00     0.034 A 
HETATM   15  C   UNL     1       6.193  24.129  54.285  1.00  0.00     0.030 A 
HETATM   16  C   UNL     1       5.613  25.092  53.453  1.00  0.00     0.016 A 
BRANCH  14  17
HETATM   17  N   UNL     1       7.927  22.561  54.833  1.00  0.00    -0.328 N 
HETATM   18  C   UNL     1       8.001  21.191  54.659  1.00  0.00     0.218 C 
HETATM   19  C   UNL     1       8.651  20.496  55.829  1.00  0.00     0.117 C 
HETATM   20  O   UNL     1       7.633  20.550  53.681  1.00  0.00    -0.274 OA
HETATM   21  H   UNL     1       8.306  22.931  55.696  1.00  0.00     0.169 HD
ENDBRANCH  14  17
ENDBRANCH   1  11
BRANCH   8  22
HETATM   22  C   UNL     1       4.600  29.874  51.557  1.00  0.00    -0.028 A 
HETATM   23  C   UNL     1       4.653  31.235  51.206  1.00  0.00     0.028 A 
HETATM   24  C   UNL     1       4.061  32.197  52.024  1.00  0.00     0.011 A 
HETATM   25 BR   UNL     1       4.153  34.022  51.537  1.00  0.00    -0.051 Br
HETATM   26  C   UNL     1       3.412  31.829  53.199  1.00  0.00     0.019 A 
HETATM   27  C   UNL     1       3.359  30.484  53.563  1.00  0.00     0.002 A 
HETATM   28  C   UNL     1       3.954  29.515  52.754  1.00  0.00     0.010 A 
ENDBRANCH   8  22
BRANCH   6  29
HETATM   29  C   UNL     1       2.049  28.219  47.065  1.00  0.00     0.085 C 
BRANCH  29  30
HETATM   30  C   UNL     1       0.800  27.346  47.186  1.00  0.00     0.034 C 
BRANCH  30  31
HETATM   31  C   UNL     1      -0.250  27.661  46.125  1.00  0.00     0.164 C 
BRANCH  31  32
HETATM   32  O   UNL     1       0.001  26.889  44.955  1.00  0.00    -0.401 OA
HETATM   33  H   UNL     1      -0.643  27.159  44.279  1.00  0.00     0.209 HD
ENDBRANCH  31  32
ENDBRANCH  30  31
ENDBRANCH  29  30
ENDBRANCH   6  29
TORSDOF 7
ENDMDL
MODEL 7
REMARK VINA RESULT:      -9.0      5.045      9.282
REMARK  7 active torsions:
REMARK  status: ('A' for Active; 'I' for Inactive)
REMARK       I    between atoms: C_2  and  N_3 
REMARK    1  A    between atoms: N_3  and  C_4 
REMARK    2  A    between atoms: C_7  and  C_8 
REMARK    3  A    between atoms: C_13  and  C_14 
REMARK    4  A    between atoms: C_14  and  C_15 
REMARK    5  A    between atoms: C_15  and  C_16 
REMARK    6  A    between atoms: C_16  and  O_17 
REMARK    7  A    between atoms: C_19  and  C_20 
ROOT
HETATM    1  C   UNL     1       6.728  28.665  57.534  1.00  0.00     0.058 A 
HETATM    2  N   UNL     1       5.475  29.182  57.298  1.00  0.00    -0.188 N 
HETATM    3  C   UNL     1       5.169  30.475  57.514  1.00  0.00     0.726 A 
HETATM    4  N   UNL     1       6.128  31.318  58.010  1.00  0.00    -0.084 N 
HETATM    5  N   UNL     1       5.656  32.578  58.140  1.00  0.00    -0.140 NA
HETATM    6  C   UNL     1       4.383  32.408  57.751  1.00  0.00     0.166 A 
HETATM    7  N   UNL     1       4.053  31.136  57.344  1.00  0.00    -0.046 NA
HETATM    8  C   UNL     1       7.502  30.902  58.326  1.00  0.00     0.187 A 
HETATM    9  C   UNL     1       7.731  29.430  58.002  1.00  0.00     0.036 A 
HETATM   10  H   UNL     1       4.760  28.546  56.955  1.00  0.00     0.184 HD
ENDROOT
BRANCH   1  11
HETATM   11  C   UNL     1       6.929  27.234  57.292  1.00  0.00    -0.009 A 
HETATM   12  C   UNL     1       5.842  26.433  56.929  1.00  0.00     0.016 A 
HETATM   13  C   UNL     1       6.017  25.068  56.675  1.00  0.00     0.030 A 
HETATM   14  C   UNL     1       7.281  24.486  56.780  1.00  0.00     0.034 A 
HETATM   15  C   UNL     1       8.367  25.290  57.151  1.00  0.00     0.030 A 
HETATM   16  C   UNL     1       8.194  26.655  57.406  1.00  0.00     0.016 A 
BRANCH  14  17
HETATM   17  N   UNL     1       7.542  23.123  56.529  1.00  0.00    -0.328 N 
HETATM   18  C   UNL     1       7.511  22.471  55.310  1.00  0.00     0.218 C 
HETATM   19  C   UNL     1       7.872  21.011  55.428  1.00  0.00     0.117 C 
HETATM   20  O   UNL     1       7.260  22.963  54.216  1.00  0.00    -0.274 OA
HETATM   21  H   UNL     1       7.797  22.567  57.336  1.00  0.00     0.169 HD
ENDBRANCH  14  17
ENDBRANCH   1  11
BRANCH   8  22
HETATM   22  C   UNL     1       7.870  31.191  59.777  1.00  0.00    -0.028 A 
HETATM   23  C   UNL     1       7.121  32.129  60.510  1.00  0.00     0.028 A 
HETATM   24  C   UNL     1       7.476  32.442  61.823  1.00  0.00     0.011 A 
HETATM   25 BR   UNL     1       6.461  33.713  62.786  1.00  0.00    -0.051 Br
HETATM   26  C   UNL     1       8.575  31.836  62.426  1.00  0.00     0.019 A 
HETATM   27  C   UNL     1       9.330  30.910  61.708  1.00  0.00     0.002 A 
HETATM   28  C   UNL     1       8.987  30.595  60.392  1.00  0.00     0.010 A 
ENDBRANCH   8  22
BRANCH   6  29
HETATM   29  C   UNL     1       3.380  33.501  57.798  1.00  0.00     0.085 C 
BRANCH  29  30
HETATM   30  C   UNL     1       3.491  34.362  59.056  1.00  0.00     0.034 C 
BRANCH  30  31
HETATM   31  C   UNL     1       3.075  33.622  60.323  1.00  0.00     0.164 C 
BRANCH  31  32
HETATM   32  O   UNL     1       1.654  33.569  60.404  1.00  0.00    -0.401 OA
HETATM   33  H   UNL     1       1.414  33.523  61.345  1.00  0.00     0.209 HD
ENDBRANCH  31  32
ENDBRANCH  30  31
ENDBRANCH  29  30
ENDBRANCH   6  29
TORSDOF 7
ENDMDL
MODEL 8
REMARK VINA RESULT:      -9.0      3.004      5.127
REMARK  7 active torsions:
REMARK  status: ('A' for Active; 'I' for Inactive)
REMARK       I    between atoms: C_2  and  N_3 
REMARK    1  A    between atoms: N_3  and  C_4 
REMARK    2  A    between atoms: C_7  and  C_8 
REMARK    3  A    between atoms: C_13  and  C_14 
REMARK    4  A    between atoms: C_14  and  C_15 
REMARK    5  A    between atoms: C_15  and  C_16 
REMARK    6  A    between atoms: C_16  and  O_17 
REMARK    7  A    between atoms: C_19  and  C_20 
ROOT
HETATM    1  C   UNL     1       7.347  27.983  55.468  1.00  0.00     0.058 A 
HETATM    2  N   UNL     1       7.516  26.635  55.694  1.00  0.00    -0.188 N 
HETATM    3  C   UNL     1       7.528  25.727  54.701  1.00  0.00     0.726 A 
HETATM    4  N   UNL     1       7.346  26.143  53.408  1.00  0.00    -0.084 N 
HETATM    5  N   UNL     1       7.413  25.107  52.544  1.00  0.00    -0.140 NA
HETATM    6  C   UNL     1       7.588  24.084  53.394  1.00  0.00     0.166 A 
HETATM    7  N   UNL     1       7.680  24.428  54.722  1.00  0.00    -0.046 NA
HETATM    8  C   UNL     1       7.136  27.545  53.020  1.00  0.00     0.187 A 
HETATM    9  C   UNL     1       7.181  28.475  54.227  1.00  0.00     0.036 A 
HETATM   10  H   UNL     1       7.625  26.330  56.657  1.00  0.00     0.184 HD
ENDROOT
BRANCH   1  11
HETATM   11  C   UNL     1       7.317  28.868  56.635  1.00  0.00    -0.009 A 
HETATM   12  C   UNL     1       6.316  29.838  56.745  1.00  0.00     0.016 A 
HETATM   13  C   UNL     1       6.261  30.679  57.861  1.00  0.00     0.030 A 
HETATM   14  C   UNL     1       7.203  30.563  58.883  1.00  0.00     0.034 A 
HETATM   15  C   UNL     1       8.211  29.595  58.766  1.00  0.00     0.030 A 
HETATM   16  C   UNL     1       8.269  28.753  57.650  1.00  0.00     0.016 A 
BRANCH  14  17
HETATM   17  N   UNL     1       7.209  31.364  60.043  1.00  0.00    -0.328 N 
HETATM   18  C   UNL     1       8.106  32.364  60.371  1.00  0.00     0.218 C 
HETATM   19  C   UNL     1       7.778  33.023  61.688  1.00  0.00     0.117 C 
HETATM   20  O   UNL     1       9.060  32.747  59.704  1.00  0.00    -0.274 OA
HETATM   21  H   UNL     1       6.457  31.194  60.700  1.00  0.00     0.169 HD
ENDBRANCH  14  17
ENDBRANCH   1  11
BRANCH   8  22
HETATM   22  C   UNL     1       5.836  27.740  52.248  1.00  0.00    -0.028 A 
HETATM   23  C   UNL     1       5.730  27.253  50.932  1.00  0.00     0.028 A 
HETATM   24  C   UNL     1       4.566  27.467  50.193  1.00  0.00     0.011 A 
HETATM   25 BR   UNL     1       4.449  26.812  48.423  1.00  0.00    -0.051 Br
HETATM   26  C   UNL     1       3.494  28.165  50.743  1.00  0.00     0.019 A 
HETATM   27  C   UNL     1       3.588  28.659  52.042  1.00  0.00     0.002 A 
HETATM   28  C   UNL     1       4.752  28.457  52.787  1.00  0.00     0.010 A 
ENDBRANCH   8  22
BRANCH   6  29
HETATM   29  C   UNL     1       7.632  22.670  52.946  1.00  0.00     0.085 C 
BRANCH  29  30
HETATM   30  C   UNL     1       7.833  21.684  54.097  1.00  0.00     0.034 C 
BRANCH  30  31
HETATM   31  C   UNL     1       8.680  20.477  53.705  1.00  0.00     0.164 C 
BRANCH  31  32
HETATM   32  O   UNL     1       8.199  19.929  52.481  1.00  0.00    -0.401 OA
HETATM   33  H   UNL     1       8.194  20.642  51.821  1.00  0.00     0.209 HD
ENDBRANCH  31  32
ENDBRANCH  30  31
ENDBRANCH  29  30
ENDBRANCH   6  29
TORSDOF 7
ENDMDL
MODEL 9
REMARK VINA RESULT:      -8.8      5.654      7.640
REMARK  7 active torsions:
REMARK  status: ('A' for Active; 'I' for Inactive)
REMARK       I    between atoms: C_2  and  N_3 
REMARK    1  A    between atoms: N_3  and  C_4 
REMARK    2  A    between atoms: C_7  and  C_8 
REMARK    3  A    between atoms: C_13  and  C_14 
REMARK    4  A    between atoms: C_14  and  C_15 
REMARK    5  A    between atoms: C_15  and  C_16 
REMARK    6  A    between atoms: C_16  and  O_17 
REMARK    7  A    between atoms: C_19  and  C_20 
ROOT
HETATM    1  C   UNL     1       5.584  26.170  51.174  1.00  0.00     0.058 A 
HETATM    2  N   UNL     1       4.643  25.584  50.358  1.00  0.00    -0.188 N 
HETATM    3  C   UNL     1       4.018  26.253  49.372  1.00  0.00     0.726 A 
HETATM    4  N   UNL     1       4.305  27.578  49.173  1.00  0.00    -0.084 N 
HETATM    5  N   UNL     1       3.609  28.081  48.129  1.00  0.00    -0.140 NA
HETATM    6  C   UNL     1       2.880  27.011  47.777  1.00  0.00     0.166 A 
HETATM    7  N   UNL     1       3.117  25.868  48.505  1.00  0.00    -0.046 NA
HETATM    8  C   UNL     1       5.272  28.338  49.978  1.00  0.00     0.187 A 
HETATM    9  C   UNL     1       5.936  27.461  51.033  1.00  0.00     0.036 A 
HETATM   10  H   UNL     1       4.416  24.608  50.527  1.00  0.00     0.184 HD
ENDROOT
BRANCH   1  11
HETATM   11  C   UNL     1       6.169  25.346  52.235  1.00  0.00    -0.009 A 
HETATM   12  C   UNL     1       5.450  25.118  53.413  1.00  0.00     0.016 A 
HETATM   13  C   UNL     1       5.984  24.319  54.429  1.00  0.00     0.030 A 
HETATM   14  C   UNL     1       7.243  23.735  54.282  1.00  0.00     0.034 A 
HETATM   15  C   UNL     1       7.965  23.972  53.104  1.00  0.00     0.030 A 
HETATM   16  C   UNL     1       7.433  24.772  52.087  1.00  0.00     0.016 A 
BRANCH  14  17
HETATM   17  N   UNL     1       7.845  22.909  55.253  1.00  0.00    -0.328 N 
HETATM   18  C   UNL     1       7.964  21.531  55.229  1.00  0.00     0.218 C 
HETATM   19  C   UNL     1       8.694  20.994  56.435  1.00  0.00     0.117 C 
HETATM   20  O   UNL     1       7.575  20.773  54.348  1.00  0.00    -0.274 OA
HETATM   21  H   UNL     1       8.249  23.386  56.050  1.00  0.00     0.169 HD
ENDBRANCH  14  17
ENDBRANCH   1  11
BRANCH   8  22
HETATM   22  C   UNL     1       4.641  29.565  50.628  1.00  0.00    -0.028 A 
HETATM   23  C   UNL     1       5.241  30.826  50.458  1.00  0.00     0.028 A 
HETATM   24  C   UNL     1       4.706  31.951  51.087  1.00  0.00     0.011 A 
HETATM   25 BR   UNL     1       5.534  33.634  50.853  1.00  0.00    -0.051 Br
HETATM   26  C   UNL     1       3.575  31.844  51.892  1.00  0.00     0.019 A 
HETATM   27  C   UNL     1       2.975  30.600  52.074  1.00  0.00     0.002 A 
HETATM   28  C   UNL     1       3.507  29.467  51.455  1.00  0.00     0.010 A 
ENDBRANCH   8  22
BRANCH   6  29
HETATM   29  C   UNL     1       1.852  27.059  46.708  1.00  0.00     0.085 C 
BRANCH  29  30
HETATM   30  C   UNL     1       0.657  27.942  47.066  1.00  0.00     0.034 C 
BRANCH  30  31
HETATM   31  C   UNL     1      -0.525  27.756  46.121  1.00  0.00     0.164 C 
BRANCH  31  32
HETATM   32  O   UNL     1      -0.102  27.063  44.951  1.00  0.00    -0.401 OA
HETATM   33  H   UNL     1      -0.407  27.571  44.181  1.00  0.00     0.209 HD
ENDBRANCH  31  32
ENDBRANCH  30  31
ENDBRANCH  29  30
ENDBRANCH   6  29
TORSDOF 7
ENDMDL
MODEL 10
REMARK VINA RESULT:      -8.6      3.654      5.869
REMARK  7 active torsions:
REMARK  status: ('A' for Active; 'I' for Inactive)
REMARK       I    between atoms: C_2  and  N_3 
REMARK    1  A    between atoms: N_3  and  C_4 
REMARK    2  A    between atoms: C_7  and  C_8 
REMARK    3  A    between atoms: C_13  and  C_14 
REMARK    4  A    between atoms: C_14  and  C_15 
REMARK    5  A    between atoms: C_15  and  C_16 
REMARK    6  A    between atoms: C_16  and  O_17 
REMARK    7  A    between atoms: C_19  and  C_20 
ROOT
HETATM    1  C   UNL     1       7.382  28.684  56.719  1.00  0.00     0.058 A 
HETATM    2  N   UNL     1       7.520  27.362  57.078  1.00  0.00    -0.188 N 
HETATM    3  C   UNL     1       7.537  26.362  56.178  1.00  0.00     0.726 A 
HETATM    4  N   UNL     1       7.392  26.654  54.847  1.00  0.00    -0.084 N 
HETATM    5  N   UNL     1       7.459  25.537  54.089  1.00  0.00    -0.140 NA
HETATM    6  C   UNL     1       7.596  24.599  55.038  1.00  0.00     0.166 A 
HETATM    7  N   UNL     1       7.664  25.069  56.328  1.00  0.00    -0.046 NA
HETATM    8  C   UNL     1       7.218  28.015  54.320  1.00  0.00     0.187 A 
HETATM    9  C   UNL     1       7.253  29.056  55.432  1.00  0.00     0.036 A 
HETATM   10  H   UNL     1       7.602  27.150  58.068  1.00  0.00     0.184 HD
ENDROOT
BRANCH   1  11
HETATM   11  C   UNL     1       7.343  29.679  57.793  1.00  0.00    -0.009 A 
HETATM   12  C   UNL     1       8.353  29.695  58.760  1.00  0.00     0.016 A 
HETATM   13  C   UNL     1       8.343  30.650  59.783  1.00  0.00     0.030 A 
HETATM   14  C   UNL     1       7.325  31.601  59.853  1.00  0.00     0.034 A 
HETATM   15  C   UNL     1       6.309  31.577  58.887  1.00  0.00     0.030 A 
HETATM   16  C   UNL     1       6.317  30.623  57.864  1.00  0.00     0.016 A 
BRANCH  14  17
HETATM   17  N   UNL     1       7.250  32.601  60.844  1.00  0.00    -0.328 N 
HETATM   18  C   UNL     1       6.755  32.477  62.129  1.00  0.00     0.218 C 
HETATM   19  C   UNL     1       6.861  33.761  62.915  1.00  0.00     0.117 C 
HETATM   20  O   UNL     1       6.299  31.465  62.650  1.00  0.00    -0.274 OA
HETATM   21  H   UNL     1       7.617  33.509  60.584  1.00  0.00     0.169 HD
ENDBRANCH  14  17
ENDBRANCH   1  11
BRANCH   8  22
HETATM   22  C   UNL     1       5.939  28.155  53.501  1.00  0.00    -0.028 A 
HETATM   23  C   UNL     1       6.016  28.212  52.098  1.00  0.00     0.028 A 
HETATM   24  C   UNL     1       4.860  28.391  51.336  1.00  0.00     0.011 A 
HETATM   25 BR   UNL     1       4.988  28.474  49.451  1.00  0.00    -0.051 Br
HETATM   26  C   UNL     1       3.617  28.518  51.950  1.00  0.00     0.019 A 
HETATM   27  C   UNL     1       3.528  28.471  53.340  1.00  0.00     0.002 A 
HETATM   28  C   UNL     1       4.679  28.299  54.111  1.00  0.00     0.010 A 
ENDBRANCH   8  22
BRANCH   6  29
HETATM   29  C   UNL     1       7.623  23.147  54.730  1.00  0.00     0.085 C 
BRANCH  29  30
HETATM   30  C   UNL     1       8.786  22.415  55.400  1.00  0.00     0.034 C 
BRANCH  30  31
HETATM   31  C   UNL     1       8.361  21.629  56.636  1.00  0.00     0.164 C 
BRANCH  31  32
HETATM   32  O   UNL     1       8.361  22.485  57.774  1.00  0.00    -0.401 OA
HETATM   33  H   UNL     1       8.305  23.401  57.454  1.00  0.00     0.209 HD
ENDBRANCH  31  32
ENDBRANCH  30  31
ENDBRANCH  29  30
ENDBRANCH   6  29
TORSDOF 7
ENDMDL
