MODEL 1
REMARK VINA RESULT:     -10.2      0.000      0.000
REMARK  3 active torsions:
REMARK  status: ('A' for Active; 'I' for Inactive)
REMARK    1  A    between atoms: C_3  and  C_4 
REMARK       I    between atoms: C_4  and  N_5 
REMARK    2  A    between atoms: N_5  and  C_6 
REMARK    3  A    between atoms: C_13  and  C_14 
REMARK       I    between atoms: C_14  and  N_15 
ROOT
HETATM    1  C   UNL     1       6.571  28.143  56.993  1.00  0.00     0.036 A 
HETATM    2  C   UNL     1       7.513  28.988  57.596  1.00  0.00     0.046 A 
HETATM    3  C   UNL     1       7.108  30.253  58.078  1.00  0.00     0.030 A 
HETATM    4  C   UNL     1       5.779  30.632  57.934  1.00  0.00     0.063 A 
HETATM    5  N   UNL     1       5.697  31.882  58.481  1.00  0.00    -0.277 N 
HETATM    6  H   UNL     1       4.873  32.468  58.551  1.00  0.00     0.189 HD
HETATM    7  N   UNL     1       6.854  32.352  58.973  1.00  0.00    -0.168 NA
HETATM    8  C   UNL     1       7.738  31.356  58.730  1.00  0.00     0.156 A 
HETATM    9  C   UNL     1       4.816  29.820  57.336  1.00  0.00     0.034 A 
HETATM   10  C   UNL     1       5.241  28.569  56.869  1.00  0.00     0.032 A 
ENDROOT
BRANCH   1  11
HETATM   11  N   UNL     1       6.871  26.862  56.479  1.00  0.00    -0.322 N 
HETATM   12  C   UNL     1       7.342  26.533  55.219  1.00  0.00     0.273 C 
HETATM   13  O   UNL     1       7.611  27.347  54.344  1.00  0.00    -0.266 OA
HETATM   14  H   UNL     1       6.770  26.096  57.127  1.00  0.00     0.169 HD
BRANCH  12  15
HETATM   15  C   UNL     1       7.519  25.096  55.013  1.00  0.00     0.104 A 
HETATM   16  N   UNL     1       7.744  24.502  53.778  1.00  0.00    -0.346 N 
HETATM   17  C   UNL     1       7.880  25.229  52.529  1.00  0.00     0.156 C 
HETATM   18  C   UNL     1       7.836  23.126  53.900  1.00  0.00     0.045 A 
HETATM   19  C   UNL     1       7.679  22.827  55.253  1.00  0.00    -0.007 A 
HETATM   20  C   UNL     1       8.037  22.117  52.944  1.00  0.00     0.030 A 
HETATM   21  C   UNL     1       7.478  24.055  55.933  1.00  0.00     0.049 A 
HETATM   22  C   UNL     1       7.729  21.483  55.672  1.00  0.00     0.014 A 
HETATM   23  C   UNL     1       7.934  20.473  54.727  1.00  0.00     0.001 A 
HETATM   24  C   UNL     1       8.085  20.788  53.381  1.00  0.00     0.002 A 
ENDBRANCH  12  15
ENDBRANCH   1  11
BRANCH   8  25
HETATM   25  C   UNL     1       9.148  31.481  59.126  1.00  0.00     0.270 C 
HETATM   26  N   UNL     1       9.468  30.801  60.270  1.00  0.00    -0.365 N 
HETATM   27  H   UNL     1       8.740  30.280  60.744  1.00  0.00     0.159 HD
HETATM   28  H   UNL     1      10.413  30.827  60.617  1.00  0.00     0.159 HD
HETATM   29  O   UNL     1       9.993  32.124  58.513  1.00  0.00    -0.266 OA
ENDBRANCH   8  25
TORSDOF 3
ENDMDL
MODEL 2
REMARK VINA RESULT:     -10.0      4.899      7.127
REMARK  3 active torsions:
REMARK  status: ('A' for Active; 'I' for Inactive)
REMARK    1  A    between atoms: C_3  and  C_4 
REMARK       I    between atoms: C_4  and  N_5 
REMARK    2  A    between atoms: N_5  and  C_6 
REMARK    3  A    between atoms: C_13  and  C_14 
REMARK       I    between atoms: C_14  and  N_15 
ROOT
HETATM    1  C   UNL     1       5.188  26.358  52.080  1.00  0.00     0.036 A 
HETATM    2  C   UNL     1       5.121  26.454  50.683  1.00  0.00     0.046 A 
HETATM    3  C   UNL     1       4.456  27.551  50.090  1.00  0.00     0.030 A 
HETATM    4  C   UNL     1       3.877  28.509  50.913  1.00  0.00     0.063 A 
HETATM    5  N   UNL     1       3.318  29.425  50.066  1.00  0.00    -0.277 N 
HETATM    6  H   UNL     1       2.808  30.264  50.320  1.00  0.00     0.189 HD
HETATM    7  N   UNL     1       3.482  29.152  48.763  1.00  0.00    -0.168 NA
HETATM    8  C   UNL     1       4.184  27.995  48.760  1.00  0.00     0.156 A 
HETATM    9  C   UNL     1       3.921  28.444  52.306  1.00  0.00     0.034 A 
HETATM   10  C   UNL     1       4.588  27.349  52.869  1.00  0.00     0.032 A 
ENDROOT
BRANCH   1  11
HETATM   11  N   UNL     1       5.827  25.304  52.771  1.00  0.00    -0.322 N 
HETATM   12  C   UNL     1       7.184  25.086  52.934  1.00  0.00     0.273 C 
HETATM   13  O   UNL     1       8.063  25.830  52.515  1.00  0.00    -0.266 OA
HETATM   14  H   UNL     1       5.215  24.655  53.240  1.00  0.00     0.169 HD
BRANCH  12  15
HETATM   15  C   UNL     1       7.499  23.874  53.689  1.00  0.00     0.104 A 
HETATM   16  N   UNL     1       7.735  23.840  55.058  1.00  0.00    -0.346 N 
HETATM   17  C   UNL     1       7.655  24.995  55.934  1.00  0.00     0.156 C 
HETATM   18  C   UNL     1       8.040  22.557  55.476  1.00  0.00     0.045 A 
HETATM   19  C   UNL     1       7.986  21.739  54.348  1.00  0.00    -0.007 A 
HETATM   20  C   UNL     1       8.363  22.040  56.742  1.00  0.00     0.030 A 
HETATM   21  C   UNL     1       7.655  22.567  53.245  1.00  0.00     0.049 A 
HETATM   22  C   UNL     1       8.257  20.362  54.481  1.00  0.00     0.014 A 
HETATM   23  C   UNL     1       8.575  19.841  55.738  1.00  0.00     0.001 A 
HETATM   24  C   UNL     1       8.628  20.671  56.852  1.00  0.00     0.002 A 
ENDBRANCH  12  15
ENDBRANCH   1  11
BRANCH   8  25
HETATM   25  C   UNL     1       4.576  27.349  47.500  1.00  0.00     0.270 C 
HETATM   26  N   UNL     1       5.865  27.608  47.117  1.00  0.00    -0.365 N 
HETATM   27  H   UNL     1       6.435  28.203  47.706  1.00  0.00     0.159 HD
HETATM   28  H   UNL     1       6.223  27.206  46.266  1.00  0.00     0.159 HD
HETATM   29  O   UNL     1       3.847  26.632  46.823  1.00  0.00    -0.266 OA
ENDBRANCH   8  25
TORSDOF 3
ENDMDL
MODEL 3
REMARK VINA RESULT:      -9.9      1.944      2.614
REMARK  3 active torsions:
REMARK  status: ('A' for Active; 'I' for Inactive)
REMARK    1  A    between atoms: C_3  and  C_4 
REMARK       I    between atoms: C_4  and  N_5 
REMARK    2  A    between atoms: N_5  and  C_6 
REMARK    3  A    between atoms: C_13  and  C_14 
REMARK       I    between atoms: C_14  and  N_15 
ROOT
HETATM    1  C   UNL     1       9.159  28.640  57.275  1.00  0.00     0.036 A 
HETATM    2  C   UNL     1       8.300  29.340  58.135  1.00  0.00     0.046 A 
HETATM    3  C   UNL     1       8.702  30.590  58.657  1.00  0.00     0.030 A 
HETATM    4  C   UNL     1       9.948  31.094  58.308  1.00  0.00     0.063 A 
HETATM    5  N   UNL     1      10.051  32.292  58.958  1.00  0.00    -0.277 N 
HETATM    6  H   UNL     1      10.832  32.938  58.934  1.00  0.00     0.189 HD
HETATM    7  N   UNL     1       8.981  32.617  59.699  1.00  0.00    -0.168 NA
HETATM    8  C   UNL     1       8.137  31.574  59.525  1.00  0.00     0.156 A 
HETATM    9  C   UNL     1      10.830  30.425  57.459  1.00  0.00     0.034 A 
HETATM   10  C   UNL     1      10.408  29.189  56.952  1.00  0.00     0.032 A 
ENDROOT
BRANCH   1  11
HETATM   11  N   UNL     1       8.854  27.387  56.701  1.00  0.00    -0.322 N 
HETATM   12  C   UNL     1       7.614  26.889  56.339  1.00  0.00     0.273 C 
HETATM   13  O   UNL     1       6.561  27.507  56.436  1.00  0.00    -0.266 OA
HETATM   14  H   UNL     1       9.646  26.800  56.488  1.00  0.00     0.169 HD
BRANCH  12  15
HETATM   15  C   UNL     1       7.661  25.532  55.793  1.00  0.00     0.104 A 
HETATM   16  N   UNL     1       7.660  25.232  54.437  1.00  0.00    -0.346 N 
HETATM   17  C   UNL     1       7.659  26.222  53.376  1.00  0.00     0.156 C 
HETATM   18  C   UNL     1       7.674  23.863  54.233  1.00  0.00     0.045 A 
HETATM   19  C   UNL     1       7.700  23.266  55.493  1.00  0.00    -0.007 A 
HETATM   20  C   UNL     1       7.663  23.094  53.057  1.00  0.00     0.030 A 
HETATM   21  C   UNL     1       7.685  24.310  56.452  1.00  0.00     0.049 A 
HETATM   22  C   UNL     1       7.719  21.860  55.590  1.00  0.00     0.014 A 
HETATM   23  C   UNL     1       7.712  21.089  54.424  1.00  0.00     0.001 A 
HETATM   24  C   UNL     1       7.684  21.700  53.175  1.00  0.00     0.002 A 
ENDBRANCH  12  15
ENDBRANCH   1  11
BRANCH   8  25
HETATM   25  C   UNL     1       6.823  31.543  60.182  1.00  0.00     0.270 C 
HETATM   26  N   UNL     1       6.864  31.159  61.495  1.00  0.00    -0.365 N 
HETATM   27  H   UNL     1       7.762  30.932  61.906  1.00  0.00     0.159 HD
HETATM   28  H   UNL     1       6.011  31.111  62.028  1.00  0.00     0.159 HD
HETATM   29  O   UNL     1       5.762  31.831  59.639  1.00  0.00    -0.266 OA
ENDBRANCH   8  25
TORSDOF 3
ENDMDL
MODEL 4
REMARK VINA RESULT:      -9.9      1.684      2.571
REMARK  3 active torsions:
REMARK  status: ('A' for Active; 'I' for Inactive)
REMARK    1  A    between atoms: C_3  and  C_4 
REMARK       I    between atoms: C_4  and  N_5 
REMARK    2  A    between atoms: N_5  and  C_6 
REMARK    3  A    between atoms: C_13  and  C_14 
REMARK       I    between atoms: C_14  and  N_15 
ROOT
HETATM    1  C   UNL     1       7.444  28.100  57.098  1.00  0.00     0.036 A 
HETATM    2  C   UNL     1       6.225  28.748  57.340  1.00  0.00     0.046 A 
HETATM    3  C   UNL     1       6.223  30.041  57.910  1.00  0.00     0.030 A 
HETATM    4  C   UNL     1       7.438  30.638  58.223  1.00  0.00     0.063 A 
HETATM    5  N   UNL     1       7.118  31.858  58.751  1.00  0.00    -0.277 N 
HETATM    6  H   UNL     1       7.758  32.566  59.091  1.00  0.00     0.189 HD
HETATM    7  N   UNL     1       5.801  32.112  58.808  1.00  0.00    -0.168 NA
HETATM    8  C   UNL     1       5.233  30.997  58.292  1.00  0.00     0.156 A 
HETATM    9  C   UNL     1       8.670  30.022  58.000  1.00  0.00     0.034 A 
HETATM   10  C   UNL     1       8.645  28.742  57.431  1.00  0.00     0.032 A 
ENDROOT
BRANCH   1  11
HETATM   11  N   UNL     1       7.557  26.810  56.534  1.00  0.00    -0.322 N 
HETATM   12  C   UNL     1       7.343  26.427  55.221  1.00  0.00     0.273 C 
HETATM   13  O   UNL     1       7.048  27.195  54.313  1.00  0.00    -0.266 OA
HETATM   14  H   UNL     1       7.875  26.086  57.160  1.00  0.00     0.169 HD
BRANCH  12  15
HETATM   15  C   UNL     1       7.524  24.994  54.988  1.00  0.00     0.104 A 
HETATM   16  N   UNL     1       7.777  24.427  53.746  1.00  0.00    -0.346 N 
HETATM   17  C   UNL     1       7.944  25.181  52.517  1.00  0.00     0.156 C 
HETATM   18  C   UNL     1       7.864  23.049  53.840  1.00  0.00     0.045 A 
HETATM   19  C   UNL     1       7.675  22.721  55.182  1.00  0.00    -0.007 A 
HETATM   20  C   UNL     1       8.088  22.060  52.867  1.00  0.00     0.030 A 
HETATM   21  C   UNL     1       7.459  23.934  55.884  1.00  0.00     0.049 A 
HETATM   22  C   UNL     1       7.713  21.367  55.573  1.00  0.00     0.014 A 
HETATM   23  C   UNL     1       7.940  20.379  54.611  1.00  0.00     0.001 A 
HETATM   24  C   UNL     1       8.123  20.722  53.276  1.00  0.00     0.002 A 
ENDBRANCH  12  15
ENDBRANCH   1  11
BRANCH   8  25
HETATM   25  C   UNL     1       3.773  30.874  58.175  1.00  0.00     0.270 C 
HETATM   26  N   UNL     1       3.161  30.396  59.302  1.00  0.00    -0.365 N 
HETATM   27  H   UNL     1       3.734  30.170  60.106  1.00  0.00     0.159 HD
HETATM   28  H   UNL     1       2.161  30.280  59.315  1.00  0.00     0.159 HD
HETATM   29  O   UNL     1       3.124  31.165  57.176  1.00  0.00    -0.266 OA
ENDBRANCH   8  25
TORSDOF 3
ENDMDL
MODEL 5
REMARK VINA RESULT:      -9.8      2.670      3.599
REMARK  3 active torsions:
REMARK  status: ('A' for Active; 'I' for Inactive)
REMARK    1  A    between atoms: C_3  and  C_4 
REMARK       I    between atoms: C_4  and  N_5 
REMARK    2  A    between atoms: N_5  and  C_6 
REMARK    3  A    between atoms: C_13  and  C_14 
REMARK       I    between atoms: C_14  and  N_15 
ROOT
HETATM    1  C   UNL     1       4.622  27.849  54.600  1.00  0.00     0.036 A 
HETATM    2  C   UNL     1       4.485  28.581  55.787  1.00  0.00     0.046 A 
HETATM    3  C   UNL     1       3.804  29.819  55.769  1.00  0.00     0.030 A 
HETATM    4  C   UNL     1       3.289  30.285  54.566  1.00  0.00     0.063 A 
HETATM    5  N   UNL     1       2.702  31.483  54.861  1.00  0.00    -0.277 N 
HETATM    6  H   UNL     1       2.224  32.106  54.220  1.00  0.00     0.189 HD
HETATM    7  N   UNL     1       2.784  31.841  56.151  1.00  0.00    -0.168 NA
HETATM    8  C   UNL     1       3.464  30.822  56.727  1.00  0.00     0.156 A 
HETATM    9  C   UNL     1       3.410  29.586  53.364  1.00  0.00     0.034 A 
HETATM   10  C   UNL     1       4.086  28.359  53.409  1.00  0.00     0.032 A 
ENDROOT
BRANCH   1  11
HETATM   11  N   UNL     1       5.283  26.604  54.509  1.00  0.00    -0.322 N 
HETATM   12  C   UNL     1       6.641  26.363  54.385  1.00  0.00     0.273 C 
HETATM   13  O   UNL     1       7.503  27.233  54.372  1.00  0.00    -0.266 OA
HETATM   14  H   UNL     1       4.695  25.790  54.589  1.00  0.00     0.169 HD
BRANCH  12  15
HETATM   15  C   UNL     1       6.980  24.943  54.289  1.00  0.00     0.104 A 
HETATM   16  N   UNL     1       7.157  24.103  55.381  1.00  0.00    -0.346 N 
HETATM   17  C   UNL     1       6.983  24.507  56.765  1.00  0.00     0.156 C 
HETATM   18  C   UNL     1       7.505  22.827  54.973  1.00  0.00     0.045 A 
HETATM   19  C   UNL     1       7.540  22.843  53.580  1.00  0.00    -0.007 A 
HETATM   20  C   UNL     1       7.797  21.662  55.702  1.00  0.00     0.030 A 
HETATM   21  C   UNL     1       7.219  24.161  53.167  1.00  0.00     0.049 A 
HETATM   22  C   UNL     1       7.872  21.662  52.885  1.00  0.00     0.014 A 
HETATM   23  C   UNL     1       8.159  20.498  53.603  1.00  0.00     0.001 A 
HETATM   24  C   UNL     1       8.122  20.500  54.993  1.00  0.00     0.002 A 
ENDBRANCH  12  15
ENDBRANCH   1  11
BRANCH   8  25
HETATM   25  C   UNL     1       3.768  30.830  58.165  1.00  0.00     0.270 C 
HETATM   26  N   UNL     1       5.104  30.757  58.455  1.00  0.00    -0.365 N 
HETATM   27  H   UNL     1       5.763  30.705  57.688  1.00  0.00     0.159 HD
HETATM   28  H   UNL     1       5.407  30.758  59.415  1.00  0.00     0.159 HD
HETATM   29  O   UNL     1       2.929  30.897  59.057  1.00  0.00    -0.266 OA
ENDBRANCH   8  25
TORSDOF 3
ENDMDL
MODEL 6
REMARK VINA RESULT:      -9.6      4.179      9.806
REMARK  3 active torsions:
REMARK  status: ('A' for Active; 'I' for Inactive)
REMARK    1  A    between atoms: C_3  and  C_4 
REMARK       I    between atoms: C_4  and  N_5 
REMARK    2  A    between atoms: N_5  and  C_6 
REMARK    3  A    between atoms: C_13  and  C_14 
REMARK       I    between atoms: C_14  and  N_15 
ROOT
HETATM    1  C   UNL     1       7.518  30.239  58.268  1.00  0.00     0.036 A 
HETATM    2  C   UNL     1       6.500  29.692  57.474  1.00  0.00     0.046 A 
HETATM    3  C   UNL     1       6.829  29.082  56.242  1.00  0.00     0.030 A 
HETATM    4  C   UNL     1       8.159  29.046  55.844  1.00  0.00     0.063 A 
HETATM    5  N   UNL     1       8.160  28.409  54.635  1.00  0.00    -0.277 N 
HETATM    6  H   UNL     1       8.962  28.206  54.049  1.00  0.00     0.189 HD
HETATM    7  N   UNL     1       6.948  28.023  54.209  1.00  0.00    -0.168 NA
HETATM    8  C   UNL     1       6.112  28.432  55.191  1.00  0.00     0.156 A 
HETATM    9  C   UNL     1       9.197  29.584  56.606  1.00  0.00     0.034 A 
HETATM   10  C   UNL     1       8.847  30.180  57.824  1.00  0.00     0.032 A 
ENDROOT
BRANCH   1  11
HETATM   11  N   UNL     1       7.297  30.870  59.512  1.00  0.00    -0.322 N 
HETATM   12  C   UNL     1       6.729  32.109  59.756  1.00  0.00     0.273 C 
HETATM   13  O   UNL     1       6.284  32.852  58.890  1.00  0.00    -0.266 OA
HETATM   14  H   UNL     1       7.546  30.330  60.327  1.00  0.00     0.169 HD
BRANCH  12  15
HETATM   15  C   UNL     1       6.680  32.466  61.174  1.00  0.00     0.104 A 
HETATM   16  N   UNL     1       5.509  32.591  61.911  1.00  0.00    -0.346 N 
HETATM   17  C   UNL     1       4.178  32.340  61.389  1.00  0.00     0.156 C 
HETATM   18  C   UNL     1       5.783  32.972  63.213  1.00  0.00     0.045 A 
HETATM   19  C   UNL     1       7.169  33.082  63.321  1.00  0.00    -0.007 A 
HETATM   20  C   UNL     1       4.939  33.235  64.305  1.00  0.00     0.030 A 
HETATM   21  C   UNL     1       7.714  32.771  62.049  1.00  0.00     0.049 A 
HETATM   22  C   UNL     1       7.737  33.460  64.554  1.00  0.00     0.014 A 
HETATM   23  C   UNL     1       6.904  33.719  65.646  1.00  0.00     0.001 A 
HETATM   24  C   UNL     1       5.523  33.608  65.521  1.00  0.00     0.002 A 
ENDBRANCH  12  15
ENDBRANCH   1  11
BRANCH   8  25
HETATM   25  C   UNL     1       4.665  28.193  55.105  1.00  0.00     0.270 C 
HETATM   26  N   UNL     1       4.139  27.554  56.196  1.00  0.00    -0.365 N 
HETATM   27  H   UNL     1       4.759  27.301  56.955  1.00  0.00     0.159 HD
HETATM   28  H   UNL     1       3.153  27.349  56.226  1.00  0.00     0.159 HD
HETATM   29  O   UNL     1       3.956  28.522  54.161  1.00  0.00    -0.266 OA
ENDBRANCH   8  25
TORSDOF 3
ENDMDL
MODEL 7
REMARK VINA RESULT:      -9.3      2.195      3.289
REMARK  3 active torsions:
REMARK  status: ('A' for Active; 'I' for Inactive)
REMARK    1  A    between atoms: C_3  and  C_4 
REMARK       I    between atoms: C_4  and  N_5 
REMARK    2  A    between atoms: N_5  and  C_6 
REMARK    3  A    between atoms: C_13  and  C_14 
REMARK       I    between atoms: C_14  and  N_15 
ROOT
HETATM    1  C   UNL     1       7.245  27.766  56.656  1.00  0.00     0.036 A 
HETATM    2  C   UNL     1       6.302  28.707  56.222  1.00  0.00     0.046 A 
HETATM    3  C   UNL     1       6.232  29.969  56.855  1.00  0.00     0.030 A 
HETATM    4  C   UNL     1       7.102  30.242  57.903  1.00  0.00     0.063 A 
HETATM    5  N   UNL     1       6.797  31.513  58.306  1.00  0.00    -0.277 N 
HETATM    6  H   UNL     1       7.234  32.041  59.053  1.00  0.00     0.189 HD
HETATM    7  N   UNL     1       5.807  32.094  57.612  1.00  0.00    -0.168 NA
HETATM    8  C   UNL     1       5.446  31.152  56.710  1.00  0.00     0.156 A 
HETATM    9  C   UNL     1       8.050  29.329  58.365  1.00  0.00     0.034 A 
HETATM   10  C   UNL     1       8.102  28.087  57.719  1.00  0.00     0.032 A 
ENDROOT
BRANCH   1  11
HETATM   11  N   UNL     1       7.397  26.479  56.093  1.00  0.00    -0.322 N 
HETATM   12  C   UNL     1       6.582  25.372  56.255  1.00  0.00     0.273 C 
HETATM   13  O   UNL     1       5.547  25.360  56.911  1.00  0.00    -0.266 OA
HETATM   14  H   UNL     1       8.172  26.369  55.458  1.00  0.00     0.169 HD
BRANCH  12  15
HETATM   15  C   UNL     1       7.054  24.184  55.543  1.00  0.00     0.104 A 
HETATM   16  N   UNL     1       7.875  23.212  56.098  1.00  0.00    -0.346 N 
HETATM   17  C   UNL     1       8.340  23.215  57.473  1.00  0.00     0.156 C 
HETATM   18  C   UNL     1       8.178  22.231  55.170  1.00  0.00     0.045 A 
HETATM   19  C   UNL     1       7.523  22.575  53.988  1.00  0.00    -0.007 A 
HETATM   20  C   UNL     1       8.973  21.075  55.259  1.00  0.00     0.030 A 
HETATM   21  C   UNL     1       6.834  23.791  54.229  1.00  0.00     0.049 A 
HETATM   22  C   UNL     1       7.656  21.743  52.858  1.00  0.00     0.014 A 
HETATM   23  C   UNL     1       8.440  20.589  52.941  1.00  0.00     0.001 A 
HETATM   24  C   UNL     1       9.090  20.262  54.126  1.00  0.00     0.002 A 
ENDBRANCH  12  15
ENDBRANCH   1  11
BRANCH   8  25
HETATM   25  C   UNL     1       4.370  31.403  55.740  1.00  0.00     0.270 C 
HETATM   26  N   UNL     1       4.812  31.641  54.467  1.00  0.00    -0.365 N 
HETATM   27  H   UNL     1       5.809  31.628  54.289  1.00  0.00     0.159 HD
HETATM   28  H   UNL     1       4.146  31.822  53.734  1.00  0.00     0.159 HD
HETATM   29  O   UNL     1       3.174  31.405  56.007  1.00  0.00    -0.266 OA
ENDBRANCH   8  25
TORSDOF 3
ENDMDL
MODEL 8
REMARK VINA RESULT:      -9.3      2.660      8.917
REMARK  3 active torsions:
REMARK  status: ('A' for Active; 'I' for Inactive)
REMARK    1  A    between atoms: C_3  and  C_4 
REMARK       I    between atoms: C_4  and  N_5 
REMARK    2  A    between atoms: N_5  and  C_6 
REMARK    3  A    between atoms: C_13  and  C_14 
REMARK       I    between atoms: C_14  and  N_15 
ROOT
HETATM    1  C   UNL     1       7.253  27.704  57.333  1.00  0.00     0.036 A 
HETATM    2  C   UNL     1       6.521  27.823  56.143  1.00  0.00     0.046 A 
HETATM    3  C   UNL     1       6.536  26.766  55.206  1.00  0.00     0.030 A 
HETATM    4  C   UNL     1       7.284  25.630  55.487  1.00  0.00     0.063 A 
HETATM    5  N   UNL     1       7.106  24.803  54.413  1.00  0.00    -0.277 N 
HETATM    6  H   UNL     1       7.507  23.882  54.275  1.00  0.00     0.189 HD
HETATM    7  N   UNL     1       6.305  25.296  53.457  1.00  0.00    -0.168 NA
HETATM    8  C   UNL     1       5.943  26.511  53.931  1.00  0.00     0.156 A 
HETATM    9  C   UNL     1       8.028  25.478  56.657  1.00  0.00     0.034 A 
HETATM   10  C   UNL     1       7.995  26.538  57.572  1.00  0.00     0.032 A 
ENDROOT
BRANCH   1  11
HETATM   11  N   UNL     1       7.307  28.700  58.333  1.00  0.00    -0.322 N 
HETATM   12  C   UNL     1       8.197  29.754  58.445  1.00  0.00     0.273 C 
HETATM   13  O   UNL     1       9.083  30.005  57.636  1.00  0.00    -0.266 OA
HETATM   14  H   UNL     1       6.577  28.662  59.027  1.00  0.00     0.169 HD
BRANCH  12  15
HETATM   15  C   UNL     1       7.980  30.585  59.629  1.00  0.00     0.104 A 
HETATM   16  N   UNL     1       7.035  31.600  59.713  1.00  0.00    -0.346 N 
HETATM   17  C   UNL     1       6.102  31.943  58.655  1.00  0.00     0.156 C 
HETATM   18  C   UNL     1       7.091  32.228  60.944  1.00  0.00     0.045 A 
HETATM   19  C   UNL     1       8.091  31.592  61.679  1.00  0.00    -0.007 A 
HETATM   20  C   UNL     1       6.358  33.301  61.479  1.00  0.00     0.030 A 
HETATM   21  C   UNL     1       8.639  30.579  60.851  1.00  0.00     0.049 A 
HETATM   22  C   UNL     1       8.370  32.032  62.989  1.00  0.00     0.014 A 
HETATM   23  C   UNL     1       7.642  33.095  63.528  1.00  0.00     0.001 A 
HETATM   24  C   UNL     1       6.650  33.721  62.781  1.00  0.00     0.002 A 
ENDBRANCH  12  15
ENDBRANCH   1  11
BRANCH   8  25
HETATM   25  C   UNL     1       5.048  27.389  53.165  1.00  0.00     0.270 C 
HETATM   26  N   UNL     1       3.718  27.184  53.414  1.00  0.00    -0.365 N 
HETATM   27  H   UNL     1       3.454  26.470  54.082  1.00  0.00     0.159 HD
HETATM   28  H   UNL     1       3.029  27.742  52.935  1.00  0.00     0.159 HD
HETATM   29  O   UNL     1       5.419  28.243  52.367  1.00  0.00    -0.266 OA
ENDBRANCH   8  25
TORSDOF 3
ENDMDL
MODEL 9
REMARK VINA RESULT:      -9.1      3.320      4.767
REMARK  3 active torsions:
REMARK  status: ('A' for Active; 'I' for Inactive)
REMARK    1  A    between atoms: C_3  and  C_4 
REMARK       I    between atoms: C_4  and  N_5 
REMARK    2  A    between atoms: N_5  and  C_6 
REMARK    3  A    between atoms: C_13  and  C_14 
REMARK       I    between atoms: C_14  and  N_15 
ROOT
HETATM    1  C   UNL     1       4.878  27.801  54.760  1.00  0.00     0.036 A 
HETATM    2  C   UNL     1       4.458  28.597  53.685  1.00  0.00     0.046 A 
HETATM    3  C   UNL     1       3.834  29.839  53.940  1.00  0.00     0.030 A 
HETATM    4  C   UNL     1       3.646  30.239  55.257  1.00  0.00     0.063 A 
HETATM    5  N   UNL     1       3.028  31.455  55.182  1.00  0.00    -0.277 N 
HETATM    6  H   UNL     1       2.737  32.044  55.955  1.00  0.00     0.189 HD
HETATM    7  N   UNL     1       2.797  31.888  53.933  1.00  0.00    -0.168 NA
HETATM    8  C   UNL     1       3.289  30.898  53.152  1.00  0.00     0.156 A 
HETATM    9  C   UNL     1       4.047  29.471  56.350  1.00  0.00     0.034 A 
HETATM   10  C   UNL     1       4.667  28.246  56.073  1.00  0.00     0.032 A 
ENDROOT
BRANCH   1  11
HETATM   11  N   UNL     1       5.510  26.546  54.615  1.00  0.00    -0.322 N 
HETATM   12  C   UNL     1       6.834  26.284  54.309  1.00  0.00     0.273 C 
HETATM   13  O   UNL     1       7.693  27.142  54.148  1.00  0.00    -0.266 OA
HETATM   14  H   UNL     1       4.931  25.741  54.802  1.00  0.00     0.169 HD
BRANCH  12  15
HETATM   15  C   UNL     1       7.145  24.857  54.210  1.00  0.00     0.104 A 
HETATM   16  N   UNL     1       7.285  24.008  55.300  1.00  0.00    -0.346 N 
HETATM   17  C   UNL     1       7.097  24.407  56.683  1.00  0.00     0.156 C 
HETATM   18  C   UNL     1       7.613  22.727  54.890  1.00  0.00     0.045 A 
HETATM   19  C   UNL     1       7.672  22.750  53.497  1.00  0.00    -0.007 A 
HETATM   20  C   UNL     1       7.868  21.552  55.616  1.00  0.00     0.030 A 
HETATM   21  C   UNL     1       7.385  24.077  53.087  1.00  0.00     0.049 A 
HETATM   22  C   UNL     1       7.989  21.566  52.801  1.00  0.00     0.014 A 
HETATM   23  C   UNL     1       8.239  20.392  53.517  1.00  0.00     0.001 A 
HETATM   24  C   UNL     1       8.180  20.387  54.906  1.00  0.00     0.002 A 
ENDBRANCH  12  15
ENDBRANCH   1  11
BRANCH   8  25
HETATM   25  C   UNL     1       3.231  30.990  51.686  1.00  0.00     0.270 C 
HETATM   26  N   UNL     1       2.091  30.465  51.139  1.00  0.00    -0.365 N 
HETATM   27  H   UNL     1       1.395  30.066  51.758  1.00  0.00     0.159 HD
HETATM   28  H   UNL     1       1.962  30.484  50.141  1.00  0.00     0.159 HD
HETATM   29  O   UNL     1       4.101  31.486  50.980  1.00  0.00    -0.266 OA
ENDBRANCH   8  25
TORSDOF 3
ENDMDL
MODEL 10
REMARK VINA RESULT:      -9.0      3.540      9.473
REMARK  3 active torsions:
REMARK  status: ('A' for Active; 'I' for Inactive)
REMARK    1  A    between atoms: C_3  and  C_4 
REMARK       I    between atoms: C_4  and  N_5 
REMARK    2  A    between atoms: N_5  and  C_6 
REMARK    3  A    between atoms: C_13  and  C_14 
REMARK       I    between atoms: C_14  and  N_15 
ROOT
HETATM    1  C   UNL     1       6.998  29.385  57.704  1.00  0.00     0.036 A 
HETATM    2  C   UNL     1       6.245  29.551  56.533  1.00  0.00     0.046 A 
HETATM    3  C   UNL     1       6.348  28.598  55.496  1.00  0.00     0.030 A 
HETATM    4  C   UNL     1       7.203  27.516  55.661  1.00  0.00     0.063 A 
HETATM    5  N   UNL     1       7.092  26.785  54.512  1.00  0.00    -0.277 N 
HETATM    6  H   UNL     1       7.576  25.925  54.282  1.00  0.00     0.189 HD
HETATM    7  N   UNL     1       6.237  27.292  53.610  1.00  0.00    -0.168 NA
HETATM    8  C   UNL     1       5.768  28.415  54.204  1.00  0.00     0.156 A 
HETATM    9  C   UNL     1       7.971  27.320  56.809  1.00  0.00     0.034 A 
HETATM   10  C   UNL     1       7.849  28.277  57.825  1.00  0.00     0.032 A 
ENDROOT
BRANCH   1  11
HETATM   11  N   UNL     1       6.969  30.279  58.798  1.00  0.00    -0.322 N 
HETATM   12  C   UNL     1       7.855  31.300  59.093  1.00  0.00     0.273 C 
HETATM   13  O   UNL     1       8.815  31.611  58.397  1.00  0.00    -0.266 OA
HETATM   14  H   UNL     1       6.178  30.187  59.415  1.00  0.00     0.169 HD
BRANCH  12  15
HETATM   15  C   UNL     1       7.538  32.017  60.328  1.00  0.00     0.104 A 
HETATM   16  N   UNL     1       8.175  31.805  61.544  1.00  0.00    -0.346 N 
HETATM   17  C   UNL     1       9.274  30.879  61.745  1.00  0.00     0.156 C 
HETATM   18  C   UNL     1       7.633  32.607  62.533  1.00  0.00     0.045 A 
HETATM   19  C   UNL     1       6.627  33.365  61.934  1.00  0.00    -0.007 A 
HETATM   20  C   UNL     1       7.931  32.732  63.901  1.00  0.00     0.030 A 
HETATM   21  C   UNL     1       6.574  32.987  60.569  1.00  0.00     0.049 A 
HETATM   22  C   UNL     1       5.896  34.281  62.717  1.00  0.00     0.014 A 
HETATM   23  C   UNL     1       6.190  34.414  64.077  1.00  0.00     0.001 A 
HETATM   24  C   UNL     1       7.193  33.648  64.659  1.00  0.00     0.002 A 
ENDBRANCH  12  15
ENDBRANCH   1  11
BRANCH   8  25
HETATM   25  C   UNL     1       4.785  29.275  53.530  1.00  0.00     0.270 C 
HETATM   26  N   UNL     1       5.218  29.789  52.337  1.00  0.00    -0.365 N 
HETATM   27  H   UNL     1       6.148  29.550  52.015  1.00  0.00     0.159 HD
HETATM   28  H   UNL     1       4.610  30.389  51.803  1.00  0.00     0.159 HD
HETATM   29  O   UNL     1       3.667  29.532  53.962  1.00  0.00    -0.266 OA
ENDBRANCH   8  25
TORSDOF 3
ENDMDL
