MODEL 1
REMARK VINA RESULT:      -8.8      0.000      0.000
REMARK  3 active torsions:
REMARK  status: ('A' for Active; 'I' for Inactive)
REMARK    1  A    between atoms: C_3  and  N_4 
REMARK       I    between atoms: N_4  and  C_5 
REMARK    2  A    between atoms: C_5  and  C_6 
REMARK    3  A    between atoms: C_6  and  C_7 
ROOT
HETATM    1  C   UNL     1       7.602  25.559  56.532  1.00  0.00     0.286 C 
HETATM    2  N   UNL     1       6.409  25.117  55.686  1.00  0.00    -0.056 N 
HETATM    3  H   UNL     1       5.706  24.761  56.370  1.00  0.00     0.278 HD
HETATM    4  H   UNL     1       5.969  25.922  55.226  1.00  0.00     0.278 HD
HETATM    5  C   UNL     1       6.702  24.013  54.709  1.00  0.00     0.209 C 
HETATM    6  C   UNL     1       7.350  22.825  55.461  1.00  0.00     0.115 C 
HETATM    7  N   UNL     1       8.468  23.234  56.309  1.00  0.00    -0.353 N 
HETATM    8  C   UNL     1       8.455  24.384  57.058  1.00  0.00     0.249 C 
HETATM    9  O   UNL     1       9.173  24.479  58.047  1.00  0.00    -0.271 OA
HETATM   10  C   UNL     1       7.563  24.541  53.560  1.00  0.00     0.035 C 
HETATM   11  C   UNL     1       7.956  23.414  52.607  1.00  0.00     0.002 C 
HETATM   12  C   UNL     1       8.649  22.271  53.345  1.00  0.00     0.002 C 
HETATM   13  C   UNL     1       7.782  21.729  54.483  1.00  0.00     0.027 C 
HETATM   14  H   UNL     1       9.021  22.499  56.749  1.00  0.00     0.163 HD
ENDROOT
BRANCH   1  15
HETATM   15  C   UNL     1       7.147  26.459  57.686  1.00  0.00     0.146 C 
BRANCH  15  16
HETATM   16  C   UNL     1       6.324  27.604  57.146  1.00  0.00     0.224 C 
HETATM   17  N   UNL     1       6.833  28.852  56.976  1.00  0.00    -0.325 N 
HETATM   18  H   UNL     1       6.111  29.552  56.831  1.00  0.00     0.169 HD
HETATM   19  O   UNL     1       5.128  27.391  56.898  1.00  0.00    -0.273 OA
BRANCH  17  20
HETATM   20  C   UNL     1       8.152  29.348  57.039  1.00  0.00     0.073 A 
HETATM   21  C   UNL     1       8.519  30.002  58.224  1.00  0.00     0.033 A 
HETATM   22  C   UNL     1       9.810  30.512  58.390  1.00  0.00     0.002 A 
HETATM   23  C   UNL     1      10.744  30.402  57.362  1.00  0.00     0.003 A 
HETATM   24  C   UNL     1      10.380  29.797  56.163  1.00  0.00     0.044 A 
HETATM   25  C   UNL     1       9.093  29.284  56.005  1.00  0.00     0.143 A 
HETATM   26  F   UNL     1       8.766  28.796  54.800  1.00  0.00    -0.204 F 
ENDBRANCH  17  20
ENDBRANCH  15  16
ENDBRANCH   1  15
TORSDOF 3
ENDMDL
MODEL 2
REMARK VINA RESULT:      -8.6      3.342      6.535
REMARK  3 active torsions:
REMARK  status: ('A' for Active; 'I' for Inactive)
REMARK    1  A    between atoms: C_3  and  N_4 
REMARK       I    between atoms: N_4  and  C_5 
REMARK    2  A    between atoms: C_5  and  C_6 
REMARK    3  A    between atoms: C_6  and  C_7 
ROOT
HETATM    1  C   UNL     1       6.212  25.150  56.080  1.00  0.00     0.286 C 
HETATM    2  N   UNL     1       7.115  26.211  55.455  1.00  0.00    -0.056 N 
HETATM    3  H   UNL     1       7.678  26.591  56.246  1.00  0.00     0.278 HD
HETATM    4  H   UNL     1       7.790  25.784  54.811  1.00  0.00     0.278 HD
HETATM    5  C   UNL     1       6.389  27.360  54.813  1.00  0.00     0.209 C 
HETATM    6  C   UNL     1       5.398  27.972  55.833  1.00  0.00     0.115 C 
HETATM    7  N   UNL     1       4.552  26.965  56.473  1.00  0.00    -0.353 N 
HETATM    8  C   UNL     1       5.022  25.738  56.870  1.00  0.00     0.249 C 
HETATM    9  O   UNL     1       4.444  25.117  57.755  1.00  0.00    -0.271 OA
HETATM   10  C   UNL     1       5.713  26.899  53.519  1.00  0.00     0.035 C 
HETATM   11  C   UNL     1       4.887  28.025  52.901  1.00  0.00     0.002 C 
HETATM   12  C   UNL     1       3.870  28.584  53.893  1.00  0.00     0.002 C 
HETATM   13  C   UNL     1       4.544  29.063  55.180  1.00  0.00     0.027 C 
HETATM   14  H   UNL     1       3.797  27.295  57.073  1.00  0.00     0.163 HD
ENDROOT
BRANCH   1  15
HETATM   15  C   UNL     1       7.025  24.192  56.957  1.00  0.00     0.146 C 
BRANCH  15  16
HETATM   16  C   UNL     1       8.500  24.392  56.700  1.00  0.00     0.224 C 
HETATM   17  N   UNL     1       9.223  23.554  55.912  1.00  0.00    -0.325 N 
HETATM   18  H   UNL     1      10.225  23.682  56.023  1.00  0.00     0.169 HD
HETATM   19  O   UNL     1       9.065  25.333  57.275  1.00  0.00    -0.273 OA
BRANCH  17  20
HETATM   20  C   UNL     1       8.838  22.512  55.043  1.00  0.00     0.073 A 
HETATM   21  C   UNL     1       8.297  22.896  53.808  1.00  0.00     0.033 A 
HETATM   22  C   UNL     1       7.902  21.936  52.871  1.00  0.00     0.002 A 
HETATM   23  C   UNL     1       8.014  20.580  53.167  1.00  0.00     0.003 A 
HETATM   24  C   UNL     1       8.506  20.184  54.407  1.00  0.00     0.044 A 
HETATM   25  C   UNL     1       8.904  21.145  55.336  1.00  0.00     0.143 A 
HETATM   26  F   UNL     1       9.281  20.713  56.547  1.00  0.00    -0.204 F 
ENDBRANCH  17  20
ENDBRANCH  15  16
ENDBRANCH   1  15
TORSDOF 3
ENDMDL
MODEL 3
REMARK VINA RESULT:      -8.6      1.534      1.974
REMARK  3 active torsions:
REMARK  status: ('A' for Active; 'I' for Inactive)
REMARK    1  A    between atoms: C_3  and  N_4 
REMARK       I    between atoms: N_4  and  C_5 
REMARK    2  A    between atoms: C_5  and  C_6 
REMARK    3  A    between atoms: C_6  and  C_7 
ROOT
HETATM    1  C   UNL     1       8.013  24.862  55.601  1.00  0.00     0.286 C 
HETATM    2  N   UNL     1       6.891  24.188  54.816  1.00  0.00    -0.056 N 
HETATM    3  H   UNL     1       6.056  24.233  55.439  1.00  0.00     0.278 HD
HETATM    4  H   UNL     1       6.647  24.734  53.982  1.00  0.00     0.278 HD
HETATM    5  C   UNL     1       7.136  22.743  54.478  1.00  0.00     0.209 C 
HETATM    6  C   UNL     1       7.483  21.968  55.772  1.00  0.00     0.115 C 
HETATM    7  N   UNL     1       8.528  22.622  56.560  1.00  0.00    -0.353 N 
HETATM    8  C   UNL     1       8.595  23.982  56.729  1.00  0.00     0.249 C 
HETATM    9  O   UNL     1       9.179  24.451  57.700  1.00  0.00    -0.271 OA
HETATM   10  C   UNL     1       8.216  22.630  53.400  1.00  0.00     0.035 C 
HETATM   11  C   UNL     1       8.552  21.168  53.113  1.00  0.00     0.002 C 
HETATM   12  C   UNL     1       8.952  20.424  54.384  1.00  0.00     0.002 C 
HETATM   13  C   UNL     1       7.867  20.520  55.457  1.00  0.00     0.027 C 
HETATM   14  H   UNL     1       8.895  22.119  57.367  1.00  0.00     0.163 HD
ENDROOT
BRANCH   1  15
HETATM   15  C   UNL     1       7.554  26.217  56.151  1.00  0.00     0.146 C 
BRANCH  15  16
HETATM   16  C   UNL     1       7.485  27.226  55.030  1.00  0.00     0.224 C 
HETATM   17  N   UNL     1       7.868  28.519  55.187  1.00  0.00    -0.325 N 
HETATM   18  H   UNL     1       7.549  29.117  54.429  1.00  0.00     0.169 HD
HETATM   19  O   UNL     1       7.013  26.854  53.945  1.00  0.00    -0.273 OA
BRANCH  17  20
HETATM   20  C   UNL     1       8.552  29.179  56.230  1.00  0.00     0.073 A 
HETATM   21  C   UNL     1       9.892  29.510  55.988  1.00  0.00     0.033 A 
HETATM   22  C   UNL     1      10.649  30.180  56.954  1.00  0.00     0.002 A 
HETATM   23  C   UNL     1      10.086  30.503  58.186  1.00  0.00     0.003 A 
HETATM   24  C   UNL     1       8.770  30.140  58.458  1.00  0.00     0.044 A 
HETATM   25  C   UNL     1       8.018  29.476  57.489  1.00  0.00     0.143 A 
HETATM   26  F   UNL     1       6.789  29.067  57.835  1.00  0.00    -0.204 F 
ENDBRANCH  17  20
ENDBRANCH  15  16
ENDBRANCH   1  15
TORSDOF 3
ENDMDL
MODEL 4
REMARK VINA RESULT:      -8.5      3.369      4.573
REMARK  3 active torsions:
REMARK  status: ('A' for Active; 'I' for Inactive)
REMARK    1  A    between atoms: C_3  and  N_4 
REMARK       I    between atoms: N_4  and  C_5 
REMARK    2  A    between atoms: C_5  and  C_6 
REMARK    3  A    between atoms: C_6  and  C_7 
ROOT
HETATM    1  C   UNL     1       7.915  24.533  54.942  1.00  0.00     0.286 C 
HETATM    2  N   UNL     1       6.867  23.617  54.314  1.00  0.00    -0.056 N 
HETATM    3  H   UNL     1       6.020  23.718  54.914  1.00  0.00     0.278 HD
HETATM    4  H   UNL     1       6.593  23.957  53.385  1.00  0.00     0.278 HD
HETATM    5  C   UNL     1       7.238  22.161  54.284  1.00  0.00     0.209 C 
HETATM    6  C   UNL     1       7.626  21.702  55.710  1.00  0.00     0.115 C 
HETATM    7  N   UNL     1       8.598  22.592  56.345  1.00  0.00    -0.353 N 
HETATM    8  C   UNL     1       8.548  23.958  56.228  1.00  0.00     0.249 C 
HETATM    9  O   UNL     1       9.073  24.666  57.081  1.00  0.00    -0.271 OA
HETATM   10  C   UNL     1       8.343  21.920  53.252  1.00  0.00     0.035 C 
HETATM   11  C   UNL     1       8.806  20.465  53.274  1.00  0.00     0.002 C 
HETATM   12  C   UNL     1       9.244  20.037  54.672  1.00  0.00     0.002 C 
HETATM   13  C   UNL     1       8.136  20.258  55.702  1.00  0.00     0.027 C 
HETATM   14  H   UNL     1       8.992  22.300  57.239  1.00  0.00     0.163 HD
ENDROOT
BRANCH   1  15
HETATM   15  C   UNL     1       7.334  25.928  55.200  1.00  0.00     0.146 C 
BRANCH  15  16
HETATM   16  C   UNL     1       5.843  25.826  55.422  1.00  0.00     0.224 C 
HETATM   17  N   UNL     1       4.938  26.238  54.499  1.00  0.00    -0.325 N 
HETATM   18  H   UNL     1       3.999  26.321  54.880  1.00  0.00     0.169 HD
HETATM   19  O   UNL     1       5.450  25.392  56.515  1.00  0.00    -0.273 OA
BRANCH  17  20
HETATM   20  C   UNL     1       5.080  26.633  53.152  1.00  0.00     0.073 A 
HETATM   21  C   UNL     1       5.259  28.004  52.918  1.00  0.00     0.033 A 
HETATM   22  C   UNL     1       5.427  28.493  51.619  1.00  0.00     0.002 A 
HETATM   23  C   UNL     1       5.388  27.622  50.532  1.00  0.00     0.003 A 
HETATM   24  C   UNL     1       5.165  26.265  50.745  1.00  0.00     0.044 A 
HETATM   25  C   UNL     1       5.004  25.782  52.043  1.00  0.00     0.143 A 
HETATM   26  F   UNL     1       4.699  24.485  52.186  1.00  0.00    -0.204 F 
ENDBRANCH  17  20
ENDBRANCH  15  16
ENDBRANCH   1  15
TORSDOF 3
ENDMDL
MODEL 5
REMARK VINA RESULT:      -8.4      3.132      6.933
REMARK  3 active torsions:
REMARK  status: ('A' for Active; 'I' for Inactive)
REMARK    1  A    between atoms: C_3  and  N_4 
REMARK       I    between atoms: N_4  and  C_5 
REMARK    2  A    between atoms: C_5  and  C_6 
REMARK    3  A    between atoms: C_6  and  C_7 
ROOT
HETATM    1  C   UNL     1       6.446  25.751  54.460  1.00  0.00     0.286 C 
HETATM    2  N   UNL     1       6.305  25.384  55.935  1.00  0.00    -0.056 N 
HETATM    3  H   UNL     1       5.387  24.895  56.009  1.00  0.00     0.278 HD
HETATM    4  H   UNL     1       7.013  24.692  56.210  1.00  0.00     0.278 HD
HETATM    5  C   UNL     1       6.281  26.554  56.878  1.00  0.00     0.209 C 
HETATM    6  C   UNL     1       5.189  27.553  56.425  1.00  0.00     0.115 C 
HETATM    7  N   UNL     1       5.282  27.885  55.004  1.00  0.00    -0.353 N 
HETATM    8  C   UNL     1       5.578  26.956  54.037  1.00  0.00     0.249 C 
HETATM    9  O   UNL     1       5.232  27.148  52.877  1.00  0.00    -0.271 OA
HETATM   10  C   UNL     1       7.672  27.184  56.973  1.00  0.00     0.035 C 
HETATM   11  C   UNL     1       7.650  28.435  57.848  1.00  0.00     0.002 C 
HETATM   12  C   UNL     1       6.612  29.443  57.359  1.00  0.00     0.002 C 
HETATM   13  C   UNL     1       5.217  28.822  57.282  1.00  0.00     0.027 C 
HETATM   14  H   UNL     1       4.673  28.622  54.650  1.00  0.00     0.163 HD
ENDROOT
BRANCH   1  15
HETATM   15  C   UNL     1       6.162  24.538  53.568  1.00  0.00     0.146 C 
BRANCH  15  16
HETATM   16  C   UNL     1       7.360  24.259  52.691  1.00  0.00     0.224 C 
HETATM   17  N   UNL     1       8.298  23.330  53.009  1.00  0.00    -0.325 N 
HETATM   18  H   UNL     1       9.144  23.421  52.454  1.00  0.00     0.169 HD
HETATM   19  O   UNL     1       7.501  24.946  51.668  1.00  0.00    -0.273 OA
BRANCH  17  20
HETATM   20  C   UNL     1       8.332  22.330  54.005  1.00  0.00     0.073 A 
HETATM   21  C   UNL     1       8.545  22.765  55.320  1.00  0.00     0.033 A 
HETATM   22  C   UNL     1       8.578  21.852  56.379  1.00  0.00     0.002 A 
HETATM   23  C   UNL     1       8.429  20.489  56.133  1.00  0.00     0.003 A 
HETATM   24  C   UNL     1       8.263  20.038  54.828  1.00  0.00     0.044 A 
HETATM   25  C   UNL     1       8.225  20.954  53.776  1.00  0.00     0.143 A 
HETATM   26  F   UNL     1       8.157  20.462  52.531  1.00  0.00    -0.204 F 
ENDBRANCH  17  20
ENDBRANCH  15  16
ENDBRANCH   1  15
TORSDOF 3
ENDMDL
MODEL 6
REMARK VINA RESULT:      -8.3      2.079      6.531
REMARK  3 active torsions:
REMARK  status: ('A' for Active; 'I' for Inactive)
REMARK    1  A    between atoms: C_3  and  N_4 
REMARK       I    between atoms: N_4  and  C_5 
REMARK    2  A    between atoms: C_5  and  C_6 
REMARK    3  A    between atoms: C_6  and  C_7 
ROOT
HETATM    1  C   UNL     1       7.227  28.435  55.557  1.00  0.00     0.286 C 
HETATM    2  N   UNL     1       8.134  27.665  56.514  1.00  0.00    -0.056 N 
HETATM    3  H   UNL     1       7.487  27.130  57.133  1.00  0.00     0.278 HD
HETATM    4  H   UNL     1       8.684  26.960  56.009  1.00  0.00     0.278 HD
HETATM    5  C   UNL     1       9.004  28.523  57.389  1.00  0.00     0.209 C 
HETATM    6  C   UNL     1       8.122  29.554  58.133  1.00  0.00     0.115 C 
HETATM    7  N   UNL     1       7.215  30.273  57.239  1.00  0.00    -0.353 N 
HETATM    8  C   UNL     1       6.552  29.666  56.202  1.00  0.00     0.249 C 
HETATM    9  O   UNL     1       5.516  30.157  55.767  1.00  0.00    -0.271 OA
HETATM   10  C   UNL     1      10.113  29.170  56.556  1.00  0.00     0.035 C 
HETATM   11  C   UNL     1      10.950  30.125  57.404  1.00  0.00     0.002 C 
HETATM   12  C   UNL     1      10.080  31.176  58.089  1.00  0.00     0.002 C 
HETATM   13  C   UNL     1       8.982  30.533  58.937  1.00  0.00     0.027 C 
HETATM   14  H   UNL     1       6.681  31.048  57.631  1.00  0.00     0.163 HD
ENDROOT
BRANCH   1  15
HETATM   15  C   UNL     1       6.179  27.507  54.934  1.00  0.00     0.146 C 
BRANCH  15  16
HETATM   16  C   UNL     1       5.664  26.545  55.978  1.00  0.00     0.224 C 
HETATM   17  N   UNL     1       5.854  25.203  55.892  1.00  0.00    -0.325 N 
HETATM   18  H   UNL     1       5.261  24.682  56.532  1.00  0.00     0.169 HD
HETATM   19  O   UNL     1       5.004  27.011  56.919  1.00  0.00    -0.273 OA
BRANCH  17  20
HETATM   20  C   UNL     1       6.658  24.419  55.038  1.00  0.00     0.073 A 
HETATM   21  C   UNL     1       7.834  23.895  55.593  1.00  0.00     0.033 A 
HETATM   22  C   UNL     1       8.688  23.091  54.832  1.00  0.00     0.002 A 
HETATM   23  C   UNL     1       8.394  22.824  53.496  1.00  0.00     0.003 A 
HETATM   24  C   UNL     1       7.255  23.375  52.919  1.00  0.00     0.044 A 
HETATM   25  C   UNL     1       6.403  24.172  53.684  1.00  0.00     0.143 A 
HETATM   26  F   UNL     1       5.372  24.754  53.056  1.00  0.00    -0.204 F 
ENDBRANCH  17  20
ENDBRANCH  15  16
ENDBRANCH   1  15
TORSDOF 3
ENDMDL
MODEL 7
REMARK VINA RESULT:      -8.2      4.535      6.294
REMARK  3 active torsions:
REMARK  status: ('A' for Active; 'I' for Inactive)
REMARK    1  A    between atoms: C_3  and  N_4 
REMARK       I    between atoms: N_4  and  C_5 
REMARK    2  A    between atoms: C_5  and  C_6 
REMARK    3  A    between atoms: C_6  and  C_7 
ROOT
HETATM    1  C   UNL     1       6.713  26.888  52.977  1.00  0.00     0.286 C 
HETATM    2  N   UNL     1       5.841  25.663  52.712  1.00  0.00    -0.056 N 
HETATM    3  H   UNL     1       4.920  25.882  53.151  1.00  0.00     0.278 HD
HETATM    4  H   UNL     1       5.654  25.557  51.708  1.00  0.00     0.278 HD
HETATM    5  C   UNL     1       6.347  24.384  53.319  1.00  0.00     0.209 C 
HETATM    6  C   UNL     1       6.596  24.600  54.831  1.00  0.00     0.115 C 
HETATM    7  N   UNL     1       7.395  25.793  55.108  1.00  0.00    -0.353 N 
HETATM    8  C   UNL     1       7.233  26.974  54.429  1.00  0.00     0.249 C 
HETATM    9  O   UNL     1       7.580  28.030  54.946  1.00  0.00    -0.271 OA
HETATM   10  C   UNL     1       7.588  23.899  52.567  1.00  0.00     0.035 C 
HETATM   11  C   UNL     1       8.178  22.655  53.227  1.00  0.00     0.002 C 
HETATM   12  C   UNL     1       8.478  22.893  54.705  1.00  0.00     0.002 C 
HETATM   13  C   UNL     1       7.235  23.360  55.463  1.00  0.00     0.027 C 
HETATM   14  H   UNL     1       7.700  25.944  56.069  1.00  0.00     0.163 HD
ENDROOT
BRANCH   1  15
HETATM   15  C   UNL     1       5.978  28.174  52.587  1.00  0.00     0.146 C 
BRANCH  15  16
HETATM   16  C   UNL     1       4.491  27.913  52.524  1.00  0.00     0.224 C 
HETATM   17  N   UNL     1       3.809  27.854  51.352  1.00  0.00    -0.325 N 
HETATM   18  H   UNL     1       2.802  27.905  51.482  1.00  0.00     0.169 HD
HETATM   19  O   UNL     1       3.879  27.798  53.596  1.00  0.00    -0.273 OA
BRANCH  17  20
HETATM   20  C   UNL     1       4.244  27.810  50.010  1.00  0.00     0.073 A 
HETATM   21  C   UNL     1       4.413  29.044  49.367  1.00  0.00     0.033 A 
HETATM   22  C   UNL     1       4.859  29.107  48.043  1.00  0.00     0.002 A 
HETATM   23  C   UNL     1       5.112  27.935  47.334  1.00  0.00     0.003 A 
HETATM   24  C   UNL     1       4.905  26.702  47.944  1.00  0.00     0.044 A 
HETATM   25  C   UNL     1       4.466  26.645  49.267  1.00  0.00     0.143 A 
HETATM   26  F   UNL     1       4.193  25.436  49.775  1.00  0.00    -0.204 F 
ENDBRANCH  17  20
ENDBRANCH  15  16
ENDBRANCH   1  15
TORSDOF 3
ENDMDL
MODEL 8
REMARK VINA RESULT:      -8.1      2.079      3.054
REMARK  3 active torsions:
REMARK  status: ('A' for Active; 'I' for Inactive)
REMARK    1  A    between atoms: C_3  and  N_4 
REMARK       I    between atoms: N_4  and  C_5 
REMARK    2  A    between atoms: C_5  and  C_6 
REMARK    3  A    between atoms: C_6  and  C_7 
ROOT
HETATM    1  C   UNL     1       7.467  25.593  56.405  1.00  0.00     0.286 C 
HETATM    2  N   UNL     1       6.353  24.990  55.552  1.00  0.00    -0.056 N 
HETATM    3  H   UNL     1       5.624  24.682  56.232  1.00  0.00     0.278 HD
HETATM    4  H   UNL     1       5.906  25.710  54.972  1.00  0.00     0.278 HD
HETATM    5  C   UNL     1       6.757  23.795  54.737  1.00  0.00     0.209 C 
HETATM    6  C   UNL     1       7.409  22.741  55.664  1.00  0.00     0.115 C 
HETATM    7  N   UNL     1       8.451  23.308  56.519  1.00  0.00    -0.353 N 
HETATM    8  C   UNL     1       8.338  24.537  57.120  1.00  0.00     0.249 C 
HETATM    9  O   UNL     1       8.985  24.787  58.130  1.00  0.00    -0.271 OA
HETATM   10  C   UNL     1       7.666  24.226  53.583  1.00  0.00     0.035 C 
HETATM   11  C   UNL     1       8.170  23.016  52.800  1.00  0.00     0.002 C 
HETATM   12  C   UNL     1       8.866  22.008  53.711  1.00  0.00     0.002 C 
HETATM   13  C   UNL     1       7.954  21.560  54.855  1.00  0.00     0.027 C 
HETATM   14  H   UNL     1       9.008  22.661  57.077  1.00  0.00     0.163 HD
ENDROOT
BRANCH   1  15
HETATM   15  C   UNL     1       6.898  26.599  57.412  1.00  0.00     0.146 C 
BRANCH  15  16
HETATM   16  C   UNL     1       7.581  27.935  57.239  1.00  0.00     0.224 C 
HETATM   17  N   UNL     1       7.440  28.686  56.117  1.00  0.00    -0.325 N 
HETATM   18  H   UNL     1       8.131  29.429  56.054  1.00  0.00     0.169 HD
HETATM   19  O   UNL     1       8.333  28.322  58.146  1.00  0.00    -0.273 OA
BRANCH  17  20
HETATM   20  C   UNL     1       6.570  28.575  55.011  1.00  0.00     0.073 A 
HETATM   21  C   UNL     1       5.244  28.980  55.216  1.00  0.00     0.033 A 
HETATM   22  C   UNL     1       4.310  28.925  54.176  1.00  0.00     0.002 A 
HETATM   23  C   UNL     1       4.682  28.434  52.926  1.00  0.00     0.003 A 
HETATM   24  C   UNL     1       5.983  27.985  52.722  1.00  0.00     0.044 A 
HETATM   25  C   UNL     1       6.912  28.049  53.760  1.00  0.00     0.143 A 
HETATM   26  F   UNL     1       8.122  27.517  53.539  1.00  0.00    -0.204 F 
ENDBRANCH  17  20
ENDBRANCH  15  16
ENDBRANCH   1  15
TORSDOF 3
ENDMDL
MODEL 9
REMARK VINA RESULT:      -8.1      2.717      3.398
REMARK  3 active torsions:
REMARK  status: ('A' for Active; 'I' for Inactive)
REMARK    1  A    between atoms: C_3  and  N_4 
REMARK       I    between atoms: N_4  and  C_5 
REMARK    2  A    between atoms: C_5  and  C_6 
REMARK    3  A    between atoms: C_6  and  C_7 
ROOT
HETATM    1  C   UNL     1       7.294  25.699  55.924  1.00  0.00     0.286 C 
HETATM    2  N   UNL     1       6.285  24.945  55.062  1.00  0.00    -0.056 N 
HETATM    3  H   UNL     1       5.488  24.728  55.700  1.00  0.00     0.278 HD
HETATM    4  H   UNL     1       5.899  25.555  54.332  1.00  0.00     0.278 HD
HETATM    5  C   UNL     1       6.785  23.647  54.492  1.00  0.00     0.209 C 
HETATM    6  C   UNL     1       7.340  22.766  55.638  1.00  0.00     0.115 C 
HETATM    7  N   UNL     1       8.277  23.484  56.501  1.00  0.00    -0.353 N 
HETATM    8  C   UNL     1       8.089  24.789  56.885  1.00  0.00     0.249 C 
HETATM    9  O   UNL     1       8.620  25.208  57.908  1.00  0.00    -0.271 OA
HETATM   10  C   UNL     1       7.812  23.917  53.390  1.00  0.00     0.035 C 
HETATM   11  C   UNL     1       8.409  22.613  52.865  1.00  0.00     0.002 C 
HETATM   12  C   UNL     1       9.007  21.776  53.992  1.00  0.00     0.002 C 
HETATM   13  C   UNL     1       7.978  21.488  55.087  1.00  0.00     0.027 C 
HETATM   14  H   UNL     1       8.773  22.946  57.210  1.00  0.00     0.163 HD
ENDROOT
BRANCH   1  15
HETATM   15  C   UNL     1       6.611  26.835  56.694  1.00  0.00     0.146 C 
BRANCH  15  16
HETATM   16  C   UNL     1       5.154  26.500  56.912  1.00  0.00     0.224 C 
HETATM   17  N   UNL     1       4.150  27.337  56.547  1.00  0.00    -0.325 N 
HETATM   18  H   UNL     1       3.258  27.083  56.962  1.00  0.00     0.169 HD
HETATM   19  O   UNL     1       4.885  25.436  57.489  1.00  0.00    -0.273 OA
BRANCH  17  20
HETATM   20  C   UNL     1       4.142  28.515  55.770  1.00  0.00     0.073 A 
HETATM   21  C   UNL     1       4.000  29.723  56.467  1.00  0.00     0.033 A 
HETATM   22  C   UNL     1       3.998  30.946  55.789  1.00  0.00     0.002 A 
HETATM   23  C   UNL     1       4.108  30.976  54.400  1.00  0.00     0.003 A 
HETATM   24  C   UNL     1       4.204  29.784  53.691  1.00  0.00     0.044 A 
HETATM   25  C   UNL     1       4.211  28.567  54.373  1.00  0.00     0.143 A 
HETATM   26  F   UNL     1       4.210  27.447  53.638  1.00  0.00    -0.204 F 
ENDBRANCH  17  20
ENDBRANCH  15  16
ENDBRANCH   1  15
TORSDOF 3
ENDMDL
MODEL 10
REMARK VINA RESULT:      -8.0      4.227      7.210
REMARK  3 active torsions:
REMARK  status: ('A' for Active; 'I' for Inactive)
REMARK    1  A    between atoms: C_3  and  N_4 
REMARK       I    between atoms: N_4  and  C_5 
REMARK    2  A    between atoms: C_5  and  C_6 
REMARK    3  A    between atoms: C_6  and  C_7 
ROOT
HETATM    1  C   UNL     1       4.884  26.050  52.502  1.00  0.00     0.286 C 
HETATM    2  N   UNL     1       5.849  25.983  51.321  1.00  0.00    -0.056 N 
HETATM    3  H   UNL     1       6.723  26.445  51.655  1.00  0.00     0.278 HD
HETATM    4  H   UNL     1       6.108  25.012  51.113  1.00  0.00     0.278 HD
HETATM    5  C   UNL     1       5.388  26.708  50.087  1.00  0.00     0.209 C 
HETATM    6  C   UNL     1       5.027  28.167  50.457  1.00  0.00     0.115 C 
HETATM    7  N   UNL     1       4.136  28.253  51.614  1.00  0.00    -0.353 N 
HETATM    8  C   UNL     1       4.266  27.448  52.718  1.00  0.00     0.249 C 
HETATM    9  O   UNL     1       3.817  27.814  53.799  1.00  0.00    -0.271 OA
HETATM   10  C   UNL     1       4.233  25.950  49.430  1.00  0.00     0.035 C 
HETATM   11  C   UNL     1       3.682  26.719  48.232  1.00  0.00     0.002 C 
HETATM   12  C   UNL     1       3.272  28.138  48.616  1.00  0.00     0.002 C 
HETATM   13  C   UNL     1       4.429  28.906  49.256  1.00  0.00     0.027 C 
HETATM   14  H   UNL     1       3.759  29.170  51.853  1.00  0.00     0.163 HD
ENDROOT
BRANCH   1  15
HETATM   15  C   UNL     1       5.558  25.551  53.784  1.00  0.00     0.146 C 
BRANCH  15  16
HETATM   16  C   UNL     1       7.037  25.857  53.735  1.00  0.00     0.224 C 
HETATM   17  N   UNL     1       7.986  24.913  53.961  1.00  0.00    -0.325 N 
HETATM   18  H   UNL     1       8.906  25.314  54.122  1.00  0.00     0.169 HD
HETATM   19  O   UNL     1       7.377  27.031  53.526  1.00  0.00    -0.273 OA
BRANCH  17  20
HETATM   20  C   UNL     1       7.907  23.510  54.083  1.00  0.00     0.073 A 
HETATM   21  C   UNL     1       8.032  22.771  52.899  1.00  0.00     0.033 A 
HETATM   22  C   UNL     1       7.986  21.374  52.918  1.00  0.00     0.002 A 
HETATM   23  C   UNL     1       7.784  20.696  54.118  1.00  0.00     0.003 A 
HETATM   24  C   UNL     1       7.612  21.417  55.296  1.00  0.00     0.044 A 
HETATM   25  C   UNL     1       7.665  22.811  55.272  1.00  0.00     0.143 A 
HETATM   26  F   UNL     1       7.400  23.458  56.415  1.00  0.00    -0.204 F 
ENDBRANCH  17  20
ENDBRANCH  15  16
ENDBRANCH   1  15
TORSDOF 3
ENDMDL
