MODEL 1
REMARK VINA RESULT:      -7.8      0.000      0.000
REMARK  8 active torsions:
REMARK  status: ('A' for Active; 'I' for Inactive)
REMARK    1  A    between atoms: C_4  and  C_5 
REMARK    2  A    between atoms: C_5  and  N_6 
REMARK    3  A    between atoms: N_6  and  C_9 
REMARK    4  A    between atoms: C_9  and  C_10 
REMARK    5  A    between atoms: C_10  and  C_11 
REMARK    6  A    between atoms: C_11  and  C_12 
REMARK    7  A    between atoms: C_17  and  O_18 
REMARK    8  A    between atoms: C_21  and  O_22 
ROOT
HETATM    1  C   UNL     1       7.455  25.731  56.629  1.00  0.00     0.010 A 
HETATM    2  N   UNL     1       7.492  24.364  56.771  1.00  0.00    -0.359 N 
HETATM    3  H   UNL     1       7.477  23.856  57.645  1.00  0.00     0.166 HD
HETATM    4  C   UNL     1       7.587  23.754  55.541  1.00  0.00     0.048 A 
HETATM    5  C   UNL     1       7.597  24.756  54.575  1.00  0.00     0.026 A 
HETATM    6  C   UNL     1       7.692  24.405  53.209  1.00  0.00     0.083 A 
HETATM    7  C   UNL     1       7.782  23.040  52.877  1.00  0.00     0.074 A 
HETATM    8  C   UNL     1       7.782  22.052  53.866  1.00  0.00     0.073 A 
HETATM    9  C   UNL     1       7.672  22.398  55.217  1.00  0.00     0.067 A 
HETATM   10  C   UNL     1       7.512  25.996  55.274  1.00  0.00     0.041 A 
ENDROOT
BRANCH   1  11
HETATM   11  C   UNL     1       7.406  26.652  57.797  1.00  0.00     0.059 C 
BRANCH  11  12
HETATM   12  C   UNL     1       7.963  28.036  57.452  1.00  0.00     0.033 C 
BRANCH  12  13
HETATM   13  C   UNL     1       6.877  29.099  57.336  1.00  0.00     0.233 C 
BRANCH  13  14
HETATM   14  N   UNL     1       7.345  30.382  57.940  1.00  0.00    -0.067 N 
HETATM   15  H   UNL     1       6.534  30.871  58.346  1.00  0.00     0.277 HD
HETATM   16  H   UNL     1       7.707  31.023  57.223  1.00  0.00     0.277 HD
BRANCH  14  17
HETATM   17  C   UNL     1       8.386  30.290  59.025  1.00  0.00     0.223 C 
HETATM   18  C   UNL     1       9.757  30.663  58.464  1.00  0.00     0.046 C 
BRANCH  17  19
HETATM   19  C   UNL     1       8.022  31.165  60.185  1.00  0.00     0.032 A 
HETATM   20  S   UNL     1       8.751  30.986  61.734  1.00  0.00    -0.076 SA
HETATM   21  C   UNL     1       7.797  32.283  62.332  1.00  0.00     0.071 A 
HETATM   22  C   UNL     1       7.915  32.733  63.748  1.00  0.00     0.078 C 
HETATM   23  N   UNL     1       6.989  32.829  61.450  1.00  0.00    -0.257 NA
HETATM   24  C   UNL     1       7.100  32.191  60.235  1.00  0.00     0.134 A 
ENDBRANCH  17  19
ENDBRANCH  14  17
ENDBRANCH  13  14
ENDBRANCH  12  13
ENDBRANCH  11  12
ENDBRANCH   1  11
BRANCH   6  25
HETATM   25  O   UNL     1       7.688  25.438  52.307  1.00  0.00    -0.355 OA
HETATM   26  C   UNL     1       6.439  25.794  51.728  1.00  0.00     0.210 C 
ENDBRANCH   6  25
BRANCH   8  27
HETATM   27  O   UNL     1       7.874  20.702  53.650  1.00  0.00    -0.356 OA
HETATM   28  C   UNL     1       8.721  19.960  54.519  1.00  0.00     0.210 C 
ENDBRANCH   8  27
TORSDOF 8
ENDMDL
MODEL 2
REMARK VINA RESULT:      -7.7      5.430      8.558
REMARK  8 active torsions:
REMARK  status: ('A' for Active; 'I' for Inactive)
REMARK    1  A    between atoms: C_4  and  C_5 
REMARK    2  A    between atoms: C_5  and  N_6 
REMARK    3  A    between atoms: N_6  and  C_9 
REMARK    4  A    between atoms: C_9  and  C_10 
REMARK    5  A    between atoms: C_10  and  C_11 
REMARK    6  A    between atoms: C_11  and  C_12 
REMARK    7  A    between atoms: C_17  and  O_18 
REMARK    8  A    between atoms: C_21  and  O_22 
ROOT
HETATM    1  C   UNL     1       4.929  27.884  52.869  1.00  0.00     0.010 A 
HETATM    2  N   UNL     1       4.448  26.908  52.029  1.00  0.00    -0.359 N 
HETATM    3  H   UNL     1       4.002  26.046  52.313  1.00  0.00     0.166 HD
HETATM    4  C   UNL     1       4.682  27.244  50.716  1.00  0.00     0.048 A 
HETATM    5  C   UNL     1       5.321  28.481  50.706  1.00  0.00     0.026 A 
HETATM    6  C   UNL     1       5.684  29.066  49.471  1.00  0.00     0.083 A 
HETATM    7  C   UNL     1       5.390  28.362  48.288  1.00  0.00     0.074 A 
HETATM    8  C   UNL     1       4.759  27.116  48.324  1.00  0.00     0.073 A 
HETATM    9  C   UNL     1       4.385  26.543  49.544  1.00  0.00     0.067 A 
HETATM   10  C   UNL     1       5.469  28.872  52.068  1.00  0.00     0.041 A 
ENDROOT
BRANCH   1  11
HETATM   11  C   UNL     1       4.861  27.764  54.351  1.00  0.00     0.059 C 
BRANCH  11  12
HETATM   12  C   UNL     1       6.257  27.698  54.978  1.00  0.00     0.033 C 
BRANCH  12  13
HETATM   13  C   UNL     1       6.608  26.306  55.493  1.00  0.00     0.233 C 
BRANCH  13  14
HETATM   14  N   UNL     1       7.612  25.662  54.594  1.00  0.00    -0.067 N 
HETATM   15  H   UNL     1       8.276  25.127  55.172  1.00  0.00     0.277 HD
HETATM   16  H   UNL     1       8.188  26.365  54.113  1.00  0.00     0.277 HD
BRANCH  14  17
HETATM   17  C   UNL     1       7.088  24.718  53.546  1.00  0.00     0.223 C 
HETATM   18  C   UNL     1       7.618  25.120  52.170  1.00  0.00     0.046 C 
BRANCH  17  19
HETATM   19  C   UNL     1       7.458  23.304  53.873  1.00  0.00     0.032 A 
HETATM   20  S   UNL     1       7.579  22.739  55.494  1.00  0.00    -0.076 SA
HETATM   21  C   UNL     1       8.006  21.178  54.917  1.00  0.00     0.071 A 
HETATM   22  C   UNL     1       8.283  20.059  55.863  1.00  0.00     0.078 C 
HETATM   23  N   UNL     1       8.054  21.065  53.609  1.00  0.00    -0.257 NA
HETATM   24  C   UNL     1       7.758  22.270  53.010  1.00  0.00     0.134 A 
ENDBRANCH  17  19
ENDBRANCH  14  17
ENDBRANCH  13  14
ENDBRANCH  12  13
ENDBRANCH  11  12
ENDBRANCH   1  11
BRANCH   6  25
HETATM   25  O   UNL     1       6.303  30.288  49.529  1.00  0.00    -0.355 OA
HETATM   26  C   UNL     1       5.498  31.438  49.299  1.00  0.00     0.210 C 
ENDBRANCH   6  25
BRANCH   8  27
HETATM   27  O   UNL     1       4.438  26.349  47.235  1.00  0.00    -0.356 OA
HETATM   28  C   UNL     1       3.213  25.628  47.286  1.00  0.00     0.210 C 
ENDBRANCH   8  27
TORSDOF 8
ENDMDL
MODEL 3
REMARK VINA RESULT:      -7.7      1.864      2.529
REMARK  8 active torsions:
REMARK  status: ('A' for Active; 'I' for Inactive)
REMARK    1  A    between atoms: C_4  and  C_5 
REMARK    2  A    between atoms: C_5  and  N_6 
REMARK    3  A    between atoms: N_6  and  C_9 
REMARK    4  A    between atoms: C_9  and  C_10 
REMARK    5  A    between atoms: C_10  and  C_11 
REMARK    6  A    between atoms: C_11  and  C_12 
REMARK    7  A    between atoms: C_17  and  O_18 
REMARK    8  A    between atoms: C_21  and  O_22 
ROOT
HETATM    1  C   UNL     1       7.960  27.837  56.558  1.00  0.00     0.010 A 
HETATM    2  N   UNL     1       8.354  26.781  57.346  1.00  0.00    -0.359 N 
HETATM    3  H   UNL     1       8.797  26.850  58.253  1.00  0.00     0.166 HD
HETATM    4  C   UNL     1       8.093  25.586  56.717  1.00  0.00     0.048 A 
HETATM    5  C   UNL     1       7.499  25.877  55.492  1.00  0.00     0.026 A 
HETATM    6  C   UNL     1       7.126  24.819  54.631  1.00  0.00     0.083 A 
HETATM    7  C   UNL     1       7.382  23.500  55.048  1.00  0.00     0.074 A 
HETATM    8  C   UNL     1       7.991  23.233  56.277  1.00  0.00     0.073 A 
HETATM    9  C   UNL     1       8.346  24.278  57.137  1.00  0.00     0.067 A 
HETATM   10  C   UNL     1       7.420  27.298  55.406  1.00  0.00     0.041 A 
ENDROOT
BRANCH   1  11
HETATM   11  C   UNL     1       8.169  29.254  56.962  1.00  0.00     0.059 C 
BRANCH  11  12
HETATM   12  C   UNL     1       7.466  29.574  58.284  1.00  0.00     0.033 C 
BRANCH  12  13
HETATM   13  C   UNL     1       8.245  30.565  59.143  1.00  0.00     0.233 C 
BRANCH  13  14
HETATM   14  N   UNL     1       7.395  31.047  60.273  1.00  0.00    -0.067 N 
HETATM   15  H   UNL     1       6.583  30.420  60.364  1.00  0.00     0.277 HD
HETATM   16  H   UNL     1       6.992  31.971  60.070  1.00  0.00     0.277 HD
BRANCH  14  17
HETATM   17  C   UNL     1       8.040  31.126  61.631  1.00  0.00     0.223 C 
HETATM   18  C   UNL     1       9.362  31.886  61.536  1.00  0.00     0.046 C 
BRANCH  17  19
HETATM   19  C   UNL     1       7.117  31.771  62.619  1.00  0.00     0.032 A 
HETATM   20  S   UNL     1       7.679  32.880  63.810  1.00  0.00    -0.076 SA
HETATM   21  C   UNL     1       6.075  33.054  64.402  1.00  0.00     0.071 A 
HETATM   22  C   UNL     1       5.774  33.958  65.548  1.00  0.00     0.078 C 
HETATM   23  N   UNL     1       5.170  32.347  63.764  1.00  0.00    -0.257 NA
HETATM   24  C   UNL     1       5.755  31.606  62.762  1.00  0.00     0.134 A 
ENDBRANCH  17  19
ENDBRANCH  14  17
ENDBRANCH  13  14
ENDBRANCH  12  13
ENDBRANCH  11  12
ENDBRANCH   1  11
BRANCH   6  25
HETATM   25  O   UNL     1       6.538  25.172  53.443  1.00  0.00    -0.355 OA
HETATM   26  C   UNL     1       5.153  24.887  53.291  1.00  0.00     0.210 C 
ENDBRANCH   6  25
BRANCH   8  27
HETATM   27  O   UNL     1       8.290  21.990  56.770  1.00  0.00    -0.356 OA
HETATM   28  C   UNL     1       7.863  20.868  56.006  1.00  0.00     0.210 C 
ENDBRANCH   8  27
TORSDOF 8
ENDMDL
MODEL 4
REMARK VINA RESULT:      -7.6      2.731      4.018
REMARK  8 active torsions:
REMARK  status: ('A' for Active; 'I' for Inactive)
REMARK    1  A    between atoms: C_4  and  C_5 
REMARK    2  A    between atoms: C_5  and  N_6 
REMARK    3  A    between atoms: N_6  and  C_9 
REMARK    4  A    between atoms: C_9  and  C_10 
REMARK    5  A    between atoms: C_10  and  C_11 
REMARK    6  A    between atoms: C_11  and  C_12 
REMARK    7  A    between atoms: C_17  and  O_18 
REMARK    8  A    between atoms: C_21  and  O_22 
ROOT
HETATM    1  C   UNL     1       6.595  26.900  53.607  1.00  0.00     0.010 A 
HETATM    2  N   UNL     1       6.924  25.968  52.650  1.00  0.00    -0.359 N 
HETATM    3  H   UNL     1       6.888  26.107  51.649  1.00  0.00     0.166 HD
HETATM    4  C   UNL     1       7.288  24.780  53.240  1.00  0.00     0.048 A 
HETATM    5  C   UNL     1       7.206  24.953  54.619  1.00  0.00     0.026 A 
HETATM    6  C   UNL     1       7.527  23.875  55.476  1.00  0.00     0.083 A 
HETATM    7  C   UNL     1       7.912  22.653  54.892  1.00  0.00     0.074 A 
HETATM    8  C   UNL     1       7.974  22.500  53.505  1.00  0.00     0.073 A 
HETATM    9  C   UNL     1       7.673  23.570  52.656  1.00  0.00     0.067 A 
HETATM   10  C   UNL     1       6.770  26.293  54.835  1.00  0.00     0.041 A 
ENDROOT
BRANCH   1  11
HETATM   11  C   UNL     1       6.112  28.264  53.257  1.00  0.00     0.059 C 
BRANCH  11  12
HETATM   12  C   UNL     1       4.651  28.470  53.668  1.00  0.00     0.033 C 
BRANCH  12  13
HETATM   13  C   UNL     1       4.482  29.549  54.731  1.00  0.00     0.233 C 
BRANCH  13  14
HETATM   14  N   UNL     1       5.812  29.926  55.299  1.00  0.00    -0.067 N 
HETATM   15  H   UNL     1       6.004  30.910  55.062  1.00  0.00     0.277 HD
HETATM   16  H   UNL     1       6.572  29.395  54.855  1.00  0.00     0.277 HD
BRANCH  14  17
HETATM   17  C   UNL     1       5.982  29.794  56.789  1.00  0.00     0.223 C 
HETATM   18  C   UNL     1       5.373  28.478  57.269  1.00  0.00     0.046 C 
BRANCH  17  19
HETATM   19  C   UNL     1       7.429  29.889  57.167  1.00  0.00     0.032 A 
HETATM   20  S   UNL     1       8.683  29.273  56.161  1.00  0.00    -0.076 SA
HETATM   21  C   UNL     1       9.854  29.786  57.309  1.00  0.00     0.071 A 
HETATM   22  C   UNL     1      11.308  29.563  57.073  1.00  0.00     0.078 C 
HETATM   23  N   UNL     1       9.362  30.383  58.372  1.00  0.00    -0.257 NA
HETATM   24  C   UNL     1       7.988  30.432  58.306  1.00  0.00     0.134 A 
ENDBRANCH  17  19
ENDBRANCH  14  17
ENDBRANCH  13  14
ENDBRANCH  12  13
ENDBRANCH  11  12
ENDBRANCH   1  11
BRANCH   6  25
HETATM   25  O   UNL     1       7.434  24.112  56.823  1.00  0.00    -0.355 OA
HETATM   26  C   UNL     1       8.525  24.780  57.444  1.00  0.00     0.210 C 
ENDBRANCH   6  25
BRANCH   8  27
HETATM   27  O   UNL     1       8.328  21.354  52.840  1.00  0.00    -0.356 OA
HETATM   28  C   UNL     1       8.587  20.199  53.629  1.00  0.00     0.210 C 
ENDBRANCH   8  27
TORSDOF 8
ENDMDL
MODEL 5
REMARK VINA RESULT:      -7.5      2.174      3.674
REMARK  8 active torsions:
REMARK  status: ('A' for Active; 'I' for Inactive)
REMARK    1  A    between atoms: C_4  and  C_5 
REMARK    2  A    between atoms: C_5  and  N_6 
REMARK    3  A    between atoms: N_6  and  C_9 
REMARK    4  A    between atoms: C_9  and  C_10 
REMARK    5  A    between atoms: C_10  and  C_11 
REMARK    6  A    between atoms: C_11  and  C_12 
REMARK    7  A    between atoms: C_17  and  O_18 
REMARK    8  A    between atoms: C_21  and  O_22 
ROOT
HETATM    1  C   UNL     1       7.928  28.108  57.241  1.00  0.00     0.010 A 
HETATM    2  N   UNL     1       6.916  28.137  56.310  1.00  0.00    -0.359 N 
HETATM    3  H   UNL     1       6.340  28.938  56.084  1.00  0.00     0.166 HD
HETATM    4  C   UNL     1       6.756  26.900  55.732  1.00  0.00     0.048 A 
HETATM    5  C   UNL     1       7.704  26.048  56.294  1.00  0.00     0.026 A 
HETATM    6  C   UNL     1       7.761  24.698  55.876  1.00  0.00     0.083 A 
HETATM    7  C   UNL     1       6.840  24.263  54.905  1.00  0.00     0.074 A 
HETATM    8  C   UNL     1       5.889  25.133  54.364  1.00  0.00     0.073 A 
HETATM    9  C   UNL     1       5.843  26.473  54.765  1.00  0.00     0.067 A 
HETATM   10  C   UNL     1       8.435  26.823  57.240  1.00  0.00     0.041 A 
ENDROOT
BRANCH   1  11
HETATM   11  C   UNL     1       8.289  29.295  58.062  1.00  0.00     0.059 C 
BRANCH  11  12
HETATM   12  C   UNL     1       7.112  30.264  58.206  1.00  0.00     0.033 C 
BRANCH  12  13
HETATM   13  C   UNL     1       7.460  31.500  59.028  1.00  0.00     0.233 C 
BRANCH  13  14
HETATM   14  N   UNL     1       6.853  31.401  60.389  1.00  0.00    -0.067 N 
HETATM   15  H   UNL     1       6.257  30.561  60.423  1.00  0.00     0.277 HD
HETATM   16  H   UNL     1       6.213  32.185  60.571  1.00  0.00     0.277 HD
BRANCH  14  17
HETATM   17  C   UNL     1       7.798  31.311  61.557  1.00  0.00     0.223 C 
HETATM   18  C   UNL     1       9.180  31.820  61.149  1.00  0.00     0.046 C 
BRANCH  17  19
HETATM   19  C   UNL     1       7.267  32.077  62.730  1.00  0.00     0.032 A 
HETATM   20  S   UNL     1       5.581  32.208  63.053  1.00  0.00    -0.076 SA
HETATM   21  C   UNL     1       5.922  33.165  64.438  1.00  0.00     0.071 A 
HETATM   22  C   UNL     1       4.824  33.686  65.300  1.00  0.00     0.078 C 
HETATM   23  N   UNL     1       7.200  33.377  64.664  1.00  0.00    -0.257 NA
HETATM   24  C   UNL     1       7.967  32.776  63.692  1.00  0.00     0.134 A 
ENDBRANCH  17  19
ENDBRANCH  14  17
ENDBRANCH  13  14
ENDBRANCH  12  13
ENDBRANCH  11  12
ENDBRANCH   1  11
BRANCH   6  25
HETATM   25  O   UNL     1       8.721  23.914  56.461  1.00  0.00    -0.355 OA
HETATM   26  C   UNL     1       8.364  22.575  56.781  1.00  0.00     0.210 C 
ENDBRANCH   6  25
BRANCH   8  27
HETATM   27  O   UNL     1       4.947  24.807  53.424  1.00  0.00    -0.356 OA
HETATM   28  C   UNL     1       5.037  25.457  52.162  1.00  0.00     0.210 C 
ENDBRANCH   8  27
TORSDOF 8
ENDMDL
MODEL 6
REMARK VINA RESULT:      -7.5      3.871      8.943
REMARK  8 active torsions:
REMARK  status: ('A' for Active; 'I' for Inactive)
REMARK    1  A    between atoms: C_4  and  C_5 
REMARK    2  A    between atoms: C_5  and  N_6 
REMARK    3  A    between atoms: N_6  and  C_9 
REMARK    4  A    between atoms: C_9  and  C_10 
REMARK    5  A    between atoms: C_10  and  C_11 
REMARK    6  A    between atoms: C_11  and  C_12 
REMARK    7  A    between atoms: C_17  and  O_18 
REMARK    8  A    between atoms: C_21  and  O_22 
ROOT
HETATM    1  C   UNL     1       6.222  27.620  56.043  1.00  0.00     0.010 A 
HETATM    2  N   UNL     1       5.662  28.629  56.792  1.00  0.00    -0.359 N 
HETATM    3  H   UNL     1       4.672  28.806  56.904  1.00  0.00     0.166 HD
HETATM    4  C   UNL     1       6.642  29.410  57.359  1.00  0.00     0.048 A 
HETATM    5  C   UNL     1       7.873  28.882  56.979  1.00  0.00     0.026 A 
HETATM    6  C   UNL     1       9.063  29.500  57.426  1.00  0.00     0.083 A 
HETATM    7  C   UNL     1       8.954  30.644  58.239  1.00  0.00     0.074 A 
HETATM    8  C   UNL     1       7.707  31.163  58.597  1.00  0.00     0.073 A 
HETATM    9  C   UNL     1       6.529  30.543  58.169  1.00  0.00     0.067 A 
HETATM   10  C   UNL     1       7.593  27.755  56.152  1.00  0.00     0.041 A 
ENDROOT
BRANCH   1  11
HETATM   11  C   UNL     1       5.399  26.651  55.270  1.00  0.00     0.059 C 
BRANCH  11  12
HETATM   12  C   UNL     1       5.140  27.140  53.842  1.00  0.00     0.033 C 
BRANCH  12  13
HETATM   13  C   UNL     1       5.283  26.034  52.803  1.00  0.00     0.233 C 
BRANCH  13  14
HETATM   14  N   UNL     1       5.530  24.723  53.476  1.00  0.00    -0.067 N 
HETATM   15  H   UNL     1       4.700  24.126  53.350  1.00  0.00     0.277 HD
HETATM   16  H   UNL     1       5.620  24.837  54.494  1.00  0.00     0.277 HD
BRANCH  14  17
HETATM   17  C   UNL     1       6.716  23.924  53.007  1.00  0.00     0.223 C 
HETATM   18  C   UNL     1       7.736  24.848  52.342  1.00  0.00     0.046 C 
BRANCH  17  19
HETATM   19  C   UNL     1       7.333  23.171  54.145  1.00  0.00     0.032 A 
HETATM   20  S   UNL     1       8.069  21.630  53.935  1.00  0.00    -0.076 SA
HETATM   21  C   UNL     1       8.439  21.578  55.611  1.00  0.00     0.071 A 
HETATM   22  C   UNL     1       9.155  20.413  56.203  1.00  0.00     0.078 C 
HETATM   23  N   UNL     1       8.054  22.632  56.296  1.00  0.00    -0.257 NA
HETATM   24  C   UNL     1       7.414  23.532  55.475  1.00  0.00     0.134 A 
ENDBRANCH  17  19
ENDBRANCH  14  17
ENDBRANCH  13  14
ENDBRANCH  12  13
ENDBRANCH  11  12
ENDBRANCH   1  11
BRANCH   6  25
HETATM   25  O   UNL     1      10.242  28.927  57.023  1.00  0.00    -0.355 OA
HETATM   26  C   UNL     1      11.424  29.706  57.153  1.00  0.00     0.210 C 
ENDBRANCH   6  25
BRANCH   8  27
HETATM   27  O   UNL     1       7.494  32.272  59.374  1.00  0.00    -0.356 OA
HETATM   28  C   UNL     1       8.426  32.522  60.419  1.00  0.00     0.210 C 
ENDBRANCH   8  27
TORSDOF 8
ENDMDL
MODEL 7
REMARK VINA RESULT:      -7.4      4.550     10.383
REMARK  8 active torsions:
REMARK  status: ('A' for Active; 'I' for Inactive)
REMARK    1  A    between atoms: C_4  and  C_5 
REMARK    2  A    between atoms: C_5  and  N_6 
REMARK    3  A    between atoms: N_6  and  C_9 
REMARK    4  A    between atoms: C_9  and  C_10 
REMARK    5  A    between atoms: C_10  and  C_11 
REMARK    6  A    between atoms: C_11  and  C_12 
REMARK    7  A    between atoms: C_17  and  O_18 
REMARK    8  A    between atoms: C_21  and  O_22 
ROOT
HETATM    1  C   UNL     1       8.191  30.318  58.988  1.00  0.00     0.010 A 
HETATM    2  N   UNL     1       8.846  30.426  60.193  1.00  0.00    -0.359 N 
HETATM    3  H   UNL     1       9.662  29.899  60.474  1.00  0.00     0.166 HD
HETATM    4  C   UNL     1       8.217  31.341  61.003  1.00  0.00     0.048 A 
HETATM    5  C   UNL     1       7.132  31.852  60.297  1.00  0.00     0.026 A 
HETATM    6  C   UNL     1       6.301  32.822  60.905  1.00  0.00     0.083 A 
HETATM    7  C   UNL     1       6.603  33.230  62.217  1.00  0.00     0.074 A 
HETATM    8  C   UNL     1       7.691  32.693  62.911  1.00  0.00     0.073 A 
HETATM    9  C   UNL     1       8.523  31.746  62.306  1.00  0.00     0.067 A 
HETATM   10  C   UNL     1       7.128  31.200  59.030  1.00  0.00     0.041 A 
ENDROOT
BRANCH   1  11
HETATM   11  C   UNL     1       8.619  29.362  57.931  1.00  0.00     0.059 C 
BRANCH  11  12
HETATM   12  C   UNL     1       7.441  28.537  57.404  1.00  0.00     0.033 C 
BRANCH  12  13
HETATM   13  C   UNL     1       7.819  27.658  56.217  1.00  0.00     0.233 C 
BRANCH  13  14
HETATM   14  N   UNL     1       6.691  26.741  55.874  1.00  0.00    -0.067 N 
HETATM   15  H   UNL     1       6.793  26.446  54.892  1.00  0.00     0.277 HD
HETATM   16  H   UNL     1       5.787  27.231  55.909  1.00  0.00     0.277 HD
BRANCH  14  17
HETATM   17  C   UNL     1       6.553  25.487  56.694  1.00  0.00     0.223 C 
HETATM   18  C   UNL     1       5.087  25.261  57.060  1.00  0.00     0.046 C 
BRANCH  17  19
HETATM   19  C   UNL     1       7.113  24.308  55.958  1.00  0.00     0.032 A 
HETATM   20  S   UNL     1       6.803  24.038  54.287  1.00  0.00    -0.076 SA
HETATM   21  C   UNL     1       7.754  22.609  54.342  1.00  0.00     0.071 A 
HETATM   22  C   UNL     1       7.953  21.772  53.125  1.00  0.00     0.078 C 
HETATM   23  N   UNL     1       8.280  22.339  55.516  1.00  0.00    -0.257 NA
HETATM   24  C   UNL     1       7.909  23.289  56.440  1.00  0.00     0.134 A 
ENDBRANCH  17  19
ENDBRANCH  14  17
ENDBRANCH  13  14
ENDBRANCH  12  13
ENDBRANCH  11  12
ENDBRANCH   1  11
BRANCH   6  25
HETATM   25  O   UNL     1       5.254  33.291  60.154  1.00  0.00    -0.355 OA
HETATM   26  C   UNL     1       3.945  32.886  60.535  1.00  0.00     0.210 C 
ENDBRANCH   6  25
BRANCH   8  27
HETATM   27  O   UNL     1       8.064  33.015  64.190  1.00  0.00    -0.356 OA
HETATM   28  C   UNL     1       7.092  33.654  65.009  1.00  0.00     0.210 C 
ENDBRANCH   8  27
TORSDOF 8
ENDMDL
MODEL 8
REMARK VINA RESULT:      -7.4      1.271      1.580
REMARK  8 active torsions:
REMARK  status: ('A' for Active; 'I' for Inactive)
REMARK    1  A    between atoms: C_4  and  C_5 
REMARK    2  A    between atoms: C_5  and  N_6 
REMARK    3  A    between atoms: N_6  and  C_9 
REMARK    4  A    between atoms: C_9  and  C_10 
REMARK    5  A    between atoms: C_10  and  C_11 
REMARK    6  A    between atoms: C_11  and  C_12 
REMARK    7  A    between atoms: C_17  and  O_18 
REMARK    8  A    between atoms: C_21  and  O_22 
ROOT
HETATM    1  C   UNL     1       7.460  26.468  56.336  1.00  0.00     0.010 A 
HETATM    2  N   UNL     1       7.518  25.137  56.680  1.00  0.00    -0.359 N 
HETATM    3  H   UNL     1       7.565  24.768  57.620  1.00  0.00     0.166 HD
HETATM    4  C   UNL     1       7.537  24.349  55.553  1.00  0.00     0.048 A 
HETATM    5  C   UNL     1       7.474  25.193  54.448  1.00  0.00     0.026 A 
HETATM    6  C   UNL     1       7.482  24.638  53.147  1.00  0.00     0.083 A 
HETATM    7  C   UNL     1       7.562  23.239  53.021  1.00  0.00     0.074 A 
HETATM    8  C   UNL     1       7.636  22.412  54.145  1.00  0.00     0.073 A 
HETATM    9  C   UNL     1       7.613  22.959  55.432  1.00  0.00     0.067 A 
HETATM   10  C   UNL     1       7.425  26.524  54.956  1.00  0.00     0.041 A 
ENDROOT
BRANCH   1  11
HETATM   11  C   UNL     1       7.480  27.554  57.352  1.00  0.00     0.059 C 
BRANCH  11  12
HETATM   12  C   UNL     1       6.237  28.444  57.254  1.00  0.00     0.033 C 
BRANCH  12  13
HETATM   13  C   UNL     1       6.569  29.931  57.302  1.00  0.00     0.233 C 
BRANCH  13  14
HETATM   14  N   UNL     1       5.907  30.569  58.480  1.00  0.00    -0.067 N 
HETATM   15  H   UNL     1       6.180  30.054  59.330  1.00  0.00     0.277 HD
HETATM   16  H   UNL     1       4.884  30.474  58.431  1.00  0.00     0.277 HD
BRANCH  14  17
HETATM   17  C   UNL     1       6.211  32.021  58.734  1.00  0.00     0.223 C 
HETATM   18  C   UNL     1       5.118  32.897  58.122  1.00  0.00     0.046 C 
BRANCH  17  19
HETATM   19  C   UNL     1       6.354  32.285  60.201  1.00  0.00     0.032 A 
HETATM   20  S   UNL     1       7.886  32.307  60.985  1.00  0.00    -0.076 SA
HETATM   21  C   UNL     1       7.114  32.648  62.482  1.00  0.00     0.071 A 
HETATM   22  C   UNL     1       7.907  32.821  63.732  1.00  0.00     0.078 C 
HETATM   23  N   UNL     1       5.805  32.749  62.419  1.00  0.00    -0.257 NA
HETATM   24  C   UNL     1       5.366  32.530  61.133  1.00  0.00     0.134 A 
ENDBRANCH  17  19
ENDBRANCH  14  17
ENDBRANCH  13  14
ENDBRANCH  12  13
ENDBRANCH  11  12
ENDBRANCH   1  11
BRANCH   6  25
HETATM   25  O   UNL     1       7.410  25.523  52.102  1.00  0.00    -0.355 OA
HETATM   26  C   UNL     1       6.117  25.827  51.593  1.00  0.00     0.210 C 
ENDBRANCH   6  25
BRANCH   8  27
HETATM   27  O   UNL     1       7.726  21.045  54.130  1.00  0.00    -0.356 OA
HETATM   28  C   UNL     1       8.212  20.439  52.938  1.00  0.00     0.210 C 
ENDBRANCH   8  27
TORSDOF 8
ENDMDL
MODEL 9
REMARK VINA RESULT:      -7.2      5.584      9.052
REMARK  8 active torsions:
REMARK  status: ('A' for Active; 'I' for Inactive)
REMARK    1  A    between atoms: C_4  and  C_5 
REMARK    2  A    between atoms: C_5  and  N_6 
REMARK    3  A    between atoms: N_6  and  C_9 
REMARK    4  A    between atoms: C_9  and  C_10 
REMARK    5  A    between atoms: C_10  and  C_11 
REMARK    6  A    between atoms: C_11  and  C_12 
REMARK    7  A    between atoms: C_17  and  O_18 
REMARK    8  A    between atoms: C_21  and  O_22 
ROOT
HETATM    1  C   UNL     1       5.189  26.725  51.578  1.00  0.00     0.010 A 
HETATM    2  N   UNL     1       5.327  28.081  51.393  1.00  0.00    -0.359 N 
HETATM    3  H   UNL     1       5.529  28.762  52.113  1.00  0.00     0.166 HD
HETATM    4  C   UNL     1       5.118  28.411  50.074  1.00  0.00     0.048 A 
HETATM    5  C   UNL     1       4.852  27.232  49.383  1.00  0.00     0.026 A 
HETATM    6  C   UNL     1       4.595  27.283  47.993  1.00  0.00     0.083 A 
HETATM    7  C   UNL     1       4.609  28.539  47.359  1.00  0.00     0.074 A 
HETATM    8  C   UNL     1       4.867  29.711  48.076  1.00  0.00     0.073 A 
HETATM    9  C   UNL     1       5.137  29.660  49.448  1.00  0.00     0.067 A 
HETATM   10  C   UNL     1       4.901  26.179  50.342  1.00  0.00     0.041 A 
ENDROOT
BRANCH   1  11
HETATM   11  C   UNL     1       5.308  26.089  52.918  1.00  0.00     0.059 C 
BRANCH  11  12
HETATM   12  C   UNL     1       5.184  27.116  54.046  1.00  0.00     0.033 C 
BRANCH  12  13
HETATM   13  C   UNL     1       6.414  27.157  54.947  1.00  0.00     0.233 C 
BRANCH  13  14
HETATM   14  N   UNL     1       7.345  26.042  54.599  1.00  0.00    -0.067 N 
HETATM   15  H   UNL     1       8.227  26.446  54.251  1.00  0.00     0.277 HD
HETATM   16  H   UNL     1       6.983  25.484  53.814  1.00  0.00     0.277 HD
BRANCH  14  17
HETATM   17  C   UNL     1       7.709  25.084  55.701  1.00  0.00     0.223 C 
HETATM   18  C   UNL     1       6.531  24.921  56.661  1.00  0.00     0.046 C 
BRANCH  17  19
HETATM   19  C   UNL     1       8.131  23.762  55.137  1.00  0.00     0.032 A 
HETATM   20  S   UNL     1       7.360  23.060  53.767  1.00  0.00    -0.076 SA
HETATM   21  C   UNL     1       8.416  21.709  53.867  1.00  0.00     0.071 A 
HETATM   22  C   UNL     1       8.318  20.586  52.891  1.00  0.00     0.078 C 
HETATM   23  N   UNL     1       9.293  21.762  54.844  1.00  0.00    -0.257 NA
HETATM   24  C   UNL     1       9.128  22.916  55.577  1.00  0.00     0.134 A 
ENDBRANCH  17  19
ENDBRANCH  14  17
ENDBRANCH  13  14
ENDBRANCH  12  13
ENDBRANCH  11  12
ENDBRANCH   1  11
BRANCH   6  25
HETATM   25  O   UNL     1       4.348  26.087  47.370  1.00  0.00    -0.355 OA
HETATM   26  C   UNL     1       2.988  25.706  47.204  1.00  0.00     0.210 C 
ENDBRANCH   6  25
BRANCH   8  27
HETATM   27  O   UNL     1       4.895  30.979  47.557  1.00  0.00    -0.356 OA
HETATM   28  C   UNL     1       5.073  32.053  48.473  1.00  0.00     0.210 C 
ENDBRANCH   8  27
TORSDOF 8
ENDMDL
MODEL 10
REMARK VINA RESULT:      -7.2      1.663      3.327
REMARK  8 active torsions:
REMARK  status: ('A' for Active; 'I' for Inactive)
REMARK    1  A    between atoms: C_4  and  C_5 
REMARK    2  A    between atoms: C_5  and  N_6 
REMARK    3  A    between atoms: N_6  and  C_9 
REMARK    4  A    between atoms: C_9  and  C_10 
REMARK    5  A    between atoms: C_10  and  C_11 
REMARK    6  A    between atoms: C_11  and  C_12 
REMARK    7  A    between atoms: C_17  and  O_18 
REMARK    8  A    between atoms: C_21  and  O_22 
ROOT
HETATM    1  C   UNL     1       7.545  26.858  56.225  1.00  0.00     0.010 A 
HETATM    2  N   UNL     1       7.071  27.492  55.100  1.00  0.00    -0.359 N 
HETATM    3  H   UNL     1       6.945  28.489  54.989  1.00  0.00     0.166 HD
HETATM    4  C   UNL     1       6.748  26.573  54.129  1.00  0.00     0.048 A 
HETATM    5  C   UNL     1       7.037  25.308  54.635  1.00  0.00     0.026 A 
HETATM    6  C   UNL     1       6.795  24.167  53.836  1.00  0.00     0.083 A 
HETATM    7  C   UNL     1       6.257  24.357  52.549  1.00  0.00     0.074 A 
HETATM    8  C   UNL     1       5.964  25.636  52.067  1.00  0.00     0.073 A 
HETATM    9  C   UNL     1       6.217  26.767  52.851  1.00  0.00     0.067 A 
HETATM   10  C   UNL     1       7.539  25.504  55.954  1.00  0.00     0.041 A 
ENDROOT
BRANCH   1  11
HETATM   11  C   UNL     1       7.923  27.601  57.457  1.00  0.00     0.059 C 
BRANCH  11  12
HETATM   12  C   UNL     1       9.118  28.528  57.215  1.00  0.00     0.033 C 
BRANCH  12  13
HETATM   13  C   UNL     1       8.784  29.997  57.451  1.00  0.00     0.233 C 
BRANCH  13  14
HETATM   14  N   UNL     1       7.833  30.132  58.595  1.00  0.00    -0.067 N 
HETATM   15  H   UNL     1       8.221  29.631  59.407  1.00  0.00     0.277 HD
HETATM   16  H   UNL     1       6.941  29.661  58.397  1.00  0.00     0.277 HD
BRANCH  14  17
HETATM   17  C   UNL     1       7.510  31.528  59.058  1.00  0.00     0.223 C 
HETATM   18  C   UNL     1       6.066  31.875  58.700  1.00  0.00     0.046 C 
BRANCH  17  19
HETATM   19  C   UNL     1       7.749  31.667  60.530  1.00  0.00     0.032 A 
HETATM   20  S   UNL     1       7.038  32.929  61.460  1.00  0.00    -0.076 SA
HETATM   21  C   UNL     1       7.811  32.325  62.870  1.00  0.00     0.071 A 
HETATM   22  C   UNL     1       7.625  32.989  64.191  1.00  0.00     0.078 C 
HETATM   23  N   UNL     1       8.547  31.252  62.681  1.00  0.00    -0.257 NA
HETATM   24  C   UNL     1       8.529  30.883  61.355  1.00  0.00     0.134 A 
ENDBRANCH  17  19
ENDBRANCH  14  17
ENDBRANCH  13  14
ENDBRANCH  12  13
ENDBRANCH  11  12
ENDBRANCH   1  11
BRANCH   6  25
HETATM   25  O   UNL     1       7.108  22.952  54.388  1.00  0.00    -0.355 OA
HETATM   26  C   UNL     1       8.205  22.243  53.826  1.00  0.00     0.210 C 
ENDBRANCH   6  25
BRANCH   8  27
HETATM   27  O   UNL     1       5.432  25.927  50.838  1.00  0.00    -0.356 OA
HETATM   28  C   UNL     1       5.237  27.301  50.523  1.00  0.00     0.210 C 
ENDBRANCH   8  27
TORSDOF 8
ENDMDL
