MODEL 1
REMARK VINA RESULT:      -8.9      0.000      0.000
REMARK  5 active torsions:
REMARK  status: ('A' for Active; 'I' for Inactive)
REMARK    1  A    between atoms: C_2  and  O_3 
REMARK    2  A    between atoms: O_3  and  C_4 
REMARK    3  A    between atoms: C_7  and  C_8 
REMARK    4  A    between atoms: C_12  and  C_13 
REMARK       I    between atoms: C_13  and  N_14 
REMARK    5  A    between atoms: N_14  and  C_15 
ROOT
HETATM    1  C   UNL     1       5.643  25.803  53.048  1.00  0.00     0.068 A 
HETATM    2  N   UNL     1       6.561  24.841  52.771  1.00  0.00    -0.248 NA
HETATM    3  C   UNL     1       7.176  24.186  53.771  1.00  0.00     0.068 A 
HETATM    4  C   UNL     1       6.914  24.438  55.129  1.00  0.00     0.008 A 
HETATM    5  C   UNL     1       5.916  25.399  55.391  1.00  0.00     0.047 A 
HETATM    6  C   UNL     1       5.291  26.096  54.355  1.00  0.00     0.050 A 
HETATM    7  C   UNL     1       8.127  23.230  53.441  1.00  0.00     0.032 A 
HETATM    8  C   UNL     1       8.838  22.523  54.415  1.00  0.00     0.002 A 
HETATM    9  C   UNL     1       8.604  22.781  55.756  1.00  0.00     0.001 A 
HETATM   10  C   UNL     1       7.653  23.734  56.114  1.00  0.00     0.015 A 
ENDROOT
BRANCH   5  11
HETATM   11  C   UNL     1       5.552  25.807  56.761  1.00  0.00     0.271 C 
HETATM   12  N   UNL     1       6.138  26.877  57.378  1.00  0.00    -0.150 N 
HETATM   13  H   UNL     1       5.777  27.121  58.287  1.00  0.00     0.188 HD
HETATM   14  O   UNL     1       4.692  25.146  57.345  1.00  0.00    -0.267 OA
BRANCH  12  15
HETATM   15  C   UNL     1       7.199  27.631  56.977  1.00  0.00     0.747 A 
HETATM   16  N   UNL     1       8.421  27.421  57.473  1.00  0.00     0.020 NA
HETATM   17  N   UNL     1       9.139  28.361  56.841  1.00  0.00    -0.255 N 
HETATM   18  H   UNL     1      10.131  28.450  57.035  1.00  0.00     0.190 HD
HETATM   19  C   UNL     1       8.361  29.081  55.994  1.00  0.00     0.246 A 
HETATM   20  N   UNL     1       7.130  28.632  56.054  1.00  0.00    -0.055 NA
ENDBRANCH  12  15
ENDBRANCH   5  11
BRANCH   1  21
HETATM   21  C   UNL     1       5.075  26.501  51.870  1.00  0.00    -0.007 A 
HETATM   22  C   UNL     1       5.099  25.903  50.597  1.00  0.00     0.016 A 
HETATM   23  C   UNL     1       4.572  26.546  49.471  1.00  0.00     0.037 A 
HETATM   24  C   UNL     1       3.996  27.809  49.580  1.00  0.00     0.068 A 
HETATM   25  C   UNL     1       3.976  28.435  50.823  1.00  0.00     0.037 A 
HETATM   26  C   UNL     1       4.511  27.789  51.949  1.00  0.00     0.016 A 
BRANCH  24  27
HETATM   27  O   UNL     1       3.509  28.325  48.412  1.00  0.00    -0.352 OA
BRANCH  27  28
HETATM   28  C   UNL     1       2.748  27.445  47.587  1.00  0.00     0.171 C 
HETATM   29  C   UNL     1       1.318  27.447  48.095  1.00  0.00     0.034 C 
ENDBRANCH  27  28
ENDBRANCH  24  27
ENDBRANCH   1  21
TORSDOF 5
ENDMDL
MODEL 2
REMARK VINA RESULT:      -8.6      9.391     12.997
REMARK  5 active torsions:
REMARK  status: ('A' for Active; 'I' for Inactive)
REMARK    1  A    between atoms: C_2  and  O_3 
REMARK    2  A    between atoms: O_3  and  C_4 
REMARK    3  A    between atoms: C_7  and  C_8 
REMARK    4  A    between atoms: C_12  and  C_13 
REMARK       I    between atoms: C_13  and  N_14 
REMARK    5  A    between atoms: N_14  and  C_15 
ROOT
HETATM    1  C   UNL     1       6.419  33.121  63.008  1.00  0.00     0.068 A 
HETATM    2  N   UNL     1       6.926  33.282  64.257  1.00  0.00    -0.248 NA
HETATM    3  C   UNL     1       6.151  33.766  65.243  1.00  0.00     0.068 A 
HETATM    4  C   UNL     1       4.804  34.120  65.058  1.00  0.00     0.008 A 
HETATM    5  C   UNL     1       4.284  33.889  63.767  1.00  0.00     0.047 A 
HETATM    6  C   UNL     1       5.092  33.406  62.736  1.00  0.00     0.050 A 
HETATM    7  C   UNL     1       6.720  33.940  66.499  1.00  0.00     0.032 A 
HETATM    8  C   UNL     1       5.998  34.466  67.573  1.00  0.00     0.002 A 
HETATM    9  C   UNL     1       4.676  34.840  67.394  1.00  0.00     0.001 A 
HETATM   10  C   UNL     1       4.081  34.674  66.145  1.00  0.00     0.015 A 
ENDROOT
BRANCH   5  11
HETATM   11  C   UNL     1       2.900  34.244  63.397  1.00  0.00     0.271 C 
HETATM   12  N   UNL     1       2.607  35.383  62.701  1.00  0.00    -0.150 N 
HETATM   13  H   UNL     1       1.642  35.507  62.434  1.00  0.00     0.188 HD
HETATM   14  O   UNL     1       2.002  33.474  63.739  1.00  0.00    -0.267 OA
BRANCH  12  15
HETATM   15  C   UNL     1       3.417  36.425  62.368  1.00  0.00     0.747 A 
HETATM   16  N   UNL     1       3.816  37.308  63.287  1.00  0.00     0.020 NA
HETATM   17  N   UNL     1       4.561  38.150  62.555  1.00  0.00    -0.255 N 
HETATM   18  H   UNL     1       4.996  38.951  62.999  1.00  0.00     0.190 HD
HETATM   19  C   UNL     1       4.604  37.756  61.257  1.00  0.00     0.246 A 
HETATM   20  N   UNL     1       3.897  36.662  61.114  1.00  0.00    -0.055 NA
ENDBRANCH  12  15
ENDBRANCH   5  11
BRANCH   1  21
HETATM   21  C   UNL     1       7.380  32.639  61.986  1.00  0.00    -0.007 A 
HETATM   22  C   UNL     1       7.006  32.544  60.634  1.00  0.00     0.016 A 
HETATM   23  C   UNL     1       7.896  32.088  59.654  1.00  0.00     0.037 A 
HETATM   24  C   UNL     1       9.194  31.714  59.993  1.00  0.00     0.068 A 
HETATM   25  C   UNL     1       9.586  31.777  61.328  1.00  0.00     0.037 A 
HETATM   26  C   UNL     1       8.689  32.231  62.308  1.00  0.00     0.016 A 
BRANCH  24  27
HETATM   27  O   UNL     1       9.967  31.296  58.947  1.00  0.00    -0.352 OA
BRANCH  27  28
HETATM   28  C   UNL     1       9.397  30.322  58.074  1.00  0.00     0.171 C 
HETATM   29  C   UNL     1      10.435  29.971  57.024  1.00  0.00     0.034 C 
ENDBRANCH  27  28
ENDBRANCH  24  27
ENDBRANCH   1  21
TORSDOF 5
ENDMDL
MODEL 3
REMARK VINA RESULT:      -8.4      3.000      6.812
REMARK  5 active torsions:
REMARK  status: ('A' for Active; 'I' for Inactive)
REMARK    1  A    between atoms: C_2  and  O_3 
REMARK    2  A    between atoms: O_3  and  C_4 
REMARK    3  A    between atoms: C_7  and  C_8 
REMARK    4  A    between atoms: C_12  and  C_13 
REMARK       I    between atoms: C_13  and  N_14 
REMARK    5  A    between atoms: N_14  and  C_15 
ROOT
HETATM    1  C   UNL     1       7.683  26.424  55.737  1.00  0.00     0.068 A 
HETATM    2  N   UNL     1       7.834  25.270  56.436  1.00  0.00    -0.248 NA
HETATM    3  C   UNL     1       7.848  24.088  55.795  1.00  0.00     0.068 A 
HETATM    4  C   UNL     1       7.718  23.970  54.401  1.00  0.00     0.008 A 
HETATM    5  C   UNL     1       7.620  25.185  53.691  1.00  0.00     0.047 A 
HETATM    6  C   UNL     1       7.585  26.412  54.356  1.00  0.00     0.050 A 
HETATM    7  C   UNL     1       7.978  22.933  56.554  1.00  0.00     0.032 A 
HETATM    8  C   UNL     1       7.969  21.661  55.976  1.00  0.00     0.002 A 
HETATM    9  C   UNL     1       7.819  21.532  54.604  1.00  0.00     0.001 A 
HETATM   10  C   UNL     1       7.689  22.677  53.820  1.00  0.00     0.015 A 
ENDROOT
BRANCH   5  11
HETATM   11  C   UNL     1       7.438  25.232  52.228  1.00  0.00     0.271 C 
HETATM   12  N   UNL     1       6.435  25.957  51.647  1.00  0.00    -0.150 N 
HETATM   13  H   UNL     1       6.431  25.985  50.638  1.00  0.00     0.188 HD
HETATM   14  O   UNL     1       8.226  24.590  51.532  1.00  0.00    -0.267 OA
BRANCH  12  15
HETATM   15  C   UNL     1       5.384  26.599  52.228  1.00  0.00     0.747 A 
HETATM   16  N   UNL     1       4.444  25.920  52.890  1.00  0.00     0.020 NA
HETATM   17  N   UNL     1       3.615  26.903  53.275  1.00  0.00    -0.255 N 
HETATM   18  H   UNL     1       2.779  26.677  53.803  1.00  0.00     0.190 HD
HETATM   19  C   UNL     1       4.071  28.112  52.862  1.00  0.00     0.246 A 
HETATM   20  N   UNL     1       5.195  27.948  52.205  1.00  0.00    -0.055 NA
ENDBRANCH  12  15
ENDBRANCH   5  11
BRANCH   1  21
HETATM   21  C   UNL     1       7.621  27.661  56.552  1.00  0.00    -0.007 A 
HETATM   22  C   UNL     1       8.790  28.224  57.095  1.00  0.00     0.016 A 
HETATM   23  C   UNL     1       8.755  29.389  57.871  1.00  0.00     0.037 A 
HETATM   24  C   UNL     1       7.547  30.035  58.126  1.00  0.00     0.068 A 
HETATM   25  C   UNL     1       6.371  29.489  57.619  1.00  0.00     0.037 A 
HETATM   26  C   UNL     1       6.411  28.317  56.846  1.00  0.00     0.016 A 
BRANCH  24  27
HETATM   27  O   UNL     1       7.646  31.166  58.887  1.00  0.00    -0.352 OA
BRANCH  27  28
HETATM   28  C   UNL     1       8.962  31.612  59.209  1.00  0.00     0.171 C 
HETATM   29  C   UNL     1       8.897  32.339  60.540  1.00  0.00     0.034 C 
ENDBRANCH  27  28
ENDBRANCH  24  27
ENDBRANCH   1  21
TORSDOF 5
ENDMDL
MODEL 4
REMARK VINA RESULT:      -8.3      4.569      7.887
REMARK  5 active torsions:
REMARK  status: ('A' for Active; 'I' for Inactive)
REMARK    1  A    between atoms: C_2  and  O_3 
REMARK    2  A    between atoms: O_3  and  C_4 
REMARK    3  A    between atoms: C_7  and  C_8 
REMARK    4  A    between atoms: C_12  and  C_13 
REMARK       I    between atoms: C_13  and  N_14 
REMARK    5  A    between atoms: N_14  and  C_15 
ROOT
HETATM    1  C   UNL     1       7.286  29.282  57.812  1.00  0.00     0.068 A 
HETATM    2  N   UNL     1       8.191  29.372  58.819  1.00  0.00    -0.248 NA
HETATM    3  C   UNL     1       8.236  30.474  59.589  1.00  0.00     0.068 A 
HETATM    4  C   UNL     1       7.373  31.568  59.415  1.00  0.00     0.008 A 
HETATM    5  C   UNL     1       6.404  31.426  58.400  1.00  0.00     0.047 A 
HETATM    6  C   UNL     1       6.368  30.293  57.586  1.00  0.00     0.050 A 
HETATM    7  C   UNL     1       9.197  30.535  60.591  1.00  0.00     0.032 A 
HETATM    8  C   UNL     1       9.337  31.653  61.417  1.00  0.00     0.002 A 
HETATM    9  C   UNL     1       8.506  32.746  61.238  1.00  0.00     0.001 A 
HETATM   10  C   UNL     1       7.532  32.710  60.241  1.00  0.00     0.015 A 
ENDROOT
BRANCH   5  11
HETATM   11  C   UNL     1       5.449  32.500  58.063  1.00  0.00     0.271 C 
HETATM   12  N   UNL     1       4.357  32.766  58.841  1.00  0.00    -0.150 N 
HETATM   13  H   UNL     1       3.799  33.562  58.570  1.00  0.00     0.188 HD
HETATM   14  O   UNL     1       5.665  33.159  57.046  1.00  0.00    -0.267 OA
BRANCH  12  15
HETATM   15  C   UNL     1       3.859  32.070  59.900  1.00  0.00     0.747 A 
HETATM   16  N   UNL     1       3.051  31.023  59.718  1.00  0.00     0.020 NA
HETATM   17  N   UNL     1       2.791  30.654  60.982  1.00  0.00    -0.255 N 
HETATM   18  H   UNL     1       2.174  29.867  61.158  1.00  0.00     0.190 HD
HETATM   19  C   UNL     1       3.442  31.451  61.865  1.00  0.00     0.246 A 
HETATM   20  N   UNL     1       4.133  32.350  61.206  1.00  0.00    -0.055 NA
ENDBRANCH  12  15
ENDBRANCH   5  11
BRANCH   1  21
HETATM   21  C   UNL     1       7.367  28.049  56.990  1.00  0.00    -0.007 A 
HETATM   22  C   UNL     1       7.728  26.820  57.570  1.00  0.00     0.016 A 
HETATM   23  C   UNL     1       7.815  25.646  56.813  1.00  0.00     0.037 A 
HETATM   24  C   UNL     1       7.538  25.660  55.448  1.00  0.00     0.068 A 
HETATM   25  C   UNL     1       7.198  26.866  54.842  1.00  0.00     0.037 A 
HETATM   26  C   UNL     1       7.117  28.043  55.605  1.00  0.00     0.016 A 
BRANCH  24  27
HETATM   27  O   UNL     1       7.648  24.450  54.823  1.00  0.00    -0.352 OA
BRANCH  27  28
HETATM   28  C   UNL     1       7.870  24.470  53.414  1.00  0.00     0.171 C 
HETATM   29  C   UNL     1       7.861  23.035  52.919  1.00  0.00     0.034 C 
ENDBRANCH  27  28
ENDBRANCH  24  27
ENDBRANCH   1  21
TORSDOF 5
ENDMDL
MODEL 5
REMARK VINA RESULT:      -8.2      3.262      7.771
REMARK  5 active torsions:
REMARK  status: ('A' for Active; 'I' for Inactive)
REMARK    1  A    between atoms: C_2  and  O_3 
REMARK    2  A    between atoms: O_3  and  C_4 
REMARK    3  A    between atoms: C_7  and  C_8 
REMARK    4  A    between atoms: C_12  and  C_13 
REMARK       I    between atoms: C_13  and  N_14 
REMARK    5  A    between atoms: N_14  and  C_15 
ROOT
HETATM    1  C   UNL     1       5.990  27.165  52.830  1.00  0.00     0.068 A 
HETATM    2  N   UNL     1       5.244  27.744  53.805  1.00  0.00    -0.248 NA
HETATM    3  C   UNL     1       4.615  28.910  53.573  1.00  0.00     0.068 A 
HETATM    4  C   UNL     1       4.679  29.584  52.342  1.00  0.00     0.008 A 
HETATM    5  C   UNL     1       5.412  28.934  51.327  1.00  0.00     0.047 A 
HETATM    6  C   UNL     1       6.082  27.734  51.571  1.00  0.00     0.050 A 
HETATM    7  C   UNL     1       3.885  29.479  54.608  1.00  0.00     0.032 A 
HETATM    8  C   UNL     1       3.227  30.703  54.466  1.00  0.00     0.002 A 
HETATM    9  C   UNL     1       3.303  31.387  53.263  1.00  0.00     0.001 A 
HETATM   10  C   UNL     1       4.027  30.836  52.207  1.00  0.00     0.015 A 
ENDROOT
BRANCH   5  11
HETATM   11  C   UNL     1       5.608  29.528  49.990  1.00  0.00     0.271 C 
HETATM   12  N   UNL     1       4.927  29.080  48.893  1.00  0.00    -0.150 N 
HETATM   13  H   UNL     1       5.076  29.592  48.036  1.00  0.00     0.188 HD
HETATM   14  O   UNL     1       6.416  30.453  49.888  1.00  0.00    -0.267 OA
BRANCH  12  15
HETATM   15  C   UNL     1       4.122  27.991  48.760  1.00  0.00     0.747 A 
HETATM   16  N   UNL     1       2.811  28.069  49.000  1.00  0.00     0.020 NA
HETATM   17  N   UNL     1       2.413  26.808  48.774  1.00  0.00    -0.255 N 
HETATM   18  H   UNL     1       1.437  26.560  48.893  1.00  0.00     0.190 HD
HETATM   19  C   UNL     1       3.459  26.029  48.398  1.00  0.00     0.246 A 
HETATM   20  N   UNL     1       4.550  26.756  48.372  1.00  0.00    -0.055 NA
ENDBRANCH  12  15
ENDBRANCH   5  11
BRANCH   1  21
HETATM   21  C   UNL     1       6.687  25.914  53.217  1.00  0.00    -0.007 A 
HETATM   22  C   UNL     1       7.326  25.118  52.250  1.00  0.00     0.016 A 
HETATM   23  C   UNL     1       7.986  23.932  52.594  1.00  0.00     0.037 A 
HETATM   24  C   UNL     1       8.034  23.503  53.918  1.00  0.00     0.068 A 
HETATM   25  C   UNL     1       7.392  24.261  54.894  1.00  0.00     0.037 A 
HETATM   26  C   UNL     1       6.726  25.448  54.545  1.00  0.00     0.016 A 
BRANCH  24  27
HETATM   27  O   UNL     1       8.715  22.337  54.124  1.00  0.00    -0.352 OA
BRANCH  27  28
HETATM   28  C   UNL     1       7.949  21.134  54.115  1.00  0.00     0.171 C 
HETATM   29  C   UNL     1       8.362  20.325  52.899  1.00  0.00     0.034 C 
ENDBRANCH  27  28
ENDBRANCH  24  27
ENDBRANCH   1  21
TORSDOF 5
ENDMDL
MODEL 6
REMARK VINA RESULT:      -8.1      2.055      2.761
REMARK  5 active torsions:
REMARK  status: ('A' for Active; 'I' for Inactive)
REMARK    1  A    between atoms: C_2  and  O_3 
REMARK    2  A    between atoms: O_3  and  C_4 
REMARK    3  A    between atoms: C_7  and  C_8 
REMARK    4  A    between atoms: C_12  and  C_13 
REMARK       I    between atoms: C_13  and  N_14 
REMARK    5  A    between atoms: N_14  and  C_15 
ROOT
HETATM    1  C   UNL     1       6.084  26.951  52.566  1.00  0.00     0.068 A 
HETATM    2  N   UNL     1       6.011  25.705  53.099  1.00  0.00    -0.248 NA
HETATM    3  C   UNL     1       6.624  25.431  54.264  1.00  0.00     0.068 A 
HETATM    4  C   UNL     1       7.353  26.388  54.991  1.00  0.00     0.008 A 
HETATM    5  C   UNL     1       7.365  27.689  54.447  1.00  0.00     0.047 A 
HETATM    6  C   UNL     1       6.747  27.971  53.228  1.00  0.00     0.050 A 
HETATM    7  C   UNL     1       6.546  24.135  54.758  1.00  0.00     0.032 A 
HETATM    8  C   UNL     1       7.179  23.754  55.944  1.00  0.00     0.002 A 
HETATM    9  C   UNL     1       7.918  24.684  56.656  1.00  0.00     0.001 A 
HETATM   10  C   UNL     1       8.011  25.992  56.184  1.00  0.00     0.015 A 
ENDROOT
BRANCH   5  11
HETATM   11  C   UNL     1       8.117  28.797  55.067  1.00  0.00     0.271 C 
HETATM   12  N   UNL     1       7.578  29.573  56.056  1.00  0.00    -0.150 N 
HETATM   13  H   UNL     1       8.191  30.262  56.466  1.00  0.00     0.188 HD
HETATM   14  O   UNL     1       9.261  29.009  54.663  1.00  0.00    -0.267 OA
BRANCH  12  15
HETATM   15  C   UNL     1       6.302  29.606  56.529  1.00  0.00     0.747 A 
HETATM   16  N   UNL     1       5.936  28.863  57.577  1.00  0.00     0.020 NA
HETATM   17  N   UNL     1       4.637  29.176  57.695  1.00  0.00    -0.255 N 
HETATM   18  H   UNL     1       4.080  28.740  58.422  1.00  0.00     0.190 HD
HETATM   19  C   UNL     1       4.269  30.085  56.758  1.00  0.00     0.246 A 
HETATM   20  N   UNL     1       5.307  30.381  56.013  1.00  0.00    -0.055 NA
ENDBRANCH  12  15
ENDBRANCH   5  11
BRANCH   1  21
HETATM   21  C   UNL     1       5.423  27.122  51.250  1.00  0.00    -0.007 A 
HETATM   22  C   UNL     1       5.163  28.405  50.736  1.00  0.00     0.016 A 
HETATM   23  C   UNL     1       4.537  28.589  49.497  1.00  0.00     0.037 A 
HETATM   24  C   UNL     1       4.153  27.494  48.727  1.00  0.00     0.068 A 
HETATM   25  C   UNL     1       4.379  26.212  49.219  1.00  0.00     0.037 A 
HETATM   26  C   UNL     1       5.003  26.032  50.464  1.00  0.00     0.016 A 
BRANCH  24  27
HETATM   27  O   UNL     1       3.560  27.806  47.536  1.00  0.00    -0.352 OA
BRANCH  27  28
HETATM   28  C   UNL     1       2.283  28.437  47.597  1.00  0.00     0.171 C 
HETATM   29  C   UNL     1       1.227  27.349  47.689  1.00  0.00     0.034 C 
ENDBRANCH  27  28
ENDBRANCH  24  27
ENDBRANCH   1  21
TORSDOF 5
ENDMDL
MODEL 7
REMARK VINA RESULT:      -8.0      4.859      7.761
REMARK  5 active torsions:
REMARK  status: ('A' for Active; 'I' for Inactive)
REMARK    1  A    between atoms: C_2  and  O_3 
REMARK    2  A    between atoms: O_3  and  C_4 
REMARK    3  A    between atoms: C_7  and  C_8 
REMARK    4  A    between atoms: C_12  and  C_13 
REMARK       I    between atoms: C_13  and  N_14 
REMARK    5  A    between atoms: N_14  and  C_15 
ROOT
HETATM    1  C   UNL     1       7.516  28.181  57.437  1.00  0.00     0.068 A 
HETATM    2  N   UNL     1       6.257  28.690  57.440  1.00  0.00    -0.248 NA
HETATM    3  C   UNL     1       6.045  29.966  57.809  1.00  0.00     0.068 A 
HETATM    4  C   UNL     1       7.079  30.834  58.197  1.00  0.00     0.008 A 
HETATM    5  C   UNL     1       8.383  30.300  58.130  1.00  0.00     0.047 A 
HETATM    6  C   UNL     1       8.604  28.970  57.766  1.00  0.00     0.050 A 
HETATM    7  C   UNL     1       4.739  30.435  57.824  1.00  0.00     0.032 A 
HETATM    8  C   UNL     1       4.423  31.736  58.224  1.00  0.00     0.002 A 
HETATM    9  C   UNL     1       5.433  32.593  58.630  1.00  0.00     0.001 A 
HETATM   10  C   UNL     1       6.753  32.147  58.623  1.00  0.00     0.015 A 
ENDROOT
BRANCH   5  11
HETATM   11  C   UNL     1       9.574  31.068  58.541  1.00  0.00     0.271 C 
HETATM   12  N   UNL     1       9.897  31.253  59.857  1.00  0.00    -0.150 N 
HETATM   13  H   UNL     1      10.765  31.733  60.040  1.00  0.00     0.188 HD
HETATM   14  O   UNL     1      10.281  31.547  57.653  1.00  0.00    -0.267 OA
BRANCH  12  15
HETATM   15  C   UNL     1       9.181  30.947  60.974  1.00  0.00     0.747 A 
HETATM   16  N   UNL     1       9.447  29.846  61.682  1.00  0.00     0.020 NA
HETATM   17  N   UNL     1       8.527  29.919  62.657  1.00  0.00    -0.255 N 
HETATM   18  H   UNL     1       8.481  29.188  63.359  1.00  0.00     0.190 HD
HETATM   19  C   UNL     1       7.767  31.034  62.525  1.00  0.00     0.246 A 
HETATM   20  N   UNL     1       8.166  31.707  61.473  1.00  0.00    -0.055 NA
ENDBRANCH  12  15
ENDBRANCH   5  11
BRANCH   1  21
HETATM   21  C   UNL     1       7.623  26.747  57.071  1.00  0.00    -0.007 A 
HETATM   22  C   UNL     1       8.691  25.962  57.542  1.00  0.00     0.016 A 
HETATM   23  C   UNL     1       8.814  24.609  57.206  1.00  0.00     0.037 A 
HETATM   24  C   UNL     1       7.868  23.992  56.390  1.00  0.00     0.068 A 
HETATM   25  C   UNL     1       6.812  24.749  55.892  1.00  0.00     0.037 A 
HETATM   26  C   UNL     1       6.695  26.108  56.227  1.00  0.00     0.016 A 
BRANCH  24  27
HETATM   27  O   UNL     1       8.095  22.667  56.144  1.00  0.00    -0.352 OA
BRANCH  27  28
HETATM   28  C   UNL     1       7.601  22.148  54.911  1.00  0.00     0.171 C 
HETATM   29  C   UNL     1       8.729  22.198  53.896  1.00  0.00     0.034 C 
ENDBRANCH  27  28
ENDBRANCH  24  27
ENDBRANCH   1  21
TORSDOF 5
ENDMDL
MODEL 8
REMARK VINA RESULT:      -8.0      3.406      7.403
REMARK  5 active torsions:
REMARK  status: ('A' for Active; 'I' for Inactive)
REMARK    1  A    between atoms: C_2  and  O_3 
REMARK    2  A    between atoms: O_3  and  C_4 
REMARK    3  A    between atoms: C_7  and  C_8 
REMARK    4  A    between atoms: C_12  and  C_13 
REMARK       I    between atoms: C_13  and  N_14 
REMARK    5  A    between atoms: N_14  and  C_15 
ROOT
HETATM    1  C   UNL     1       8.245  27.824  56.612  1.00  0.00     0.068 A 
HETATM    2  N   UNL     1       8.544  26.668  57.257  1.00  0.00    -0.248 NA
HETATM    3  C   UNL     1       8.241  25.484  56.695  1.00  0.00     0.068 A 
HETATM    4  C   UNL     1       7.621  25.366  55.440  1.00  0.00     0.008 A 
HETATM    5  C   UNL     1       7.374  26.579  54.764  1.00  0.00     0.047 A 
HETATM    6  C   UNL     1       7.668  27.810  55.353  1.00  0.00     0.050 A 
HETATM    7  C   UNL     1       8.540  24.327  57.404  1.00  0.00     0.032 A 
HETATM    8  C   UNL     1       8.232  23.056  56.912  1.00  0.00     0.002 A 
HETATM    9  C   UNL     1       7.601  22.930  55.685  1.00  0.00     0.001 A 
HETATM   10  C   UNL     1       7.291  24.075  54.953  1.00  0.00     0.015 A 
ENDROOT
BRANCH   5  11
HETATM   11  C   UNL     1       6.694  26.630  53.456  1.00  0.00     0.271 C 
HETATM   12  N   UNL     1       5.632  27.459  53.224  1.00  0.00    -0.150 N 
HETATM   13  H   UNL     1       5.276  27.475  52.280  1.00  0.00     0.188 HD
HETATM   14  O   UNL     1       7.116  25.894  52.562  1.00  0.00    -0.267 OA
BRANCH  12  15
HETATM   15  C   UNL     1       4.925  28.223  54.101  1.00  0.00     0.747 A 
HETATM   16  N   UNL     1       4.741  29.529  53.886  1.00  0.00     0.020 NA
HETATM   17  N   UNL     1       4.029  29.888  54.965  1.00  0.00    -0.255 N 
HETATM   18  H   UNL     1       3.748  30.855  55.081  1.00  0.00     0.190 HD
HETATM   19  C   UNL     1       3.795  28.821  55.769  1.00  0.00     0.246 A 
HETATM   20  N   UNL     1       4.342  27.753  55.241  1.00  0.00    -0.055 NA
ENDBRANCH  12  15
ENDBRANCH   5  11
BRANCH   1  21
HETATM   21  C   UNL     1       8.568  29.069  57.351  1.00  0.00    -0.007 A 
HETATM   22  C   UNL     1       7.571  29.766  58.058  1.00  0.00     0.016 A 
HETATM   23  C   UNL     1       7.854  30.944  58.759  1.00  0.00     0.037 A 
HETATM   24  C   UNL     1       9.146  31.464  58.782  1.00  0.00     0.068 A 
HETATM   25  C   UNL     1      10.148  30.807  58.074  1.00  0.00     0.037 A 
HETATM   26  C   UNL     1       9.860  29.628  57.368  1.00  0.00     0.016 A 
BRANCH  24  27
HETATM   27  O   UNL     1       9.294  32.612  59.508  1.00  0.00    -0.352 OA
BRANCH  27  28
HETATM   28  C   UNL     1       8.724  32.626  60.815  1.00  0.00     0.171 C 
HETATM   29  C   UNL     1       9.590  31.761  61.713  1.00  0.00     0.034 C 
ENDBRANCH  27  28
ENDBRANCH  24  27
ENDBRANCH   1  21
TORSDOF 5
ENDMDL
MODEL 9
REMARK VINA RESULT:      -8.0     10.341     14.828
REMARK  5 active torsions:
REMARK  status: ('A' for Active; 'I' for Inactive)
REMARK    1  A    between atoms: C_2  and  O_3 
REMARK    2  A    between atoms: O_3  and  C_4 
REMARK    3  A    between atoms: C_7  and  C_8 
REMARK    4  A    between atoms: C_12  and  C_13 
REMARK       I    between atoms: C_13  and  N_14 
REMARK    5  A    between atoms: N_14  and  C_15 
ROOT
HETATM    1  C   UNL     1       6.251  33.911  64.714  1.00  0.00     0.068 A 
HETATM    2  N   UNL     1       7.286  33.118  64.335  1.00  0.00    -0.248 NA
HETATM    3  C   UNL     1       7.513  32.882  63.031  1.00  0.00     0.068 A 
HETATM    4  C   UNL     1       6.726  33.428  62.003  1.00  0.00     0.008 A 
HETATM    5  C   UNL     1       5.693  34.294  62.420  1.00  0.00     0.047 A 
HETATM    6  C   UNL     1       5.442  34.525  63.774  1.00  0.00     0.050 A 
HETATM    7  C   UNL     1       8.566  32.043  62.690  1.00  0.00     0.032 A 
HETATM    8  C   UNL     1       8.855  31.717  61.362  1.00  0.00     0.002 A 
HETATM    9  C   UNL     1       8.070  32.232  60.343  1.00  0.00     0.001 A 
HETATM   10  C   UNL     1       7.009  33.079  60.658  1.00  0.00     0.015 A 
ENDROOT
BRANCH   5  11
HETATM   11  C   UNL     1       4.752  34.917  61.469  1.00  0.00     0.271 C 
HETATM   12  N   UNL     1       3.714  34.219  60.916  1.00  0.00    -0.150 N 
HETATM   13  H   UNL     1       3.084  34.746  60.331  1.00  0.00     0.188 HD
HETATM   14  O   UNL     1       4.930  36.101  61.181  1.00  0.00    -0.267 OA
BRANCH  12  15
HETATM   15  C   UNL     1       3.438  32.888  60.979  1.00  0.00     0.747 A 
HETATM   16  N   UNL     1       3.386  32.249  62.150  1.00  0.00     0.020 NA
HETATM   17  N   UNL     1       3.110  30.993  61.767  1.00  0.00    -0.255 N 
HETATM   18  H   UNL     1       3.022  30.263  62.465  1.00  0.00     0.190 HD
HETATM   19  C   UNL     1       2.988  30.913  60.418  1.00  0.00     0.246 A 
HETATM   20  N   UNL     1       3.181  32.100  59.896  1.00  0.00    -0.055 NA
ENDBRANCH  12  15
ENDBRANCH   5  11
BRANCH   1  21
HETATM   21  C   UNL     1       6.059  34.052  66.178  1.00  0.00    -0.007 A 
HETATM   22  C   UNL     1       4.778  33.941  66.750  1.00  0.00     0.016 A 
HETATM   23  C   UNL     1       4.574  34.075  68.128  1.00  0.00     0.037 A 
HETATM   24  C   UNL     1       5.645  34.318  68.985  1.00  0.00     0.068 A 
HETATM   25  C   UNL     1       6.921  34.452  68.445  1.00  0.00     0.037 A 
HETATM   26  C   UNL     1       7.121  34.323  67.061  1.00  0.00     0.016 A 
BRANCH  24  27
HETATM   27  O   UNL     1       5.316  34.418  70.307  1.00  0.00    -0.352 OA
BRANCH  27  28
HETATM   28  C   UNL     1       6.367  34.766  71.207  1.00  0.00     0.171 C 
HETATM   29  C   UNL     1       6.617  33.577  72.116  1.00  0.00     0.034 C 
ENDBRANCH  27  28
ENDBRANCH  24  27
ENDBRANCH   1  21
TORSDOF 5
ENDMDL
MODEL 10
REMARK VINA RESULT:      -8.0     12.158     16.524
REMARK  5 active torsions:
REMARK  status: ('A' for Active; 'I' for Inactive)
REMARK    1  A    between atoms: C_2  and  O_3 
REMARK    2  A    between atoms: O_3  and  C_4 
REMARK    3  A    between atoms: C_7  and  C_8 
REMARK    4  A    between atoms: C_12  and  C_13 
REMARK       I    between atoms: C_13  and  N_14 
REMARK    5  A    between atoms: N_14  and  C_15 
ROOT
HETATM    1  C   UNL     1       6.108  34.168  66.499  1.00  0.00     0.068 A 
HETATM    2  N   UNL     1       7.103  33.609  65.762  1.00  0.00    -0.248 NA
HETATM    3  C   UNL     1       6.917  33.362  64.454  1.00  0.00     0.068 A 
HETATM    4  C   UNL     1       5.723  33.663  63.778  1.00  0.00     0.008 A 
HETATM    5  C   UNL     1       4.726  34.296  64.550  1.00  0.00     0.047 A 
HETATM    6  C   UNL     1       4.909  34.535  65.913  1.00  0.00     0.050 A 
HETATM    7  C   UNL     1       7.952  32.764  63.746  1.00  0.00     0.032 A 
HETATM    8  C   UNL     1       7.835  32.442  62.392  1.00  0.00     0.002 A 
HETATM    9  C   UNL     1       6.653  32.714  61.721  1.00  0.00     0.001 A 
HETATM   10  C   UNL     1       5.600  33.316  62.408  1.00  0.00     0.015 A 
ENDROOT
BRANCH   5  11
HETATM   11  C   UNL     1       3.401  34.642  64.001  1.00  0.00     0.271 C 
HETATM   12  N   UNL     1       3.218  35.717  63.176  1.00  0.00    -0.150 N 
HETATM   13  H   UNL     1       2.292  35.835  62.795  1.00  0.00     0.188 HD
HETATM   14  O   UNL     1       2.449  33.925  64.310  1.00  0.00    -0.267 OA
BRANCH  12  15
HETATM   15  C   UNL     1       4.090  36.708  62.842  1.00  0.00     0.747 A 
HETATM   16  N   UNL     1       4.506  36.864  61.583  1.00  0.00     0.020 NA
HETATM   17  N   UNL     1       5.339  37.911  61.696  1.00  0.00    -0.255 N 
HETATM   18  H   UNL     1       5.825  38.256  60.876  1.00  0.00     0.190 HD
HETATM   19  C   UNL     1       5.388  38.355  62.977  1.00  0.00     0.246 A 
HETATM   20  N   UNL     1       4.599  37.618  63.720  1.00  0.00    -0.055 NA
ENDBRANCH  12  15
ENDBRANCH   5  11
BRANCH   1  21
HETATM   21  C   UNL     1       6.402  34.338  67.943  1.00  0.00    -0.007 A 
HETATM   22  C   UNL     1       7.700  34.659  68.380  1.00  0.00     0.016 A 
HETATM   23  C   UNL     1       7.999  34.820  69.738  1.00  0.00     0.037 A 
HETATM   24  C   UNL     1       7.009  34.671  70.706  1.00  0.00     0.068 A 
HETATM   25  C   UNL     1       5.720  34.333  70.304  1.00  0.00     0.037 A 
HETATM   26  C   UNL     1       5.425  34.168  68.941  1.00  0.00     0.016 A 
BRANCH  24  27
HETATM   27  O   UNL     1       7.426  34.863  71.993  1.00  0.00    -0.352 OA
BRANCH  27  28
HETATM   28  C   UNL     1       7.147  33.817  72.923  1.00  0.00     0.171 C 
HETATM   29  C   UNL     1       8.178  32.722  72.719  1.00  0.00     0.034 C 
ENDBRANCH  27  28
ENDBRANCH  24  27
ENDBRANCH   1  21
TORSDOF 5
ENDMDL
