MODEL 1
REMARK VINA RESULT:      -9.6      0.000      0.000
REMARK  5 active torsions:
REMARK  status: ('A' for Active; 'I' for Inactive)
REMARK    1  A    between atoms: O_2  and  C_3 
REMARK    2  A    between atoms: C_5  and  O_6 
REMARK    3  A    between atoms: C_8  and  C_9 
REMARK    4  A    between atoms: C_21  and  N_22 
REMARK       I    between atoms: N_22  and  C_23 
REMARK    5  A    between atoms: C_23  and  C_24 
ROOT
HETATM    1  C   UNL     1       6.571  30.461  57.714  1.00  0.00    -0.022 A 
HETATM    2  C   UNL     1       6.544  29.102  57.365  1.00  0.00     0.031 A 
HETATM    3  C   UNL     1       5.971  28.652  56.159  1.00  0.00     0.059 A 
HETATM    4  C   UNL     1       5.412  29.586  55.268  1.00  0.00     0.050 A 
HETATM    5  N   UNL     1       4.792  29.284  54.040  1.00  0.00    -0.324 N 
HETATM    6  C   UNL     1       5.033  28.224  53.205  1.00  0.00     0.245 C 
HETATM    7  O   UNL     1       4.375  28.101  52.173  1.00  0.00    -0.271 OA
HETATM    8  C   UNL     1       6.189  27.296  53.584  1.00  0.00     0.181 C 
HETATM    9  N   UNL     1       5.792  26.572  54.789  1.00  0.00    -0.334 N 
HETATM   10  C   UNL     1       5.803  27.177  56.040  1.00  0.00     0.256 C 
HETATM   11  O   UNL     1       5.647  26.517  57.067  1.00  0.00    -0.267 OA
HETATM   12  C   UNL     1       6.664  26.393  52.431  1.00  0.00     0.060 C 
HETATM   13  C   UNL     1       6.554  24.897  52.725  1.00  0.00     0.088 C 
HETATM   14  C   UNL     1       5.199  24.602  53.353  1.00  0.00     0.045 C 
HETATM   15  C   UNL     1       5.019  25.338  54.671  1.00  0.00     0.129 C 
HETATM   16  C   UNL     1       5.418  30.942  55.623  1.00  0.00     0.031 A 
HETATM   17  C   UNL     1       5.998  31.373  56.821  1.00  0.00     0.014 A 
HETATM   18  H   UNL     1       4.173  29.977  53.631  1.00  0.00     0.169 HD
ENDROOT
BRANCH  13  19
HETATM   19  N   UNL     1       7.654  24.428  53.573  1.00  0.00    -0.356 N 
HETATM   20  C   UNL     1       8.007  23.102  53.621  1.00  0.00     0.222 C 
HETATM   21  O   UNL     1       7.359  22.202  53.098  1.00  0.00    -0.273 OA
HETATM   22  H   UNL     1       8.359  25.119  53.813  1.00  0.00     0.162 HD
BRANCH  20  23
HETATM   23  C   UNL     1       9.219  22.804  54.495  1.00  0.00     0.081 C 
HETATM   24  C   UNL     1       9.305  21.307  54.835  1.00  0.00     0.041 C 
HETATM   25  C   UNL     1       8.248  20.844  55.831  1.00  0.00     0.233 C 
HETATM   26  N   UNL     1       8.257  21.739  57.025  1.00  0.00    -0.075 N 
HETATM   27  H   UNL     1       9.134  21.617  57.547  1.00  0.00     0.277 HD
HETATM   28  H   UNL     1       7.508  21.432  57.661  1.00  0.00     0.277 HD
HETATM   29  C   UNL     1       8.045  23.182  56.706  1.00  0.00     0.233 C 
HETATM   30  C   UNL     1       9.148  23.655  55.768  1.00  0.00     0.041 C 
ENDBRANCH  20  23
ENDBRANCH  13  19
BRANCH   1  31
HETATM   31  C   UNL     1       7.116  30.901  59.015  1.00  0.00     0.008 A 
HETATM   32  C   UNL     1       8.389  30.513  59.486  1.00  0.00     0.082 A 
HETATM   33  C   UNL     1       8.841  30.975  60.730  1.00  0.00     0.074 A 
HETATM   34  C   UNL     1       8.060  31.833  61.512  1.00  0.00     0.070 A 
HETATM   35  C   UNL     1       6.809  32.226  61.053  1.00  0.00     0.038 A 
HETATM   36  C   UNL     1       6.344  31.764  59.819  1.00  0.00     0.018 A 
BRANCH  32  37
HETATM   37  O   UNL     1       9.105  29.657  58.683  1.00  0.00    -0.355 OA
HETATM   38  C   UNL     1      10.186  30.215  57.943  1.00  0.00     0.210 C 
ENDBRANCH  32  37
BRANCH  34  39
HETATM   39  O   UNL     1       8.633  32.205  62.698  1.00  0.00    -0.356 OA
HETATM   40  C   UNL     1       7.785  32.830  63.655  1.00  0.00     0.210 C 
ENDBRANCH  34  39
ENDBRANCH   1  31
TORSDOF 5
ENDMDL
MODEL 2
REMARK VINA RESULT:      -9.6      4.809      7.984
REMARK  5 active torsions:
REMARK  status: ('A' for Active; 'I' for Inactive)
REMARK    1  A    between atoms: O_2  and  C_3 
REMARK    2  A    between atoms: C_5  and  O_6 
REMARK    3  A    between atoms: C_8  and  C_9 
REMARK    4  A    between atoms: C_21  and  N_22 
REMARK       I    between atoms: N_22  and  C_23 
REMARK    5  A    between atoms: C_23  and  C_24 
ROOT
HETATM    1  C   UNL     1       4.423  34.486  64.151  1.00  0.00    -0.022 A 
HETATM    2  C   UNL     1       4.453  33.372  63.298  1.00  0.00     0.031 A 
HETATM    3  C   UNL     1       3.955  33.427  61.981  1.00  0.00     0.059 A 
HETATM    4  C   UNL     1       3.416  34.631  61.495  1.00  0.00     0.050 A 
HETATM    5  N   UNL     1       2.869  34.830  60.212  1.00  0.00    -0.324 N 
HETATM    6  C   UNL     1       3.182  34.183  59.046  1.00  0.00     0.245 C 
HETATM    7  O   UNL     1       2.582  34.470  58.011  1.00  0.00    -0.271 OA
HETATM    8  C   UNL     1       4.344  33.188  59.098  1.00  0.00     0.181 C 
HETATM    9  N   UNL     1       3.907  32.048  59.899  1.00  0.00    -0.334 N 
HETATM   10  C   UNL     1       3.837  32.115  61.286  1.00  0.00     0.256 C 
HETATM   11  O   UNL     1       3.647  31.104  61.962  1.00  0.00    -0.267 OA
HETATM   12  C   UNL     1       4.903  32.813  57.714  1.00  0.00     0.060 C 
HETATM   13  C   UNL     1       4.821  31.320  57.393  1.00  0.00     0.088 C 
HETATM   14  C   UNL     1       3.445  30.794  57.776  1.00  0.00     0.045 C 
HETATM   15  C   UNL     1       3.176  30.953  59.264  1.00  0.00     0.129 C 
HETATM   16  C   UNL     1       3.365  35.740  62.350  1.00  0.00     0.031 A 
HETATM   17  C   UNL     1       3.870  35.671  63.653  1.00  0.00     0.014 A 
HETATM   18  H   UNL     1       2.251  35.623  60.071  1.00  0.00     0.169 HD
ENDROOT
BRANCH  13  19
HETATM   19  N   UNL     1       5.889  30.564  58.053  1.00  0.00    -0.356 N 
HETATM   20  C   UNL     1       6.787  29.814  57.333  1.00  0.00     0.222 C 
HETATM   21  O   UNL     1       6.686  29.594  56.132  1.00  0.00    -0.273 OA
HETATM   22  H   UNL     1       6.172  30.898  58.970  1.00  0.00     0.162 HD
BRANCH  20  23
HETATM   23  C   UNL     1       7.875  29.156  58.172  1.00  0.00     0.081 C 
HETATM   24  C   UNL     1       8.429  30.129  59.226  1.00  0.00     0.041 C 
HETATM   25  C   UNL     1       9.300  31.234  58.639  1.00  0.00     0.233 C 
HETATM   26  N   UNL     1      10.343  30.637  57.756  1.00  0.00    -0.075 N 
HETATM   27  H   UNL     1      11.010  30.094  58.319  1.00  0.00     0.277 HD
HETATM   28  H   UNL     1      10.889  31.404  57.340  1.00  0.00     0.277 HD
HETATM   29  C   UNL     1       9.797  29.792  56.652  1.00  0.00     0.233 C 
HETATM   30  C   UNL     1       8.989  28.648  57.251  1.00  0.00     0.041 C 
ENDBRANCH  20  23
ENDBRANCH  13  19
BRANCH   1  31
HETATM   31  C   UNL     1       4.888  34.385  65.550  1.00  0.00     0.008 A 
HETATM   32  C   UNL     1       6.253  34.322  65.903  1.00  0.00     0.082 A 
HETATM   33  C   UNL     1       6.618  34.233  67.254  1.00  0.00     0.074 A 
HETATM   34  C   UNL     1       5.654  34.221  68.267  1.00  0.00     0.070 A 
HETATM   35  C   UNL     1       4.308  34.291  67.928  1.00  0.00     0.038 A 
HETATM   36  C   UNL     1       3.931  34.370  66.585  1.00  0.00     0.018 A 
BRANCH  32  37
HETATM   37  O   UNL     1       7.156  34.320  64.867  1.00  0.00    -0.355 OA
HETATM   38  C   UNL     1       7.697  33.061  64.482  1.00  0.00     0.210 C 
ENDBRANCH  32  37
BRANCH  34  39
HETATM   39  O   UNL     1       6.158  34.135  69.536  1.00  0.00    -0.356 OA
HETATM   40  C   UNL     1       6.710  35.323  70.092  1.00  0.00     0.210 C 
ENDBRANCH  34  39
ENDBRANCH   1  31
TORSDOF 5
ENDMDL
MODEL 3
REMARK VINA RESULT:      -9.2      3.208      8.302
REMARK  5 active torsions:
REMARK  status: ('A' for Active; 'I' for Inactive)
REMARK    1  A    between atoms: O_2  and  C_3 
REMARK    2  A    between atoms: C_5  and  O_6 
REMARK    3  A    between atoms: C_8  and  C_9 
REMARK    4  A    between atoms: C_21  and  N_22 
REMARK       I    between atoms: N_22  and  C_23 
REMARK    5  A    between atoms: C_23  and  C_24 
ROOT
HETATM    1  C   UNL     1       7.655  26.134  56.271  1.00  0.00    -0.022 A 
HETATM    2  C   UNL     1       6.433  26.768  55.997  1.00  0.00     0.031 A 
HETATM    3  C   UNL     1       6.142  28.063  56.470  1.00  0.00     0.059 A 
HETATM    4  C   UNL     1       7.100  28.752  57.234  1.00  0.00     0.050 A 
HETATM    5  N   UNL     1       6.945  30.039  57.785  1.00  0.00    -0.324 N 
HETATM    6  C   UNL     1       6.172  31.073  57.323  1.00  0.00     0.245 C 
HETATM    7  O   UNL     1       6.134  32.131  57.949  1.00  0.00    -0.271 OA
HETATM    8  C   UNL     1       5.461  30.860  55.985  1.00  0.00     0.181 C 
HETATM    9  N   UNL     1       4.424  29.854  56.195  1.00  0.00    -0.334 N 
HETATM   10  C   UNL     1       4.728  28.503  56.305  1.00  0.00     0.256 C 
HETATM   11  O   UNL     1       3.842  27.649  56.298  1.00  0.00    -0.267 OA
HETATM   12  C   UNL     1       4.960  32.161  55.334  1.00  0.00     0.060 C 
HETATM   13  C   UNL     1       3.449  32.200  55.102  1.00  0.00     0.088 C 
HETATM   14  C   UNL     1       2.733  31.702  56.349  1.00  0.00     0.045 C 
HETATM   15  C   UNL     1       3.105  30.264  56.675  1.00  0.00     0.129 C 
HETATM   16  C   UNL     1       8.313  28.115  57.527  1.00  0.00     0.031 A 
HETATM   17  C   UNL     1       8.590  26.831  57.044  1.00  0.00     0.014 A 
HETATM   18  H   UNL     1       7.555  30.312  58.548  1.00  0.00     0.169 HD
ENDROOT
BRANCH  13  19
HETATM   19  N   UNL     1       3.061  31.433  53.916  1.00  0.00    -0.356 N 
HETATM   20  C   UNL     1       3.430  31.828  52.654  1.00  0.00     0.222 C 
HETATM   21  O   UNL     1       3.966  32.901  52.403  1.00  0.00    -0.273 OA
HETATM   22  H   UNL     1       2.855  30.449  54.068  1.00  0.00     0.162 HD
BRANCH  20  23
HETATM   23  C   UNL     1       3.006  30.874  51.545  1.00  0.00     0.081 C 
HETATM   24  C   UNL     1       3.104  29.410  52.003  1.00  0.00     0.041 C 
HETATM   25  C   UNL     1       4.537  28.905  52.136  1.00  0.00     0.233 C 
HETATM   26  N   UNL     1       5.292  29.201  50.884  1.00  0.00    -0.075 N 
HETATM   27  H   UNL     1       4.920  28.636  50.109  1.00  0.00     0.277 HD
HETATM   28  H   UNL     1       6.264  28.889  51.014  1.00  0.00     0.277 HD
HETATM   29  C   UNL     1       5.304  30.645  50.506  1.00  0.00     0.233 C 
HETATM   30  C   UNL     1       3.871  31.121  50.304  1.00  0.00     0.041 C 
ENDBRANCH  20  23
ENDBRANCH  13  19
BRANCH   1  31
HETATM   31  C   UNL     1       7.909  24.750  55.823  1.00  0.00     0.008 A 
HETATM   32  C   UNL     1       8.001  24.387  54.462  1.00  0.00     0.082 A 
HETATM   33  C   UNL     1       8.250  23.052  54.113  1.00  0.00     0.074 A 
HETATM   34  C   UNL     1       8.430  22.068  55.091  1.00  0.00     0.070 A 
HETATM   35  C   UNL     1       8.349  22.418  56.434  1.00  0.00     0.038 A 
HETATM   36  C   UNL     1       8.091  23.743  56.793  1.00  0.00     0.018 A 
BRANCH  32  37
HETATM   37  O   UNL     1       7.800  25.391  53.544  1.00  0.00    -0.355 OA
HETATM   38  C   UNL     1       7.957  25.052  52.170  1.00  0.00     0.210 C 
ENDBRANCH  32  37
BRANCH  34  39
HETATM   39  O   UNL     1       8.670  20.812  54.602  1.00  0.00    -0.356 OA
HETATM   40  C   UNL     1       8.451  20.610  53.211  1.00  0.00     0.210 C 
ENDBRANCH  34  39
ENDBRANCH   1  31
TORSDOF 5
ENDMDL
MODEL 4
REMARK VINA RESULT:      -8.9      4.230      9.094
REMARK  5 active torsions:
REMARK  status: ('A' for Active; 'I' for Inactive)
REMARK    1  A    between atoms: O_2  and  C_3 
REMARK    2  A    between atoms: C_5  and  O_6 
REMARK    3  A    between atoms: C_8  and  C_9 
REMARK    4  A    between atoms: C_21  and  N_22 
REMARK       I    between atoms: N_22  and  C_23 
REMARK    5  A    between atoms: C_23  and  C_24 
ROOT
HETATM    1  C   UNL     1       6.133  26.013  55.140  1.00  0.00    -0.022 A 
HETATM    2  C   UNL     1       5.676  26.961  54.212  1.00  0.00     0.031 A 
HETATM    3  C   UNL     1       4.864  28.049  54.594  1.00  0.00     0.059 A 
HETATM    4  C   UNL     1       4.502  28.201  55.944  1.00  0.00     0.050 A 
HETATM    5  N   UNL     1       3.687  29.223  56.469  1.00  0.00    -0.324 N 
HETATM    6  C   UNL     1       3.516  30.498  55.997  1.00  0.00     0.245 C 
HETATM    7  O   UNL     1       2.739  31.260  56.571  1.00  0.00    -0.271 OA
HETATM    8  C   UNL     1       4.390  30.920  54.814  1.00  0.00     0.181 C 
HETATM    9  N   UNL     1       3.940  30.166  53.647  1.00  0.00    -0.334 N 
HETATM   10  C   UNL     1       4.266  28.827  53.474  1.00  0.00     0.256 C 
HETATM   11  O   UNL     1       4.042  28.250  52.409  1.00  0.00    -0.267 OA
HETATM   12  C   UNL     1       4.451  32.443  54.599  1.00  0.00     0.060 C 
HETATM   13  C   UNL     1       3.948  32.900  53.229  1.00  0.00     0.088 C 
HETATM   14  C   UNL     1       2.646  32.183  52.903  1.00  0.00     0.045 C 
HETATM   15  C   UNL     1       2.835  30.676  52.837  1.00  0.00     0.129 C 
HETATM   16  C   UNL     1       4.939  27.244  56.871  1.00  0.00     0.031 A 
HETATM   17  C   UNL     1       5.750  26.174  56.476  1.00  0.00     0.014 A 
HETATM   18  H   UNL     1       3.252  29.074  57.373  1.00  0.00     0.169 HD
ENDROOT
BRANCH  13  19
HETATM   19  N   UNL     1       4.954  32.691  52.184  1.00  0.00    -0.356 N 
HETATM   20  C   UNL     1       5.035  33.519  51.091  1.00  0.00     0.222 C 
HETATM   21  O   UNL     1       4.207  34.382  50.824  1.00  0.00    -0.273 OA
HETATM   22  H   UNL     1       5.789  32.184  52.463  1.00  0.00     0.162 HD
BRANCH  20  23
HETATM   23  C   UNL     1       6.186  33.202  50.145  1.00  0.00     0.081 C 
HETATM   24  C   UNL     1       6.149  34.106  48.902  1.00  0.00     0.041 C 
HETATM   25  C   UNL     1       5.022  33.768  47.932  1.00  0.00     0.233 C 
HETATM   26  N   UNL     1       5.047  32.309  47.622  1.00  0.00    -0.075 N 
HETATM   27  H   UNL     1       5.891  32.081  47.080  1.00  0.00     0.277 HD
HETATM   28  H   UNL     1       4.253  32.100  47.001  1.00  0.00     0.277 HD
HETATM   29  C   UNL     1       4.954  31.428  48.823  1.00  0.00     0.233 C 
HETATM   30  C   UNL     1       6.126  31.721  49.751  1.00  0.00     0.041 C 
ENDBRANCH  20  23
ENDBRANCH  13  19
BRANCH   1  31
HETATM   31  C   UNL     1       6.924  24.844  54.704  1.00  0.00     0.008 A 
HETATM   32  C   UNL     1       8.042  24.364  55.420  1.00  0.00     0.082 A 
HETATM   33  C   UNL     1       8.742  23.245  54.947  1.00  0.00     0.074 A 
HETATM   34  C   UNL     1       8.343  22.578  53.784  1.00  0.00     0.070 A 
HETATM   35  C   UNL     1       7.239  23.039  53.078  1.00  0.00     0.038 A 
HETATM   36  C   UNL     1       6.539  24.160  53.534  1.00  0.00     0.018 A 
BRANCH  32  37
HETATM   37  O   UNL     1       8.399  25.068  56.546  1.00  0.00    -0.355 OA
HETATM   38  C   UNL     1       8.866  24.314  57.659  1.00  0.00     0.210 C 
ENDBRANCH  32  37
BRANCH  34  39
HETATM   39  O   UNL     1       9.118  21.501  53.448  1.00  0.00    -0.356 OA
HETATM   40  C   UNL     1       8.445  20.363  52.920  1.00  0.00     0.210 C 
ENDBRANCH  34  39
ENDBRANCH   1  31
TORSDOF 5
ENDMDL
MODEL 5
REMARK VINA RESULT:      -8.7      5.404     12.009
REMARK  5 active torsions:
REMARK  status: ('A' for Active; 'I' for Inactive)
REMARK    1  A    between atoms: O_2  and  C_3 
REMARK    2  A    between atoms: C_5  and  O_6 
REMARK    3  A    between atoms: C_8  and  C_9 
REMARK    4  A    between atoms: C_21  and  N_22 
REMARK       I    between atoms: N_22  and  C_23 
REMARK    5  A    between atoms: C_23  and  C_24 
ROOT
HETATM    1  C   UNL     1       8.260  30.953  59.698  1.00  0.00    -0.022 A 
HETATM    2  C   UNL     1       7.101  31.685  59.999  1.00  0.00     0.031 A 
HETATM    3  C   UNL     1       6.853  32.193  61.290  1.00  0.00     0.059 A 
HETATM    4  C   UNL     1       7.792  31.972  62.313  1.00  0.00     0.050 A 
HETATM    5  N   UNL     1       7.673  32.403  63.648  1.00  0.00    -0.324 N 
HETATM    6  C   UNL     1       6.999  33.494  64.131  1.00  0.00     0.245 C 
HETATM    7  O   UNL     1       6.978  33.710  65.342  1.00  0.00    -0.271 OA
HETATM    8  C   UNL     1       6.376  34.435  63.097  1.00  0.00     0.181 C 
HETATM    9  N   UNL     1       5.268  33.722  62.468  1.00  0.00    -0.334 N 
HETATM   10  C   UNL     1       5.484  32.735  61.513  1.00  0.00     0.256 C 
HETATM   11  O   UNL     1       4.552  32.271  60.857  1.00  0.00    -0.267 OA
HETATM   12  C   UNL     1       6.001  35.817  63.661  1.00  0.00     0.060 C 
HETATM   13  C   UNL     1       4.516  36.159  63.537  1.00  0.00     0.088 C 
HETATM   14  C   UNL     1       3.683  34.960  63.967  1.00  0.00     0.045 C 
HETATM   15  C   UNL     1       3.945  33.748  63.087  1.00  0.00     0.129 C 
HETATM   16  C   UNL     1       8.941  31.224  62.022  1.00  0.00     0.031 A 
HETATM   17  C   UNL     1       9.176  30.732  60.733  1.00  0.00     0.014 A 
HETATM   18  H   UNL     1       8.242  31.946  64.353  1.00  0.00     0.169 HD
ENDROOT
BRANCH  13  19
HETATM   19  N   UNL     1       4.171  36.596  62.181  1.00  0.00    -0.356 N 
HETATM   20  C   UNL     1       4.546  37.829  61.708  1.00  0.00     0.222 C 
HETATM   21  O   UNL     1       5.051  38.704  62.403  1.00  0.00    -0.273 OA
HETATM   22  H   UNL     1       3.995  35.857  61.505  1.00  0.00     0.162 HD
BRANCH  20  23
HETATM   23  C   UNL     1       4.170  38.087  60.255  1.00  0.00     0.081 C 
HETATM   24  C   UNL     1       5.033  39.205  59.647  1.00  0.00     0.041 C 
HETATM   25  C   UNL     1       4.691  40.595  60.170  1.00  0.00     0.233 C 
HETATM   26  N   UNL     1       3.222  40.830  60.051  1.00  0.00    -0.075 N 
HETATM   27  H   UNL     1       2.956  40.886  59.059  1.00  0.00     0.277 HD
HETATM   28  H   UNL     1       3.012  41.755  60.448  1.00  0.00     0.277 HD
HETATM   29  C   UNL     1       2.384  39.812  60.751  1.00  0.00     0.233 C 
HETATM   30  C   UNL     1       2.679  38.435  60.170  1.00  0.00     0.041 C 
ENDBRANCH  20  23
ENDBRANCH  13  19
BRANCH   1  31
HETATM   31  C   UNL     1       8.464  30.371  58.356  1.00  0.00     0.008 A 
HETATM   32  C   UNL     1       7.404  29.897  57.554  1.00  0.00     0.082 A 
HETATM   33  C   UNL     1       7.675  29.362  56.287  1.00  0.00     0.074 A 
HETATM   34  C   UNL     1       8.981  29.304  55.789  1.00  0.00     0.070 A 
HETATM   35  C   UNL     1      10.030  29.776  56.568  1.00  0.00     0.038 A 
HETATM   36  C   UNL     1       9.773  30.302  57.837  1.00  0.00     0.018 A 
BRANCH  32  37
HETATM   37  O   UNL     1       6.144  29.964  58.101  1.00  0.00    -0.355 OA
HETATM   38  C   UNL     1       5.049  29.674  57.239  1.00  0.00     0.210 C 
ENDBRANCH  32  37
BRANCH  34  39
HETATM   39  O   UNL     1       9.092  28.761  54.537  1.00  0.00    -0.356 OA
HETATM   40  C   UNL     1       7.953  28.075  54.030  1.00  0.00     0.210 C 
ENDBRANCH  34  39
ENDBRANCH   1  31
TORSDOF 5
ENDMDL
MODEL 6
REMARK VINA RESULT:      -8.5      4.627      8.676
REMARK  5 active torsions:
REMARK  status: ('A' for Active; 'I' for Inactive)
REMARK    1  A    between atoms: O_2  and  C_3 
REMARK    2  A    between atoms: C_5  and  O_6 
REMARK    3  A    between atoms: C_8  and  C_9 
REMARK    4  A    between atoms: C_21  and  N_22 
REMARK       I    between atoms: N_22  and  C_23 
REMARK    5  A    between atoms: C_23  and  C_24 
ROOT
HETATM    1  C   UNL     1       6.527  27.397  53.614  1.00  0.00    -0.022 A 
HETATM    2  C   UNL     1       5.950  28.325  52.733  1.00  0.00     0.031 A 
HETATM    3  C   UNL     1       5.572  27.973  51.422  1.00  0.00     0.059 A 
HETATM    4  C   UNL     1       5.767  26.655  50.975  1.00  0.00     0.050 A 
HETATM    5  N   UNL     1       5.454  26.164  49.692  1.00  0.00    -0.324 N 
HETATM    6  C   UNL     1       4.483  26.601  48.830  1.00  0.00     0.245 C 
HETATM    7  O   UNL     1       4.363  26.067  47.727  1.00  0.00    -0.271 OA
HETATM    8  C   UNL     1       3.539  27.689  49.346  1.00  0.00     0.181 C 
HETATM    9  N   UNL     1       4.318  28.917  49.479  1.00  0.00    -0.334 N 
HETATM   10  C   UNL     1       5.200  29.111  50.535  1.00  0.00     0.256 C 
HETATM   11  O   UNL     1       5.711  30.211  50.742  1.00  0.00    -0.267 OA
HETATM   12  C   UNL     1       2.253  27.841  48.515  1.00  0.00     0.060 C 
HETATM   13  C   UNL     1       2.065  29.231  47.906  1.00  0.00     0.088 C 
HETATM   14  C   UNL     1       3.377  29.693  47.286  1.00  0.00     0.045 C 
HETATM   15  C   UNL     1       4.482  29.798  48.325  1.00  0.00     0.129 C 
HETATM   16  C   UNL     1       6.361  25.730  51.845  1.00  0.00     0.031 A 
HETATM   17  C   UNL     1       6.725  26.093  53.146  1.00  0.00     0.014 A 
HETATM   18  H   UNL     1       5.900  25.305  49.384  1.00  0.00     0.169 HD
ENDROOT
BRANCH  13  19
HETATM   19  N   UNL     1       1.567  30.193  48.891  1.00  0.00    -0.356 N 
HETATM   20  C   UNL     1       0.453  30.959  48.647  1.00  0.00     0.222 C 
HETATM   21  O   UNL     1      -0.113  31.015  47.561  1.00  0.00    -0.273 OA
HETATM   22  H   UNL     1       1.820  30.014  49.859  1.00  0.00     0.162 HD
BRANCH  20  23
HETATM   23  C   UNL     1       0.033  31.849  49.809  1.00  0.00     0.081 C 
HETATM   24  C   UNL     1      -0.769  33.065  49.317  1.00  0.00     0.041 C 
HETATM   25  C   UNL     1       0.079  34.105  48.593  1.00  0.00     0.233 C 
HETATM   26  N   UNL     1       1.264  34.456  49.428  1.00  0.00    -0.075 N 
HETATM   27  H   UNL     1       0.960  34.957  50.273  1.00  0.00     0.277 HD
HETATM   28  H   UNL     1       1.841  35.126  48.901  1.00  0.00     0.277 HD
HETATM   29  C   UNL     1       2.116  33.289  49.801  1.00  0.00     0.233 C 
HETATM   30  C   UNL     1       1.278  32.289  50.588  1.00  0.00     0.041 C 
ENDBRANCH  20  23
ENDBRANCH  13  19
BRANCH   1  31
HETATM   31  C   UNL     1       6.979  27.807  54.959  1.00  0.00     0.008 A 
HETATM   32  C   UNL     1       6.356  27.365  56.146  1.00  0.00     0.082 A 
HETATM   33  C   UNL     1       6.845  27.793  57.389  1.00  0.00     0.074 A 
HETATM   34  C   UNL     1       7.956  28.638  57.480  1.00  0.00     0.070 A 
HETATM   35  C   UNL     1       8.580  29.071  56.316  1.00  0.00     0.038 A 
HETATM   36  C   UNL     1       8.095  28.660  55.071  1.00  0.00     0.018 A 
BRANCH  32  37
HETATM   37  O   UNL     1       5.259  26.549  55.997  1.00  0.00    -0.355 OA
HETATM   38  C   UNL     1       5.167  25.425  56.866  1.00  0.00     0.210 C 
ENDBRANCH  32  37
BRANCH  34  39
HETATM   39  O   UNL     1       8.321  28.967  58.756  1.00  0.00    -0.356 OA
HETATM   40  C   UNL     1       8.102  30.313  59.163  1.00  0.00     0.210 C 
ENDBRANCH  34  39
ENDBRANCH   1  31
TORSDOF 5
ENDMDL
MODEL 7
REMARK VINA RESULT:      -8.4      2.268      3.359
REMARK  5 active torsions:
REMARK  status: ('A' for Active; 'I' for Inactive)
REMARK    1  A    between atoms: O_2  and  C_3 
REMARK    2  A    between atoms: C_5  and  O_6 
REMARK    3  A    between atoms: C_8  and  C_9 
REMARK    4  A    between atoms: C_21  and  N_22 
REMARK       I    between atoms: N_22  and  C_23 
REMARK    5  A    between atoms: C_23  and  C_24 
ROOT
HETATM    1  C   UNL     1       5.673  32.222  58.198  1.00  0.00    -0.022 A 
HETATM    2  C   UNL     1       5.559  31.007  57.505  1.00  0.00     0.031 A 
HETATM    3  C   UNL     1       4.851  30.904  56.291  1.00  0.00     0.059 A 
HETATM    4  C   UNL     1       4.242  32.048  55.746  1.00  0.00     0.050 A 
HETATM    5  N   UNL     1       3.491  32.094  54.555  1.00  0.00    -0.324 N 
HETATM    6  C   UNL     1       3.606  31.294  53.448  1.00  0.00     0.245 C 
HETATM    7  O   UNL     1       2.844  31.459  52.496  1.00  0.00    -0.271 OA
HETATM    8  C   UNL     1       4.758  30.286  53.440  1.00  0.00     0.181 C 
HETATM    9  N   UNL     1       4.457  29.270  54.444  1.00  0.00    -0.334 N 
HETATM   10  C   UNL     1       4.616  29.517  55.803  1.00  0.00     0.256 C 
HETATM   11  O   UNL     1       4.538  28.607  56.628  1.00  0.00    -0.267 OA
HETATM   12  C   UNL     1       5.080  29.723  52.045  1.00  0.00     0.060 C 
HETATM   13  C   UNL     1       4.943  28.203  51.940  1.00  0.00     0.088 C 
HETATM   14  C   UNL     1       3.648  27.764  52.608  1.00  0.00     0.045 C 
HETATM   15  C   UNL     1       3.628  28.121  54.086  1.00  0.00     0.129 C 
HETATM   16  C   UNL     1       4.336  33.259  56.445  1.00  0.00     0.031 A 
HETATM   17  C   UNL     1       5.049  33.346  57.646  1.00  0.00     0.014 A 
HETATM   18  H   UNL     1       2.861  32.877  54.414  1.00  0.00     0.169 HD
ENDROOT
BRANCH  13  19
HETATM   19  N   UNL     1       6.103  27.513  52.510  1.00  0.00    -0.356 N 
HETATM   20  C   UNL     1       6.460  26.251  52.100  1.00  0.00     0.222 C 
HETATM   21  O   UNL     1       5.776  25.554  51.360  1.00  0.00    -0.273 OA
HETATM   22  H   UNL     1       6.824  28.106  52.911  1.00  0.00     0.162 HD
BRANCH  20  23
HETATM   23  C   UNL     1       7.734  25.717  52.742  1.00  0.00     0.081 C 
HETATM   24  C   UNL     1       7.950  24.234  52.398  1.00  0.00     0.041 C 
HETATM   25  C   UNL     1       6.984  23.294  53.109  1.00  0.00     0.233 C 
HETATM   26  N   UNL     1       6.985  23.585  54.573  1.00  0.00    -0.075 N 
HETATM   27  H   UNL     1       7.895  23.329  54.979  1.00  0.00     0.277 HD
HETATM   28  H   UNL     1       6.296  22.967  55.023  1.00  0.00     0.277 HD
HETATM   29  C   UNL     1       6.650  24.999  54.914  1.00  0.00     0.233 C 
HETATM   30  C   UNL     1       7.664  25.926  54.259  1.00  0.00     0.041 C 
ENDBRANCH  20  23
ENDBRANCH  13  19
BRANCH   1  31
HETATM   31  C   UNL     1       6.362  32.291  59.503  1.00  0.00     0.008 A 
HETATM   32  C   UNL     1       5.676  32.458  60.726  1.00  0.00     0.082 A 
HETATM   33  C   UNL     1       6.398  32.509  61.927  1.00  0.00     0.074 A 
HETATM   34  C   UNL     1       7.791  32.380  61.942  1.00  0.00     0.070 A 
HETATM   35  C   UNL     1       8.473  32.208  60.743  1.00  0.00     0.038 A 
HETATM   36  C   UNL     1       7.765  32.165  59.539  1.00  0.00     0.018 A 
BRANCH  32  37
HETATM   37  O   UNL     1       4.311  32.595  60.650  1.00  0.00    -0.355 OA
HETATM   38  C   UNL     1       3.645  33.090  61.807  1.00  0.00     0.210 C 
ENDBRANCH  32  37
BRANCH  34  39
HETATM   39  O   UNL     1       8.358  32.445  63.186  1.00  0.00    -0.356 OA
HETATM   40  C   UNL     1       7.575  33.029  64.221  1.00  0.00     0.210 C 
ENDBRANCH  34  39
ENDBRANCH   1  31
TORSDOF 5
ENDMDL
MODEL 8
REMARK VINA RESULT:      -8.4      5.470      9.919
REMARK  5 active torsions:
REMARK  status: ('A' for Active; 'I' for Inactive)
REMARK    1  A    between atoms: O_2  and  C_3 
REMARK    2  A    between atoms: C_5  and  O_6 
REMARK    3  A    between atoms: C_8  and  C_9 
REMARK    4  A    between atoms: C_21  and  N_22 
REMARK       I    between atoms: N_22  and  C_23 
REMARK    5  A    between atoms: C_23  and  C_24 
ROOT
HETATM    1  C   UNL     1       5.442  26.609  50.997  1.00  0.00    -0.022 A 
HETATM    2  C   UNL     1       5.556  27.992  50.790  1.00  0.00     0.031 A 
HETATM    3  C   UNL     1       4.943  28.637  49.697  1.00  0.00     0.059 A 
HETATM    4  C   UNL     1       4.186  27.882  48.784  1.00  0.00     0.050 A 
HETATM    5  N   UNL     1       3.533  28.383  47.642  1.00  0.00    -0.324 N 
HETATM    6  C   UNL     1       3.030  29.641  47.435  1.00  0.00     0.245 C 
HETATM    7  O   UNL     1       2.507  29.917  46.356  1.00  0.00    -0.271 OA
HETATM    8  C   UNL     1       3.080  30.608  48.619  1.00  0.00     0.181 C 
HETATM    9  N   UNL     1       4.482  30.942  48.853  1.00  0.00    -0.334 N 
HETATM   10  C   UNL     1       5.349  30.053  49.479  1.00  0.00     0.256 C 
HETATM   11  O   UNL     1       6.472  30.406  49.836  1.00  0.00    -0.267 OA
HETATM   12  C   UNL     1       2.156  31.829  48.463  1.00  0.00     0.060 C 
HETATM   13  C   UNL     1       2.887  33.172  48.496  1.00  0.00     0.088 C 
HETATM   14  C   UNL     1       4.126  33.096  47.617  1.00  0.00     0.045 C 
HETATM   15  C   UNL     1       5.100  32.037  48.108  1.00  0.00     0.129 C 
HETATM   16  C   UNL     1       4.087  26.497  48.976  1.00  0.00     0.031 A 
HETATM   17  C   UNL     1       4.696  25.873  50.070  1.00  0.00     0.014 A 
HETATM   18  H   UNL     1       3.278  27.729  46.908  1.00  0.00     0.169 HD
ENDROOT
BRANCH  13  19
HETATM   19  N   UNL     1       3.222  33.574  49.865  1.00  0.00    -0.356 N 
HETATM   20  C   UNL     1       2.331  34.268  50.647  1.00  0.00     0.222 C 
HETATM   21  O   UNL     1       1.274  34.730  50.234  1.00  0.00    -0.273 OA
HETATM   22  H   UNL     1       3.938  33.023  50.330  1.00  0.00     0.162 HD
BRANCH  20  23
HETATM   23  C   UNL     1       2.815  34.537  52.066  1.00  0.00     0.081 C 
HETATM   24  C   UNL     1       3.684  33.381  52.586  1.00  0.00     0.041 C 
HETATM   25  C   UNL     1       2.894  32.116  52.904  1.00  0.00     0.233 C 
HETATM   26  N   UNL     1       1.740  32.454  53.787  1.00  0.00    -0.075 N 
HETATM   27  H   UNL     1       2.081  32.749  54.711  1.00  0.00     0.277 HD
HETATM   28  H   UNL     1       1.200  31.593  53.952  1.00  0.00     0.277 HD
HETATM   29  C   UNL     1       0.823  33.488  53.224  1.00  0.00     0.233 C 
HETATM   30  C   UNL     1       1.606  34.771  52.979  1.00  0.00     0.041 C 
ENDBRANCH  20  23
ENDBRANCH  13  19
BRANCH   1  31
HETATM   31  C   UNL     1       6.150  25.946  52.111  1.00  0.00     0.008 A 
HETATM   32  C   UNL     1       5.714  26.020  53.451  1.00  0.00     0.082 A 
HETATM   33  C   UNL     1       6.436  25.360  54.455  1.00  0.00     0.074 A 
HETATM   34  C   UNL     1       7.578  24.609  54.154  1.00  0.00     0.070 A 
HETATM   35  C   UNL     1       8.009  24.524  52.835  1.00  0.00     0.038 A 
HETATM   36  C   UNL     1       7.303  25.187  51.827  1.00  0.00     0.018 A 
BRANCH  32  37
HETATM   37  O   UNL     1       4.597  26.785  53.692  1.00  0.00    -0.355 OA
HETATM   38  C   UNL     1       4.760  27.921  54.535  1.00  0.00     0.210 C 
ENDBRANCH  32  37
BRANCH  34  39
HETATM   39  O   UNL     1       8.175  24.017  55.233  1.00  0.00    -0.356 OA
HETATM   40  C   UNL     1       8.809  22.763  55.011  1.00  0.00     0.210 C 
ENDBRANCH  34  39
ENDBRANCH   1  31
TORSDOF 5
ENDMDL
MODEL 9
REMARK VINA RESULT:      -7.9      3.985     10.461
REMARK  5 active torsions:
REMARK  status: ('A' for Active; 'I' for Inactive)
REMARK    1  A    between atoms: O_2  and  C_3 
REMARK    2  A    between atoms: C_5  and  O_6 
REMARK    3  A    between atoms: C_8  and  C_9 
REMARK    4  A    between atoms: C_21  and  N_22 
REMARK       I    between atoms: N_22  and  C_23 
REMARK    5  A    between atoms: C_23  and  C_24 
ROOT
HETATM    1  C   UNL     1       5.992  28.297  53.253  1.00  0.00    -0.022 A 
HETATM    2  C   UNL     1       5.087  28.961  54.094  1.00  0.00     0.031 A 
HETATM    3  C   UNL     1       5.441  29.377  55.393  1.00  0.00     0.059 A 
HETATM    4  C   UNL     1       6.742  29.131  55.867  1.00  0.00     0.050 A 
HETATM    5  N   UNL     1       7.233  29.473  57.142  1.00  0.00    -0.324 N 
HETATM    6  C   UNL     1       6.838  30.503  57.956  1.00  0.00     0.245 C 
HETATM    7  O   UNL     1       7.363  30.642  59.060  1.00  0.00    -0.271 OA
HETATM    8  C   UNL     1       5.810  31.481  57.383  1.00  0.00     0.181 C 
HETATM    9  N   UNL     1       4.543  30.764  57.265  1.00  0.00    -0.334 N 
HETATM   10  C   UNL     1       4.314  29.849  56.245  1.00  0.00     0.256 C 
HETATM   11  O   UNL     1       3.191  29.388  56.044  1.00  0.00    -0.267 OA
HETATM   12  C   UNL     1       5.717  32.808  58.155  1.00  0.00     0.060 C 
HETATM   13  C   UNL     1       4.332  33.097  58.735  1.00  0.00     0.088 C 
HETATM   14  C   UNL     1       3.791  31.841  59.403  1.00  0.00     0.045 C 
HETATM   15  C   UNL     1       3.639  30.698  58.412  1.00  0.00     0.129 C 
HETATM   16  C   UNL     1       7.643  28.450  55.038  1.00  0.00     0.031 A 
HETATM   17  C   UNL     1       7.278  28.049  53.748  1.00  0.00     0.014 A 
HETATM   18  H   UNL     1       8.061  28.996  57.482  1.00  0.00     0.169 HD
ENDROOT
BRANCH  13  19
HETATM   19  N   UNL     1       3.411  33.603  57.714  1.00  0.00    -0.356 N 
HETATM   20  C   UNL     1       2.783  34.816  57.853  1.00  0.00     0.222 C 
HETATM   21  O   UNL     1       2.816  35.491  58.876  1.00  0.00    -0.273 OA
HETATM   22  H   UNL     1       3.538  33.235  56.775  1.00  0.00     0.162 HD
BRANCH  20  23
HETATM   23  C   UNL     1       1.920  35.219  56.664  1.00  0.00     0.081 C 
HETATM   24  C   UNL     1       2.423  34.568  55.366  1.00  0.00     0.041 C 
HETATM   25  C   UNL     1       3.729  35.161  54.848  1.00  0.00     0.233 C 
HETATM   26  N   UNL     1       3.611  36.646  54.776  1.00  0.00    -0.075 N 
HETATM   27  H   UNL     1       2.935  36.909  54.047  1.00  0.00     0.277 HD
HETATM   28  H   UNL     1       4.517  37.025  54.466  1.00  0.00     0.277 HD
HETATM   29  C   UNL     1       3.246  37.293  56.071  1.00  0.00     0.233 C 
HETATM   30  C   UNL     1       1.905  36.748  56.543  1.00  0.00     0.041 C 
ENDBRANCH  20  23
ENDBRANCH  13  19
BRANCH   1  31
HETATM   31  C   UNL     1       5.576  27.809  51.922  1.00  0.00     0.008 A 
HETATM   32  C   UNL     1       5.570  28.627  50.772  1.00  0.00     0.082 A 
HETATM   33  C   UNL     1       5.166  28.091  49.540  1.00  0.00     0.074 A 
HETATM   34  C   UNL     1       4.785  26.750  49.422  1.00  0.00     0.070 A 
HETATM   35  C   UNL     1       4.796  25.937  50.548  1.00  0.00     0.038 A 
HETATM   36  C   UNL     1       5.186  26.462  51.783  1.00  0.00     0.018 A 
BRANCH  32  37
HETATM   37  O   UNL     1       5.939  29.939  50.949  1.00  0.00    -0.355 OA
HETATM   38  C   UNL     1       5.489  30.875  49.975  1.00  0.00     0.210 C 
ENDBRANCH  32  37
BRANCH  34  39
HETATM   39  O   UNL     1       4.421  26.368  48.159  1.00  0.00    -0.356 OA
HETATM   40  C   UNL     1       3.312  25.484  48.048  1.00  0.00     0.210 C 
ENDBRANCH  34  39
ENDBRANCH   1  31
TORSDOF 5
ENDMDL
MODEL 10
REMARK VINA RESULT:      -7.7      4.436      7.986
REMARK  5 active torsions:
REMARK  status: ('A' for Active; 'I' for Inactive)
REMARK    1  A    between atoms: O_2  and  C_3 
REMARK    2  A    between atoms: C_5  and  O_6 
REMARK    3  A    between atoms: C_8  and  C_9 
REMARK    4  A    between atoms: C_21  and  N_22 
REMARK       I    between atoms: N_22  and  C_23 
REMARK    5  A    between atoms: C_23  and  C_24 
ROOT
HETATM    1  C   UNL     1       5.498  28.265  54.233  1.00  0.00    -0.022 A 
HETATM    2  C   UNL     1       5.405  28.938  53.005  1.00  0.00     0.031 A 
HETATM    3  C   UNL     1       5.125  28.260  51.802  1.00  0.00     0.059 A 
HETATM    4  C   UNL     1       4.925  26.868  51.822  1.00  0.00     0.050 A 
HETATM    5  N   UNL     1       4.655  26.058  50.702  1.00  0.00    -0.324 N 
HETATM    6  C   UNL     1       4.026  26.405  49.535  1.00  0.00     0.245 C 
HETATM    7  O   UNL     1       3.895  25.569  48.642  1.00  0.00    -0.271 OA
HETATM    8  C   UNL     1       3.442  27.817  49.459  1.00  0.00     0.181 C 
HETATM    9  N   UNL     1       4.562  28.753  49.419  1.00  0.00    -0.334 N 
HETATM   10  C   UNL     1       5.294  29.064  50.559  1.00  0.00     0.256 C 
HETATM   11  O   UNL     1       6.112  29.983  50.559  1.00  0.00    -0.267 OA
HETATM   12  C   UNL     1       2.419  28.006  48.324  1.00  0.00     0.060 C 
HETATM   13  C   UNL     1       2.804  29.084  47.310  1.00  0.00     0.088 C 
HETATM   14  C   UNL     1       4.270  28.924  46.933  1.00  0.00     0.045 C 
HETATM   15  C   UNL     1       5.182  29.087  48.139  1.00  0.00     0.129 C 
HETATM   16  C   UNL     1       5.038  26.189  53.043  1.00  0.00     0.031 A 
HETATM   17  C   UNL     1       5.309  26.878  54.230  1.00  0.00     0.014 A 
HETATM   18  H   UNL     1       4.823  25.060  50.779  1.00  0.00     0.169 HD
ENDROOT
BRANCH  13  19
HETATM   19  N   UNL     1       2.523  30.430  47.816  1.00  0.00    -0.356 N 
HETATM   20  C   UNL     1       1.254  30.956  47.791  1.00  0.00     0.222 C 
HETATM   21  O   UNL     1       0.306  30.425  47.223  1.00  0.00    -0.273 OA
HETATM   22  H   UNL     1       3.178  30.796  48.501  1.00  0.00     0.162 HD
BRANCH  20  23
HETATM   23  C   UNL     1       1.130  32.335  48.424  1.00  0.00     0.081 C 
HETATM   24  C   UNL     1       2.219  32.559  49.486  1.00  0.00     0.041 C 
HETATM   25  C   UNL     1       2.004  31.755  50.763  1.00  0.00     0.233 C 
HETATM   26  N   UNL     1       0.615  31.970  51.264  1.00  0.00    -0.075 N 
HETATM   27  H   UNL     1       0.504  32.942  51.582  1.00  0.00     0.277 HD
HETATM   28  H   UNL     1       0.481  31.386  52.100  1.00  0.00     0.277 HD
HETATM   29  C   UNL     1      -0.450  31.630  50.274  1.00  0.00     0.233 C 
HETATM   30  C   UNL     1      -0.270  32.491  49.030  1.00  0.00     0.041 C 
ENDBRANCH  20  23
ENDBRANCH  13  19
BRANCH   1  31
HETATM   31  C   UNL     1       5.861  28.986  55.470  1.00  0.00     0.008 A 
HETATM   32  C   UNL     1       7.169  28.991  56.001  1.00  0.00     0.082 A 
HETATM   33  C   UNL     1       7.439  29.704  57.178  1.00  0.00     0.074 A 
HETATM   34  C   UNL     1       6.438  30.431  57.832  1.00  0.00     0.070 A 
HETATM   35  C   UNL     1       5.149  30.438  57.311  1.00  0.00     0.038 A 
HETATM   36  C   UNL     1       4.866  29.723  56.144  1.00  0.00     0.018 A 
BRANCH  32  37
HETATM   37  O   UNL     1       8.108  28.248  55.327  1.00  0.00    -0.355 OA
HETATM   38  C   UNL     1       9.220  28.950  54.781  1.00  0.00     0.210 C 
ENDBRANCH  32  37
BRANCH  34  39
HETATM   39  O   UNL     1       6.849  31.080  58.964  1.00  0.00    -0.356 OA
HETATM   40  C   UNL     1       6.051  32.171  59.407  1.00  0.00     0.210 C 
ENDBRANCH  34  39
ENDBRANCH   1  31
TORSDOF 5
ENDMDL
