MODEL 1
REMARK VINA RESULT:      -9.0      0.000      0.000
REMARK  5 active torsions:
REMARK  status: ('A' for Active; 'I' for Inactive)
REMARK    1  A    between atoms: C_6  and  N_7 
REMARK       I    between atoms: N_7  and  C_8 
REMARK    2  A    between atoms: C_8  and  C_9 
REMARK    3  A    between atoms: C_11  and  O_12 
REMARK    4  A    between atoms: C_15  and  O_16 
REMARK    5  A    between atoms: C_20  and  C_21 
ROOT
HETATM    1  C   UNL     1       7.669  21.100  54.621  1.00  0.00     0.073 C 
HETATM    2  C   UNL     1       7.887  22.272  55.505  1.00  0.00     0.065 A 
HETATM    3  N   UNL     1       8.412  22.101  56.725  1.00  0.00    -0.177 NA
HETATM    4  N   UNL     1       8.430  23.340  57.247  1.00  0.00    -0.262 N 
HETATM    5  H   UNL     1       8.772  23.486  58.194  1.00  0.00     0.191 HD
HETATM    6  C   UNL     1       7.969  24.306  56.390  1.00  0.00     0.137 A 
HETATM    7  C   UNL     1       7.588  23.638  55.244  1.00  0.00     0.046 A 
ENDROOT
BRANCH   6   8
HETATM    8  N   UNL     1       7.931  25.654  56.698  1.00  0.00    -0.307 N 
HETATM    9  C   UNL     1       6.778  26.270  57.145  1.00  0.00     0.257 C 
HETATM   10  O   UNL     1       5.693  25.724  57.317  1.00  0.00    -0.267 OA
HETATM   11  H   UNL     1       8.761  26.204  56.508  1.00  0.00     0.170 HD
BRANCH   9  12
HETATM   12  C   UNL     1       6.920  27.724  57.369  1.00  0.00     0.037 A 
HETATM   13  C   UNL     1       8.191  28.239  57.626  1.00  0.00     0.054 A 
HETATM   14  C   UNL     1       8.346  29.594  57.913  1.00  0.00     0.071 A 
HETATM   15  C   UNL     1       7.226  30.428  57.896  1.00  0.00     0.073 A 
HETATM   16  C   UNL     1       5.953  29.919  57.602  1.00  0.00     0.071 A 
HETATM   17  C   UNL     1       5.795  28.559  57.349  1.00  0.00     0.054 A 
BRANCH  14  18
HETATM   18  O   UNL     1       9.628  29.976  58.194  1.00  0.00    -0.356 OA
HETATM   19  C   UNL     1      10.588  29.812  57.157  1.00  0.00     0.210 C 
ENDBRANCH  14  18
BRANCH  16  20
HETATM   20  O   UNL     1       4.952  30.852  57.610  1.00  0.00    -0.356 OA
HETATM   21  C   UNL     1       3.647  30.404  57.262  1.00  0.00     0.210 C 
ENDBRANCH  16  20
ENDBRANCH   9  12
ENDBRANCH   6   8
BRANCH   7  22
HETATM   22  C   UNL     1       7.002  24.268  54.078  1.00  0.00    -0.020 A 
HETATM   23  C   UNL     1       5.637  24.577  54.054  1.00  0.00     0.014 A 
HETATM   24  C   UNL     1       5.073  25.181  52.927  1.00  0.00     0.020 A 
HETATM   25  C   UNL     1       5.873  25.478  51.826  1.00  0.00     0.011 A 
HETATM   26 BR   UNL     1       5.108  26.291  50.301  1.00  0.00    -0.051 Br
HETATM   27  C   UNL     1       7.235  25.181  51.840  1.00  0.00     0.020 A 
HETATM   28  C   UNL     1       7.799  24.579  52.967  1.00  0.00     0.014 A 
ENDBRANCH   7  22
TORSDOF 5
ENDMDL
MODEL 2
REMARK VINA RESULT:      -9.0      0.353      2.675
REMARK  5 active torsions:
REMARK  status: ('A' for Active; 'I' for Inactive)
REMARK    1  A    between atoms: C_6  and  N_7 
REMARK       I    between atoms: N_7  and  C_8 
REMARK    2  A    between atoms: C_8  and  C_9 
REMARK    3  A    between atoms: C_11  and  O_12 
REMARK    4  A    between atoms: C_15  and  O_16 
REMARK    5  A    between atoms: C_20  and  C_21 
ROOT
HETATM    1  C   UNL     1       7.688  21.113  54.498  1.00  0.00     0.073 C 
HETATM    2  C   UNL     1       7.866  22.264  55.417  1.00  0.00     0.065 A 
HETATM    3  N   UNL     1       8.373  22.071  56.641  1.00  0.00    -0.177 NA
HETATM    4  N   UNL     1       8.356  23.296  57.197  1.00  0.00    -0.262 N 
HETATM    5  H   UNL     1       8.679  23.423  58.152  1.00  0.00     0.191 HD
HETATM    6  C   UNL     1       7.890  24.275  56.358  1.00  0.00     0.137 A 
HETATM    7  C   UNL     1       7.543  23.631  55.187  1.00  0.00     0.046 A 
ENDROOT
BRANCH   6   8
HETATM    8  N   UNL     1       7.818  25.613  56.700  1.00  0.00    -0.307 N 
HETATM    9  C   UNL     1       6.658  26.181  57.190  1.00  0.00     0.257 C 
HETATM   10  O   UNL     1       5.595  25.599  57.372  1.00  0.00    -0.267 OA
HETATM   11  H   UNL     1       8.626  26.193  56.505  1.00  0.00     0.170 HD
BRANCH   9  12
HETATM   12  C   UNL     1       6.761  27.634  57.447  1.00  0.00     0.037 A 
HETATM   13  C   UNL     1       5.639  28.433  57.225  1.00  0.00     0.054 A 
HETATM   14  C   UNL     1       5.728  29.814  57.388  1.00  0.00     0.071 A 
HETATM   15  C   UNL     1       6.932  30.376  57.816  1.00  0.00     0.073 A 
HETATM   16  C   UNL     1       8.050  29.570  58.075  1.00  0.00     0.071 A 
HETATM   17  C   UNL     1       7.970  28.194  57.879  1.00  0.00     0.054 A 
BRANCH  14  18
HETATM   18  O   UNL     1       4.579  30.498  57.098  1.00  0.00    -0.356 OA
HETATM   19  C   UNL     1       3.723  30.807  58.191  1.00  0.00     0.210 C 
ENDBRANCH  14  18
BRANCH  16  20
HETATM   20  O   UNL     1       9.158  30.255  58.499  1.00  0.00    -0.356 OA
HETATM   21  C   UNL     1      10.239  30.366  57.581  1.00  0.00     0.210 C 
ENDBRANCH  16  20
ENDBRANCH   9  12
ENDBRANCH   6   8
BRANCH   7  22
HETATM   22  C   UNL     1       6.964  24.280  54.028  1.00  0.00    -0.020 A 
HETATM   23  C   UNL     1       7.764  24.594  52.923  1.00  0.00     0.014 A 
HETATM   24  C   UNL     1       7.205  25.224  51.807  1.00  0.00     0.020 A 
HETATM   25  C   UNL     1       5.847  25.537  51.796  1.00  0.00     0.011 A 
HETATM   26 BR   UNL     1       5.093  26.393  50.289  1.00  0.00    -0.051 Br
HETATM   27  C   UNL     1       5.040  25.225  52.888  1.00  0.00     0.020 A 
HETATM   28  C   UNL     1       5.598  24.593  54.002  1.00  0.00     0.014 A 
ENDBRANCH   7  22
TORSDOF 5
ENDMDL
MODEL 3
REMARK VINA RESULT:      -8.4      3.033      4.429
REMARK  5 active torsions:
REMARK  status: ('A' for Active; 'I' for Inactive)
REMARK    1  A    between atoms: C_6  and  N_7 
REMARK       I    between atoms: N_7  and  C_8 
REMARK    2  A    between atoms: C_8  and  C_9 
REMARK    3  A    between atoms: C_11  and  O_12 
REMARK    4  A    between atoms: C_15  and  O_16 
REMARK    5  A    between atoms: C_20  and  C_21 
ROOT
HETATM    1  C   UNL     1       4.924  26.137  50.097  1.00  0.00     0.073 C 
HETATM    2  C   UNL     1       5.346  27.154  51.093  1.00  0.00     0.065 A 
HETATM    3  N   UNL     1       5.090  28.450  50.875  1.00  0.00    -0.177 NA
HETATM    4  N   UNL     1       5.634  29.071  51.937  1.00  0.00    -0.262 N 
HETATM    5  H   UNL     1       5.593  30.084  52.007  1.00  0.00     0.191 HD
HETATM    6  C   UNL     1       6.198  28.214  52.847  1.00  0.00     0.137 A 
HETATM    7  C   UNL     1       6.042  26.949  52.317  1.00  0.00     0.046 A 
ENDROOT
BRANCH   6   8
HETATM    8  N   UNL     1       6.781  28.624  54.032  1.00  0.00    -0.307 N 
HETATM    9  C   UNL     1       6.037  29.158  55.067  1.00  0.00     0.257 C 
HETATM   10  O   UNL     1       4.823  29.330  55.064  1.00  0.00    -0.267 OA
HETATM   11  H   UNL     1       7.792  28.597  54.094  1.00  0.00     0.170 HD
BRANCH   9  12
HETATM   12  C   UNL     1       6.843  29.588  56.229  1.00  0.00     0.037 A 
HETATM   13  C   UNL     1       8.176  29.180  56.305  1.00  0.00     0.054 A 
HETATM   14  C   UNL     1       8.939  29.507  57.424  1.00  0.00     0.071 A 
HETATM   15  C   UNL     1       8.369  30.280  58.438  1.00  0.00     0.073 A 
HETATM   16  C   UNL     1       7.041  30.722  58.346  1.00  0.00     0.071 A 
HETATM   17  C   UNL     1       6.269  30.366  57.243  1.00  0.00     0.054 A 
BRANCH  14  18
HETATM   18  O   UNL     1      10.215  29.015  57.410  1.00  0.00    -0.356 OA
HETATM   19  C   UNL     1      11.254  29.934  57.094  1.00  0.00     0.210 C 
ENDBRANCH  14  18
BRANCH  16  20
HETATM   20  O   UNL     1       6.620  31.480  59.405  1.00  0.00    -0.356 OA
HETATM   21  C   UNL     1       7.627  32.075  60.216  1.00  0.00     0.210 C 
ENDBRANCH  16  20
ENDBRANCH   9  12
ENDBRANCH   6   8
BRANCH   7  22
HETATM   22  C   UNL     1       6.529  25.731  52.932  1.00  0.00    -0.020 A 
HETATM   23  C   UNL     1       7.500  24.955  52.288  1.00  0.00     0.014 A 
HETATM   24  C   UNL     1       7.965  23.778  52.881  1.00  0.00     0.020 A 
HETATM   25  C   UNL     1       7.462  23.379  54.118  1.00  0.00     0.011 A 
HETATM   26 BR   UNL     1       8.089  21.784  54.916  1.00  0.00    -0.051 Br
HETATM   27  C   UNL     1       6.500  24.146  54.771  1.00  0.00     0.020 A 
HETATM   28  C   UNL     1       6.036  25.323  54.180  1.00  0.00     0.014 A 
ENDBRANCH   7  22
TORSDOF 5
ENDMDL
MODEL 4
REMARK VINA RESULT:      -8.4      3.002      4.797
REMARK  5 active torsions:
REMARK  status: ('A' for Active; 'I' for Inactive)
REMARK    1  A    between atoms: C_6  and  N_7 
REMARK       I    between atoms: N_7  and  C_8 
REMARK    2  A    between atoms: C_8  and  C_9 
REMARK    3  A    between atoms: C_11  and  O_12 
REMARK    4  A    between atoms: C_15  and  O_16 
REMARK    5  A    between atoms: C_20  and  C_21 
ROOT
HETATM    1  C   UNL     1       4.877  26.127  50.056  1.00  0.00     0.073 C 
HETATM    2  C   UNL     1       5.290  27.135  51.063  1.00  0.00     0.065 A 
HETATM    3  N   UNL     1       4.983  28.426  50.883  1.00  0.00    -0.177 NA
HETATM    4  N   UNL     1       5.534  29.042  51.945  1.00  0.00    -0.262 N 
HETATM    5  H   UNL     1       5.459  30.051  52.039  1.00  0.00     0.191 HD
HETATM    6  C   UNL     1       6.153  28.186  52.819  1.00  0.00     0.137 A 
HETATM    7  C   UNL     1       6.027  26.929  52.263  1.00  0.00     0.046 A 
ENDROOT
BRANCH   6   8
HETATM    8  N   UNL     1       6.754  28.590  53.997  1.00  0.00    -0.307 N 
HETATM    9  C   UNL     1       6.017  29.013  55.086  1.00  0.00     0.257 C 
HETATM   10  O   UNL     1       4.794  29.082  55.142  1.00  0.00    -0.267 OA
HETATM   11  H   UNL     1       7.766  28.644  54.015  1.00  0.00     0.170 HD
BRANCH   9  12
HETATM   12  C   UNL     1       6.838  29.455  56.234  1.00  0.00     0.037 A 
HETATM   13  C   UNL     1       6.244  30.257  57.210  1.00  0.00     0.054 A 
HETATM   14  C   UNL     1       7.012  30.750  58.263  1.00  0.00     0.071 A 
HETATM   15  C   UNL     1       8.360  30.397  58.350  1.00  0.00     0.073 A 
HETATM   16  C   UNL     1       8.949  29.562  57.390  1.00  0.00     0.071 A 
HETATM   17  C   UNL     1       8.189  29.097  56.319  1.00  0.00     0.054 A 
BRANCH  14  18
HETATM   18  O   UNL     1       6.335  31.561  59.132  1.00  0.00    -0.356 OA
HETATM   19  C   UNL     1       7.058  32.036  60.262  1.00  0.00     0.210 C 
ENDBRANCH  14  18
BRANCH  16  20
HETATM   20  O   UNL     1      10.273  29.291  57.608  1.00  0.00    -0.356 OA
HETATM   21  C   UNL     1      11.199  30.337  57.343  1.00  0.00     0.210 C 
ENDBRANCH  16  20
ENDBRANCH   9  12
ENDBRANCH   6   8
BRANCH   7  22
HETATM   22  C   UNL     1       6.573  25.715  52.836  1.00  0.00    -0.020 A 
HETATM   23  C   UNL     1       6.102  25.242  54.066  1.00  0.00     0.014 A 
HETATM   24  C   UNL     1       6.633  24.073  54.620  1.00  0.00     0.020 A 
HETATM   25  C   UNL     1       7.632  23.377  53.942  1.00  0.00     0.011 A 
HETATM   26 BR   UNL     1       8.352  21.799  54.693  1.00  0.00    -0.051 Br
HETATM   27  C   UNL     1       8.105  23.835  52.714  1.00  0.00     0.020 A 
HETATM   28  C   UNL     1       7.573  25.002  52.160  1.00  0.00     0.014 A 
ENDBRANCH   7  22
TORSDOF 5
ENDMDL
MODEL 5
REMARK VINA RESULT:      -8.3      4.710      7.549
REMARK  5 active torsions:
REMARK  status: ('A' for Active; 'I' for Inactive)
REMARK    1  A    between atoms: C_6  and  N_7 
REMARK       I    between atoms: N_7  and  C_8 
REMARK    2  A    between atoms: C_8  and  C_9 
REMARK    3  A    between atoms: C_11  and  O_12 
REMARK    4  A    between atoms: C_15  and  O_16 
REMARK    5  A    between atoms: C_20  and  C_21 
ROOT
HETATM    1  C   UNL     1       7.980  27.178  56.730  1.00  0.00     0.073 C 
HETATM    2  C   UNL     1       7.271  27.595  55.495  1.00  0.00     0.065 A 
HETATM    3  N   UNL     1       6.822  28.852  55.373  1.00  0.00    -0.177 NA
HETATM    4  N   UNL     1       6.212  28.863  54.174  1.00  0.00    -0.262 N 
HETATM    5  H   UNL     1       5.761  29.712  53.844  1.00  0.00     0.191 HD
HETATM    6  C   UNL     1       6.286  27.667  53.506  1.00  0.00     0.137 A 
HETATM    7  C   UNL     1       6.958  26.808  54.351  1.00  0.00     0.046 A 
ENDROOT
BRANCH   6   8
HETATM    8  N   UNL     1       5.763  27.457  52.243  1.00  0.00    -0.307 N 
HETATM    9  C   UNL     1       5.680  28.471  51.309  1.00  0.00     0.257 C 
HETATM   10  O   UNL     1       6.040  29.632  51.475  1.00  0.00    -0.267 OA
HETATM   11  H   UNL     1       5.365  26.547  52.044  1.00  0.00     0.170 HD
BRANCH   9  12
HETATM   12  C   UNL     1       5.044  28.067  50.037  1.00  0.00     0.037 A 
HETATM   13  C   UNL     1       4.911  29.018  49.024  1.00  0.00     0.054 A 
HETATM   14  C   UNL     1       4.250  28.686  47.843  1.00  0.00     0.071 A 
HETATM   15  C   UNL     1       3.766  27.388  47.672  1.00  0.00     0.073 A 
HETATM   16  C   UNL     1       3.932  26.420  48.674  1.00  0.00     0.071 A 
HETATM   17  C   UNL     1       4.562  26.762  49.867  1.00  0.00     0.054 A 
BRANCH  14  18
HETATM   18  O   UNL     1       4.139  29.710  46.943  1.00  0.00    -0.356 OA
HETATM   19  C   UNL     1       4.662  30.972  47.340  1.00  0.00     0.210 C 
ENDBRANCH  14  18
BRANCH  16  20
HETATM   20  O   UNL     1       3.419  25.189  48.365  1.00  0.00    -0.356 OA
HETATM   21  C   UNL     1       2.710  25.074  47.136  1.00  0.00     0.210 C 
ENDBRANCH  16  20
ENDBRANCH   9  12
ENDBRANCH   6   8
BRANCH   7  22
HETATM   22  C   UNL     1       7.231  25.414  54.065  1.00  0.00    -0.020 A 
HETATM   23  C   UNL     1       6.913  24.425  55.003  1.00  0.00     0.014 A 
HETATM   24  C   UNL     1       7.180  23.081  54.726  1.00  0.00     0.020 A 
HETATM   25  C   UNL     1       7.763  22.727  53.511  1.00  0.00     0.011 A 
HETATM   26 BR   UNL     1       8.127  20.909  53.140  1.00  0.00    -0.051 Br
HETATM   27  C   UNL     1       8.079  23.701  52.567  1.00  0.00     0.020 A 
HETATM   28  C   UNL     1       7.810  25.044  52.842  1.00  0.00     0.014 A 
ENDBRANCH   7  22
TORSDOF 5
ENDMDL
MODEL 6
REMARK VINA RESULT:      -8.0      4.347      6.962
REMARK  5 active torsions:
REMARK  status: ('A' for Active; 'I' for Inactive)
REMARK    1  A    between atoms: C_6  and  N_7 
REMARK       I    between atoms: N_7  and  C_8 
REMARK    2  A    between atoms: C_8  and  C_9 
REMARK    3  A    between atoms: C_11  and  O_12 
REMARK    4  A    between atoms: C_15  and  O_16 
REMARK    5  A    between atoms: C_20  and  C_21 
ROOT
HETATM    1  C   UNL     1       8.385  23.279  56.005  1.00  0.00     0.073 C 
HETATM    2  C   UNL     1       8.072  23.695  54.615  1.00  0.00     0.065 A 
HETATM    3  N   UNL     1       8.437  22.920  53.586  1.00  0.00    -0.177 NA
HETATM    4  N   UNL     1       8.036  23.609  52.503  1.00  0.00    -0.262 N 
HETATM    5  H   UNL     1       8.215  23.239  51.573  1.00  0.00     0.191 HD
HETATM    6  C   UNL     1       7.392  24.782  52.802  1.00  0.00     0.137 A 
HETATM    7  C   UNL     1       7.413  24.879  54.179  1.00  0.00     0.046 A 
ENDROOT
BRANCH   6   8
HETATM    8  N   UNL     1       6.860  25.633  51.851  1.00  0.00    -0.307 N 
HETATM    9  C   UNL     1       5.515  25.625  51.534  1.00  0.00     0.257 C 
HETATM   10  O   UNL     1       4.664  24.895  52.031  1.00  0.00    -0.267 OA
HETATM   11  H   UNL     1       7.503  26.216  51.328  1.00  0.00     0.170 HD
BRANCH   9  12
HETATM   12  C   UNL     1       5.145  26.568  50.456  1.00  0.00     0.037 A 
HETATM   13  C   UNL     1       4.636  26.052  49.264  1.00  0.00     0.054 A 
HETATM   14  C   UNL     1       4.348  26.910  48.204  1.00  0.00     0.071 A 
HETATM   15  C   UNL     1       4.534  28.284  48.367  1.00  0.00     0.073 A 
HETATM   16  C   UNL     1       5.010  28.807  49.578  1.00  0.00     0.071 A 
HETATM   17  C   UNL     1       5.330  27.946  50.624  1.00  0.00     0.054 A 
BRANCH  14  18
HETATM   18  O   UNL     1       3.899  26.288  47.071  1.00  0.00    -0.356 OA
HETATM   19  C   UNL     1       2.874  25.316  47.236  1.00  0.00     0.210 C 
ENDBRANCH  14  18
BRANCH  16  20
HETATM   20  O   UNL     1       5.131  30.171  49.599  1.00  0.00    -0.356 OA
HETATM   21  C   UNL     1       4.927  30.857  48.369  1.00  0.00     0.210 C 
ENDBRANCH  16  20
ENDBRANCH   9  12
ENDBRANCH   6   8
BRANCH   7  22
HETATM   22  C   UNL     1       6.873  25.990  54.936  1.00  0.00    -0.020 A 
HETATM   23  C   UNL     1       5.676  25.843  55.648  1.00  0.00     0.014 A 
HETATM   24  C   UNL     1       5.155  26.917  56.375  1.00  0.00     0.020 A 
HETATM   25  C   UNL     1       5.829  28.136  56.391  1.00  0.00     0.011 A 
HETATM   26 BR   UNL     1       5.120  29.589  57.370  1.00  0.00    -0.051 Br
HETATM   27  C   UNL     1       7.024  28.293  55.691  1.00  0.00     0.020 A 
HETATM   28  C   UNL     1       7.546  27.219  54.966  1.00  0.00     0.014 A 
ENDBRANCH   7  22
TORSDOF 5
ENDMDL
MODEL 7
REMARK VINA RESULT:      -7.8      4.368      6.845
REMARK  5 active torsions:
REMARK  status: ('A' for Active; 'I' for Inactive)
REMARK    1  A    between atoms: C_6  and  N_7 
REMARK       I    between atoms: N_7  and  C_8 
REMARK    2  A    between atoms: C_8  and  C_9 
REMARK    3  A    between atoms: C_11  and  O_12 
REMARK    4  A    between atoms: C_15  and  O_16 
REMARK    5  A    between atoms: C_20  and  C_21 
ROOT
HETATM    1  C   UNL     1       8.347  23.491  56.007  1.00  0.00     0.073 C 
HETATM    2  C   UNL     1       8.048  23.881  54.607  1.00  0.00     0.065 A 
HETATM    3  N   UNL     1       8.413  23.081  53.597  1.00  0.00    -0.177 NA
HETATM    4  N   UNL     1       8.026  23.751  52.497  1.00  0.00    -0.262 N 
HETATM    5  H   UNL     1       8.208  23.359  51.576  1.00  0.00     0.191 HD
HETATM    6  C   UNL     1       7.391  24.936  52.767  1.00  0.00     0.137 A 
HETATM    7  C   UNL     1       7.404  25.061  54.142  1.00  0.00     0.046 A 
ENDROOT
BRANCH   6   8
HETATM    8  N   UNL     1       6.874  25.772  51.795  1.00  0.00    -0.307 N 
HETATM    9  C   UNL     1       5.550  25.707  51.404  1.00  0.00     0.257 C 
HETATM   10  O   UNL     1       4.708  24.935  51.848  1.00  0.00    -0.267 OA
HETATM   11  H   UNL     1       7.518  26.388  51.312  1.00  0.00     0.170 HD
BRANCH   9  12
HETATM   12  C   UNL     1       5.198  26.643  50.314  1.00  0.00     0.037 A 
HETATM   13  C   UNL     1       5.514  27.994  50.466  1.00  0.00     0.054 A 
HETATM   14  C   UNL     1       5.129  28.910  49.490  1.00  0.00     0.071 A 
HETATM   15  C   UNL     1       4.467  28.454  48.347  1.00  0.00     0.073 A 
HETATM   16  C   UNL     1       4.182  27.092  48.176  1.00  0.00     0.071 A 
HETATM   17  C   UNL     1       4.537  26.182  49.169  1.00  0.00     0.054 A 
BRANCH  14  18
HETATM   18  O   UNL     1       5.451  30.210  49.767  1.00  0.00    -0.356 OA
HETATM   19  C   UNL     1       4.672  30.867  50.760  1.00  0.00     0.210 C 
ENDBRANCH  14  18
BRANCH  16  20
HETATM   20  O   UNL     1       3.541  26.789  47.005  1.00  0.00    -0.356 OA
HETATM   21  C   UNL     1       2.602  25.721  47.040  1.00  0.00     0.210 C 
ENDBRANCH  16  20
ENDBRANCH   9  12
ENDBRANCH   6   8
BRANCH   7  22
HETATM   22  C   UNL     1       6.868  26.193  54.872  1.00  0.00    -0.020 A 
HETATM   23  C   UNL     1       7.579  27.398  54.923  1.00  0.00     0.014 A 
HETATM   24  C   UNL     1       7.063  28.488  55.631  1.00  0.00     0.020 A 
HETATM   25  C   UNL     1       5.837  28.372  56.285  1.00  0.00     0.011 A 
HETATM   26 BR   UNL     1       5.143  29.845  57.245  1.00  0.00    -0.051 Br
HETATM   27  C   UNL     1       5.119  27.179  56.236  1.00  0.00     0.020 A 
HETATM   28  C   UNL     1       5.633  26.091  55.527  1.00  0.00     0.014 A 
ENDBRANCH   7  22
TORSDOF 5
ENDMDL
MODEL 8
REMARK VINA RESULT:      -7.7      3.826      7.140
REMARK  5 active torsions:
REMARK  status: ('A' for Active; 'I' for Inactive)
REMARK    1  A    between atoms: C_6  and  N_7 
REMARK       I    between atoms: N_7  and  C_8 
REMARK    2  A    between atoms: C_8  and  C_9 
REMARK    3  A    between atoms: C_11  and  O_12 
REMARK    4  A    between atoms: C_15  and  O_16 
REMARK    5  A    between atoms: C_20  and  C_21 
ROOT
HETATM    1  C   UNL     1       4.564  29.700  50.445  1.00  0.00     0.073 C 
HETATM    2  C   UNL     1       5.048  28.348  50.816  1.00  0.00     0.065 A 
HETATM    3  N   UNL     1       5.256  27.428  49.865  1.00  0.00    -0.177 NA
HETATM    4  N   UNL     1       5.645  26.337  50.549  1.00  0.00    -0.262 N 
HETATM    5  H   UNL     1       5.851  25.474  50.052  1.00  0.00     0.191 HD
HETATM    6  C   UNL     1       5.730  26.536  51.903  1.00  0.00     0.137 A 
HETATM    7  C   UNL     1       5.329  27.840  52.115  1.00  0.00     0.046 A 
ENDROOT
BRANCH   6   8
HETATM    8  N   UNL     1       6.145  25.568  52.800  1.00  0.00    -0.307 N 
HETATM    9  C   UNL     1       7.454  25.128  52.846  1.00  0.00     0.257 C 
HETATM   10  O   UNL     1       8.369  25.520  52.130  1.00  0.00    -0.267 OA
HETATM   11  H   UNL     1       5.439  25.126  53.377  1.00  0.00     0.170 HD
BRANCH   9  12
HETATM   12  C   UNL     1       7.693  24.052  53.832  1.00  0.00     0.037 A 
HETATM   13  C   UNL     1       7.917  24.405  55.163  1.00  0.00     0.054 A 
HETATM   14  C   UNL     1       8.218  23.418  56.101  1.00  0.00     0.071 A 
HETATM   15  C   UNL     1       8.248  22.081  55.700  1.00  0.00     0.073 A 
HETATM   16  C   UNL     1       7.987  21.722  54.370  1.00  0.00     0.071 A 
HETATM   17  C   UNL     1       7.720  22.712  53.427  1.00  0.00     0.054 A 
BRANCH  14  18
HETATM   18  O   UNL     1       8.463  23.885  57.363  1.00  0.00    -0.356 OA
HETATM   19  C   UNL     1       8.271  25.277  57.580  1.00  0.00     0.210 C 
ENDBRANCH  14  18
BRANCH  16  20
HETATM   20  O   UNL     1       8.039  20.376  54.123  1.00  0.00    -0.356 OA
HETATM   21  C   UNL     1       8.708  19.961  52.938  1.00  0.00     0.210 C 
ENDBRANCH  16  20
ENDBRANCH   9  12
ENDBRANCH   6   8
BRANCH   7  22
HETATM   22  C   UNL     1       5.227  28.470  53.416  1.00  0.00    -0.020 A 
HETATM   23  C   UNL     1       4.003  28.989  53.854  1.00  0.00     0.014 A 
HETATM   24  C   UNL     1       3.908  29.601  55.108  1.00  0.00     0.020 A 
HETATM   25  C   UNL     1       5.035  29.692  55.922  1.00  0.00     0.011 A 
HETATM   26 BR   UNL     1       4.906  30.523  57.615  1.00  0.00    -0.051 Br
HETATM   27  C   UNL     1       6.258  29.174  55.499  1.00  0.00     0.020 A 
HETATM   28  C   UNL     1       6.352  28.560  54.248  1.00  0.00     0.014 A 
ENDBRANCH   7  22
TORSDOF 5
ENDMDL
MODEL 9
REMARK VINA RESULT:      -7.7      3.986      7.063
REMARK  5 active torsions:
REMARK  status: ('A' for Active; 'I' for Inactive)
REMARK    1  A    between atoms: C_6  and  N_7 
REMARK       I    between atoms: N_7  and  C_8 
REMARK    2  A    between atoms: C_8  and  C_9 
REMARK    3  A    between atoms: C_11  and  O_12 
REMARK    4  A    between atoms: C_15  and  O_16 
REMARK    5  A    between atoms: C_20  and  C_21 
ROOT
HETATM    1  C   UNL     1       3.087  29.324  49.960  1.00  0.00     0.073 C 
HETATM    2  C   UNL     1       4.071  28.263  50.291  1.00  0.00     0.065 A 
HETATM    3  N   UNL     1       4.505  27.432  49.334  1.00  0.00    -0.177 NA
HETATM    4  N   UNL     1       5.336  26.597  49.984  1.00  0.00    -0.262 N 
HETATM    5  H   UNL     1       5.793  25.843  49.478  1.00  0.00     0.191 HD
HETATM    6  C   UNL     1       5.479  26.887  51.316  1.00  0.00     0.137 A 
HETATM    7  C   UNL     1       4.650  27.964  51.556  1.00  0.00     0.046 A 
ENDROOT
BRANCH   6   8
HETATM    8  N   UNL     1       6.311  26.188  52.172  1.00  0.00    -0.307 N 
HETATM    9  C   UNL     1       5.977  24.937  52.655  1.00  0.00     0.257 C 
HETATM   10  O   UNL     1       4.950  24.319  52.399  1.00  0.00    -0.267 OA
HETATM   11  H   UNL     1       7.146  26.656  52.504  1.00  0.00     0.170 HD
BRANCH   9  12
HETATM   12  C   UNL     1       6.966  24.373  53.599  1.00  0.00     0.037 A 
HETATM   13  C   UNL     1       7.620  23.189  53.252  1.00  0.00     0.054 A 
HETATM   14  C   UNL     1       8.502  22.595  54.153  1.00  0.00     0.071 A 
HETATM   15  C   UNL     1       8.753  23.220  55.377  1.00  0.00     0.073 A 
HETATM   16  C   UNL     1       8.125  24.428  55.711  1.00  0.00     0.071 A 
HETATM   17  C   UNL     1       7.218  25.003  54.824  1.00  0.00     0.054 A 
BRANCH  14  18
HETATM   18  O   UNL     1       9.047  21.416  53.726  1.00  0.00    -0.356 OA
HETATM   19  C   UNL     1       8.224  20.584  52.917  1.00  0.00     0.210 C 
ENDBRANCH  14  18
BRANCH  16  20
HETATM   20  O   UNL     1       8.474  24.931  56.935  1.00  0.00    -0.356 OA
HETATM   21  C   UNL     1       8.083  26.268  57.221  1.00  0.00     0.210 C 
ENDBRANCH  16  20
ENDBRANCH   9  12
ENDBRANCH   6   8
BRANCH   7  22
HETATM   22  C   UNL     1       4.456  28.585  52.851  1.00  0.00    -0.020 A 
HETATM   23  C   UNL     1       4.414  29.980  52.965  1.00  0.00     0.014 A 
HETATM   24  C   UNL     1       4.231  30.577  54.216  1.00  0.00     0.020 A 
HETATM   25  C   UNL     1       4.089  29.780  55.350  1.00  0.00     0.011 A 
HETATM   26 BR   UNL     1       3.847  30.589  57.041  1.00  0.00    -0.051 Br
HETATM   27  C   UNL     1       4.124  28.391  55.248  1.00  0.00     0.020 A 
HETATM   28  C   UNL     1       4.305  27.794  53.998  1.00  0.00     0.014 A 
ENDBRANCH   7  22
TORSDOF 5
ENDMDL
MODEL 10
REMARK VINA RESULT:      -7.6      8.020     12.191
REMARK  5 active torsions:
REMARK  status: ('A' for Active; 'I' for Inactive)
REMARK    1  A    between atoms: C_6  and  N_7 
REMARK       I    between atoms: N_7  and  C_8 
REMARK    2  A    between atoms: C_8  and  C_9 
REMARK    3  A    between atoms: C_11  and  O_12 
REMARK    4  A    between atoms: C_15  and  O_16 
REMARK    5  A    between atoms: C_20  and  C_21 
ROOT
HETATM    1  C   UNL     1       4.168  36.103  66.784  1.00  0.00     0.073 C 
HETATM    2  C   UNL     1       4.727  35.074  65.872  1.00  0.00     0.065 A 
HETATM    3  N   UNL     1       5.039  33.860  66.343  1.00  0.00    -0.177 NA
HETATM    4  N   UNL     1       5.542  33.217  65.274  1.00  0.00    -0.262 N 
HETATM    5  H   UNL     1       5.879  32.262  65.371  1.00  0.00     0.191 HD
HETATM    6  C   UNL     1       5.528  33.963  64.124  1.00  0.00     0.137 A 
HETATM    7  C   UNL     1       5.015  35.194  64.483  1.00  0.00     0.046 A 
ENDROOT
BRANCH   6   8
HETATM    8  N   UNL     1       5.959  33.495  62.897  1.00  0.00    -0.307 N 
HETATM    9  C   UNL     1       7.210  32.934  62.727  1.00  0.00     0.257 C 
HETATM   10  O   UNL     1       8.057  32.789  63.602  1.00  0.00    -0.267 OA
HETATM   11  H   UNL     1       5.356  33.647  62.096  1.00  0.00     0.170 HD
BRANCH   9  12
HETATM   12  C   UNL     1       7.510  32.542  61.333  1.00  0.00     0.037 A 
HETATM   13  C   UNL     1       6.452  32.172  60.501  1.00  0.00     0.054 A 
HETATM   14  C   UNL     1       6.711  31.728  59.206  1.00  0.00     0.071 A 
HETATM   15  C   UNL     1       8.028  31.701  58.743  1.00  0.00     0.073 A 
HETATM   16  C   UNL     1       9.089  32.108  59.565  1.00  0.00     0.071 A 
HETATM   17  C   UNL     1       8.832  32.519  60.871  1.00  0.00     0.054 A 
BRANCH  14  18
HETATM   18  O   UNL     1       5.603  31.348  58.500  1.00  0.00    -0.356 OA
HETATM   19  C   UNL     1       4.356  31.883  58.926  1.00  0.00     0.210 C 
ENDBRANCH  14  18
BRANCH  16  20
HETATM   20  O   UNL     1      10.323  32.040  58.976  1.00  0.00    -0.356 OA
HETATM   21  C   UNL     1      10.479  31.114  57.907  1.00  0.00     0.210 C 
ENDBRANCH  16  20
ENDBRANCH   9  12
ENDBRANCH   6   8
BRANCH   7  22
HETATM   22  C   UNL     1       4.856  36.316  63.581  1.00  0.00    -0.020 A 
HETATM   23  C   UNL     1       5.945  37.146  63.288  1.00  0.00     0.014 A 
HETATM   24  C   UNL     1       5.788  38.230  62.420  1.00  0.00     0.020 A 
HETATM   25  C   UNL     1       4.544  38.484  61.845  1.00  0.00     0.011 A 
HETATM   26 BR   UNL     1       4.332  39.953  60.675  1.00  0.00    -0.051 Br
HETATM   27  C   UNL     1       3.454  37.661  62.125  1.00  0.00     0.020 A 
HETATM   28  C   UNL     1       3.611  36.576  62.990  1.00  0.00     0.014 A 
ENDBRANCH   7  22
TORSDOF 5
ENDMDL
