MODEL 1
REMARK VINA RESULT:      -7.8      0.000      0.000
REMARK  6 active torsions:
REMARK  status: ('A' for Active; 'I' for Inactive)
REMARK    1  A    between atoms: C_2  and  O_3 
REMARK    2  A    between atoms: O_3  and  C_4 
REMARK    3  A    between atoms: C_4  and  C_5 
REMARK    4  A    between atoms: C_6  and  O_7 
REMARK    5  A    between atoms: C_12  and  O_13 
REMARK    6  A    between atoms: C_17  and  C_18 
ROOT
HETATM    1  C   UNL     1       7.717  26.309  55.394  1.00  0.00     0.133 C 
HETATM    2  C   UNL     1       6.926  25.475  56.462  1.00  0.00     0.073 C 
HETATM    3  C   UNL     1       7.465  25.748  57.876  1.00  0.00     0.047 C 
HETATM    4  C   UNL     1       5.389  25.715  56.434  1.00  0.00     0.097 C 
HETATM    5  C   UNL     1       5.099  27.147  56.198  1.00  0.00     0.042 A 
HETATM    6  C   UNL     1       5.960  28.106  55.705  1.00  0.00     0.030 A 
HETATM    7  C   UNL     1       5.157  29.256  55.644  1.00  0.00     0.190 A 
HETATM    8  N   UNL     1       3.915  29.064  56.069  1.00  0.00    -0.149 NA
HETATM    9  N   UNL     1       3.896  27.760  56.399  1.00  0.00    -0.279 N 
HETATM   10  H   UNL     1       3.027  27.364  56.743  1.00  0.00     0.189 HD
HETATM   11  C   UNL     1       7.368  27.824  55.303  1.00  0.00     0.074 C 
ENDROOT
BRANCH  11  12
HETATM   12  C   UNL     1       8.318  28.715  56.098  1.00  0.00    -0.048 A 
HETATM   13  C   UNL     1       8.093  29.160  57.412  1.00  0.00     0.011 A 
HETATM   14  C   UNL     1       9.025  29.972  58.067  1.00  0.00     0.043 A 
HETATM   15  C   UNL     1      10.192  30.343  57.415  1.00  0.00     0.116 A 
HETATM   16  F   UNL     1      11.083  31.121  58.043  1.00  0.00    -0.206 F 
HETATM   17  C   UNL     1      10.448  29.916  56.120  1.00  0.00     0.043 A 
HETATM   18  C   UNL     1       9.518  29.106  55.466  1.00  0.00     0.011 A 
ENDBRANCH  11  12
BRANCH   1  19
HETATM   19  C   UNL     1       7.513  25.720  54.008  1.00  0.00     0.267 C 
HETATM   20  O   UNL     1       7.970  24.651  53.628  1.00  0.00    -0.265 OA
BRANCH  19  21
HETATM   21  O   UNL     1       6.772  26.574  53.246  1.00  0.00    -0.316 OA
BRANCH  21  22
HETATM   22  C   UNL     1       5.972  25.991  52.199  1.00  0.00     0.123 C 
HETATM   23  C   UNL     1       5.475  27.129  51.317  1.00  0.00     0.040 C 
HETATM   24  C   UNL     1       4.814  25.249  52.850  1.00  0.00     0.040 C 
ENDBRANCH  21  22
ENDBRANCH  19  21
ENDBRANCH   1  19
BRANCH   2  25
HETATM   25  O   UNL     1       7.181  24.071  56.258  1.00  0.00    -0.389 OA
HETATM   26  H   UNL     1       7.955  23.992  55.663  1.00  0.00     0.210 HD
ENDBRANCH   2  25
BRANCH   7  27
HETATM   27  O   UNL     1       5.468  30.492  55.246  1.00  0.00    -0.343 OA
HETATM   28  H   UNL     1       4.745  30.854  54.713  1.00  0.00     0.219 HD
ENDBRANCH   7  27
TORSDOF 6
ENDMDL
MODEL 2
REMARK VINA RESULT:      -7.5      7.732     10.800
REMARK  6 active torsions:
REMARK  status: ('A' for Active; 'I' for Inactive)
REMARK    1  A    between atoms: C_2  and  O_3 
REMARK    2  A    between atoms: O_3  and  C_4 
REMARK    3  A    between atoms: C_4  and  C_5 
REMARK    4  A    between atoms: C_6  and  O_7 
REMARK    5  A    between atoms: C_12  and  O_13 
REMARK    6  A    between atoms: C_17  and  C_18 
ROOT
HETATM    1  C   UNL     1       4.832  34.297  63.572  1.00  0.00     0.133 C 
HETATM    2  C   UNL     1       4.490  35.700  62.960  1.00  0.00     0.073 C 
HETATM    3  C   UNL     1       5.705  36.282  62.217  1.00  0.00     0.047 C 
HETATM    4  C   UNL     1       3.256  35.689  62.012  1.00  0.00     0.097 C 
HETATM    5  C   UNL     1       3.257  34.461  61.186  1.00  0.00     0.042 A 
HETATM    6  C   UNL     1       3.971  33.302  61.409  1.00  0.00     0.030 A 
HETATM    7  C   UNL     1       3.560  32.466  60.358  1.00  0.00     0.190 A 
HETATM    8  N   UNL     1       2.686  33.032  59.535  1.00  0.00    -0.149 NA
HETATM    9  N   UNL     1       2.506  34.255  60.064  1.00  0.00    -0.279 N 
HETATM   10  H   UNL     1       1.852  34.885  59.608  1.00  0.00     0.189 HD
HETATM   11  C   UNL     1       4.875  33.101  62.577  1.00  0.00     0.074 C 
ENDROOT
BRANCH  11  12
HETATM   12  C   UNL     1       6.282  32.769  62.087  1.00  0.00    -0.048 A 
HETATM   13  C   UNL     1       6.721  32.893  60.757  1.00  0.00     0.011 A 
HETATM   14  C   UNL     1       8.034  32.571  60.400  1.00  0.00     0.043 A 
HETATM   15  C   UNL     1       8.922  32.125  61.369  1.00  0.00     0.116 A 
HETATM   16  F   UNL     1      10.178  31.816  61.024  1.00  0.00    -0.206 F 
HETATM   17  C   UNL     1       8.522  31.997  62.691  1.00  0.00     0.043 A 
HETATM   18  C   UNL     1       7.212  32.318  63.049  1.00  0.00     0.011 A 
ENDBRANCH  11  12
BRANCH   1  19
HETATM   19  C   UNL     1       3.831  33.938  64.658  1.00  0.00     0.267 C 
HETATM   20  O   UNL     1       2.626  34.135  64.592  1.00  0.00    -0.265 OA
BRANCH  19  21
HETATM   21  O   UNL     1       4.481  33.392  65.725  1.00  0.00    -0.316 OA
BRANCH  21  22
HETATM   22  C   UNL     1       5.252  34.288  66.549  1.00  0.00     0.123 C 
HETATM   23  C   UNL     1       6.721  33.932  66.359  1.00  0.00     0.040 C 
HETATM   24  C   UNL     1       4.817  34.091  67.994  1.00  0.00     0.040 C 
ENDBRANCH  21  22
ENDBRANCH  19  21
ENDBRANCH   1  19
BRANCH   2  25
HETATM   25  O   UNL     1       4.250  36.642  64.025  1.00  0.00    -0.389 OA
HETATM   26  H   UNL     1       3.984  36.133  64.818  1.00  0.00     0.210 HD
ENDBRANCH   2  25
BRANCH   7  27
HETATM   27  O   UNL     1       3.932  31.218  60.067  1.00  0.00    -0.343 OA
HETATM   28  H   UNL     1       4.840  31.069  60.371  1.00  0.00     0.219 HD
ENDBRANCH   7  27
TORSDOF 6
ENDMDL
MODEL 3
REMARK VINA RESULT:      -7.3      3.257      4.911
REMARK  6 active torsions:
REMARK  status: ('A' for Active; 'I' for Inactive)
REMARK    1  A    between atoms: C_2  and  O_3 
REMARK    2  A    between atoms: O_3  and  C_4 
REMARK    3  A    between atoms: C_4  and  C_5 
REMARK    4  A    between atoms: C_6  and  O_7 
REMARK    5  A    between atoms: C_12  and  O_13 
REMARK    6  A    between atoms: C_17  and  C_18 
ROOT
HETATM    1  C   UNL     1       5.064  27.758  54.612  1.00  0.00     0.133 C 
HETATM    2  C   UNL     1       4.855  27.846  56.164  1.00  0.00     0.073 C 
HETATM    3  C   UNL     1       5.164  26.496  56.834  1.00  0.00     0.047 C 
HETATM    4  C   UNL     1       5.685  28.970  56.848  1.00  0.00     0.097 C 
HETATM    5  C   UNL     1       7.033  29.051  56.241  1.00  0.00     0.042 A 
HETATM    6  C   UNL     1       7.440  28.525  55.032  1.00  0.00     0.030 A 
HETATM    7  C   UNL     1       8.779  28.938  54.938  1.00  0.00     0.190 A 
HETATM    8  N   UNL     1       9.196  29.641  55.983  1.00  0.00    -0.149 NA
HETATM    9  N   UNL     1       8.107  29.707  56.770  1.00  0.00    -0.279 N 
HETATM   10  H   UNL     1       8.174  30.222  57.642  1.00  0.00     0.189 HD
HETATM   11  C   UNL     1       6.538  27.777  54.111  1.00  0.00     0.074 C 
ENDROOT
BRANCH  11  12
HETATM   12  C   UNL     1       7.108  26.385  53.850  1.00  0.00    -0.048 A 
HETATM   13  C   UNL     1       7.495  25.475  54.848  1.00  0.00     0.011 A 
HETATM   14  C   UNL     1       8.004  24.215  54.515  1.00  0.00     0.043 A 
HETATM   15  C   UNL     1       8.125  23.853  53.181  1.00  0.00     0.116 A 
HETATM   16  F   UNL     1       8.614  22.646  52.865  1.00  0.00    -0.206 F 
HETATM   17  C   UNL     1       7.747  24.725  52.172  1.00  0.00     0.043 A 
HETATM   18  C   UNL     1       7.239  25.983  52.503  1.00  0.00     0.011 A 
ENDBRANCH  11  12
BRANCH   1  19
HETATM   19  C   UNL     1       4.342  28.901  53.917  1.00  0.00     0.267 C 
HETATM   20  O   UNL     1       4.445  30.081  54.221  1.00  0.00    -0.265 OA
BRANCH  19  21
HETATM   21  O   UNL     1       3.542  28.411  52.928  1.00  0.00    -0.316 OA
BRANCH  21  22
HETATM   22  C   UNL     1       3.759  28.922  51.598  1.00  0.00     0.123 C 
HETATM   23  C   UNL     1       2.391  29.215  50.993  1.00  0.00     0.040 C 
HETATM   24  C   UNL     1       4.500  27.859  50.801  1.00  0.00     0.040 C 
ENDBRANCH  21  22
ENDBRANCH  19  21
ENDBRANCH   1  19
BRANCH   2  25
HETATM   25  O   UNL     1       3.457  28.062  56.448  1.00  0.00    -0.389 OA
HETATM   26  H   UNL     1       3.386  28.873  56.993  1.00  0.00     0.210 HD
ENDBRANCH   2  25
BRANCH   7  27
HETATM   27  O   UNL     1       9.675  28.709  53.976  1.00  0.00    -0.343 OA
HETATM   28  H   UNL     1      10.332  28.068  54.288  1.00  0.00     0.219 HD
ENDBRANCH   7  27
TORSDOF 6
ENDMDL
MODEL 4
REMARK VINA RESULT:      -7.2      8.975     11.416
REMARK  6 active torsions:
REMARK  status: ('A' for Active; 'I' for Inactive)
REMARK    1  A    between atoms: C_2  and  O_3 
REMARK    2  A    between atoms: O_3  and  C_4 
REMARK    3  A    between atoms: C_4  and  C_5 
REMARK    4  A    between atoms: C_6  and  O_7 
REMARK    5  A    between atoms: C_12  and  O_13 
REMARK    6  A    between atoms: C_17  and  C_18 
ROOT
HETATM    1  C   UNL     1       4.705  33.879  62.583  1.00  0.00     0.133 C 
HETATM    2  C   UNL     1       3.231  34.176  62.136  1.00  0.00     0.073 C 
HETATM    3  C   UNL     1       2.281  34.168  63.345  1.00  0.00     0.047 C 
HETATM    4  C   UNL     1       3.067  35.512  61.353  1.00  0.00     0.097 C 
HETATM    5  C   UNL     1       3.924  36.561  61.951  1.00  0.00     0.042 A 
HETATM    6  C   UNL     1       4.989  36.385  62.808  1.00  0.00     0.030 A 
HETATM    7  C   UNL     1       5.455  37.694  63.013  1.00  0.00     0.190 A 
HETATM    8  N   UNL     1       4.754  38.618  62.369  1.00  0.00    -0.149 NA
HETATM    9  N   UNL     1       3.821  37.902  61.715  1.00  0.00    -0.279 N 
HETATM   10  H   UNL     1       3.160  38.398  61.125  1.00  0.00     0.189 HD
HETATM   11  C   UNL     1       5.468  35.051  63.269  1.00  0.00     0.074 C 
ENDROOT
BRANCH  11  12
HETATM   12  C   UNL     1       5.431  34.988  64.793  1.00  0.00    -0.048 A 
HETATM   13  C   UNL     1       4.506  35.669  65.604  1.00  0.00     0.011 A 
HETATM   14  C   UNL     1       4.544  35.549  66.997  1.00  0.00     0.043 A 
HETATM   15  C   UNL     1       5.504  34.743  67.592  1.00  0.00     0.116 A 
HETATM   16  F   UNL     1       5.539  34.630  68.926  1.00  0.00    -0.206 F 
HETATM   17  C   UNL     1       6.427  34.053  66.821  1.00  0.00     0.043 A 
HETATM   18  C   UNL     1       6.391  34.173  65.431  1.00  0.00     0.011 A 
ENDBRANCH  11  12
BRANCH   1  19
HETATM   19  C   UNL     1       5.539  33.441  61.391  1.00  0.00     0.267 C 
HETATM   20  O   UNL     1       5.085  33.036  60.330  1.00  0.00    -0.265 OA
BRANCH  19  21
HETATM   21  O   UNL     1       6.865  33.538  61.693  1.00  0.00    -0.316 OA
BRANCH  21  22
HETATM   22  C   UNL     1       7.635  32.320  61.658  1.00  0.00     0.123 C 
HETATM   23  C   UNL     1       8.274  32.145  63.029  1.00  0.00     0.040 C 
HETATM   24  C   UNL     1       8.690  32.461  60.570  1.00  0.00     0.040 C 
ENDBRANCH  21  22
ENDBRANCH  19  21
ENDBRANCH   1  19
BRANCH   2  25
HETATM   25  O   UNL     1       2.753  33.094  61.312  1.00  0.00    -0.389 OA
HETATM   26  H   UNL     1       1.779  33.053  61.409  1.00  0.00     0.210 HD
ENDBRANCH   2  25
BRANCH   7  27
HETATM   27  O   UNL     1       6.469  38.130  63.764  1.00  0.00    -0.343 OA
HETATM   28  H   UNL     1       7.292  38.091  63.256  1.00  0.00     0.219 HD
ENDBRANCH   7  27
TORSDOF 6
ENDMDL
MODEL 5
REMARK VINA RESULT:      -7.2      8.386     10.689
REMARK  6 active torsions:
REMARK  status: ('A' for Active; 'I' for Inactive)
REMARK    1  A    between atoms: C_2  and  O_3 
REMARK    2  A    between atoms: O_3  and  C_4 
REMARK    3  A    between atoms: C_4  and  C_5 
REMARK    4  A    between atoms: C_6  and  O_7 
REMARK    5  A    between atoms: C_12  and  O_13 
REMARK    6  A    between atoms: C_17  and  C_18 
ROOT
HETATM    1  C   UNL     1       4.833  34.174  61.479  1.00  0.00     0.133 C 
HETATM    2  C   UNL     1       3.524  33.426  61.912  1.00  0.00     0.073 C 
HETATM    3  C   UNL     1       3.688  31.905  61.760  1.00  0.00     0.047 C 
HETATM    4  C   UNL     1       3.059  33.759  63.360  1.00  0.00     0.097 C 
HETATM    5  C   UNL     1       4.230  33.861  64.261  1.00  0.00     0.042 A 
HETATM    6  C   UNL     1       5.552  34.022  63.902  1.00  0.00     0.030 A 
HETATM    7  C   UNL     1       6.212  34.105  65.138  1.00  0.00     0.190 A 
HETATM    8  N   UNL     1       5.403  33.992  66.184  1.00  0.00    -0.149 NA
HETATM    9  N   UNL     1       4.187  33.851  65.625  1.00  0.00    -0.279 N 
HETATM   10  H   UNL     1       3.383  33.761  66.239  1.00  0.00     0.189 HD
HETATM   11  C   UNL     1       6.016  34.139  62.490  1.00  0.00     0.074 C 
ENDROOT
BRANCH  11  12
HETATM   12  C   UNL     1       7.036  33.043  62.192  1.00  0.00    -0.048 A 
HETATM   13  C   UNL     1       7.328  31.963  63.042  1.00  0.00     0.011 A 
HETATM   14  C   UNL     1       8.278  31.000  62.684  1.00  0.00     0.043 A 
HETATM   15  C   UNL     1       8.940  31.107  61.469  1.00  0.00     0.116 A 
HETATM   16  F   UNL     1       9.849  30.184  61.128  1.00  0.00    -0.206 F 
HETATM   17  C   UNL     1       8.671  32.157  60.604  1.00  0.00     0.043 A 
HETATM   18  C   UNL     1       7.725  33.118  60.961  1.00  0.00     0.011 A 
ENDBRANCH  11  12
BRANCH   1  19
HETATM   19  C   UNL     1       4.534  35.637  61.193  1.00  0.00     0.267 C 
HETATM   20  O   UNL     1       3.732  36.038  60.361  1.00  0.00    -0.265 OA
BRANCH  19  21
HETATM   21  O   UNL     1       5.315  36.431  61.979  1.00  0.00    -0.316 OA
BRANCH  21  22
HETATM   22  C   UNL     1       4.667  37.532  62.645  1.00  0.00     0.123 C 
HETATM   23  C   UNL     1       5.089  38.810  61.931  1.00  0.00     0.040 C 
HETATM   24  C   UNL     1       5.120  37.536  64.098  1.00  0.00     0.040 C 
ENDBRANCH  21  22
ENDBRANCH  19  21
ENDBRANCH   1  19
BRANCH   2  25
HETATM   25  O   UNL     1       2.459  33.754  60.996  1.00  0.00    -0.389 OA
HETATM   26  H   UNL     1       2.788  33.593  60.088  1.00  0.00     0.210 HD
ENDBRANCH   2  25
BRANCH   7  27
HETATM   27  O   UNL     1       7.511  34.257  65.402  1.00  0.00    -0.343 OA
HETATM   28  H   UNL     1       8.015  33.548  64.978  1.00  0.00     0.219 HD
ENDBRANCH   7  27
TORSDOF 6
ENDMDL
MODEL 6
REMARK VINA RESULT:      -6.7      6.791      9.063
REMARK  6 active torsions:
REMARK  status: ('A' for Active; 'I' for Inactive)
REMARK    1  A    between atoms: C_2  and  O_3 
REMARK    2  A    between atoms: O_3  and  C_4 
REMARK    3  A    between atoms: C_4  and  C_5 
REMARK    4  A    between atoms: C_6  and  O_7 
REMARK    5  A    between atoms: C_12  and  O_13 
REMARK    6  A    between atoms: C_17  and  C_18 
ROOT
HETATM    1  C   UNL     1       5.417  32.539  60.597  1.00  0.00     0.133 C 
HETATM    2  C   UNL     1       3.889  32.194  60.522  1.00  0.00     0.073 C 
HETATM    3  C   UNL     1       3.355  31.776  61.903  1.00  0.00     0.047 C 
HETATM    4  C   UNL     1       3.011  33.345  59.950  1.00  0.00     0.097 C 
HETATM    5  C   UNL     1       3.488  34.651  60.458  1.00  0.00     0.042 A 
HETATM    6  C   UNL     1       4.709  34.931  61.034  1.00  0.00     0.030 A 
HETATM    7  C   UNL     1       4.640  36.312  61.276  1.00  0.00     0.190 A 
HETATM    8  N   UNL     1       3.489  36.862  60.910  1.00  0.00    -0.149 NA
HETATM    9  N   UNL     1       2.796  35.827  60.402  1.00  0.00    -0.279 N 
HETATM   10  H   UNL     1       1.868  36.005  60.033  1.00  0.00     0.189 HD
HETATM   11  C   UNL     1       5.785  33.916  61.224  1.00  0.00     0.074 C 
ENDROOT
BRANCH  11  12
HETATM   12  C   UNL     1       6.154  33.830  62.703  1.00  0.00    -0.048 A 
HETATM   13  C   UNL     1       7.351  33.286  63.202  1.00  0.00     0.011 A 
HETATM   14  C   UNL     1       7.608  33.253  64.577  1.00  0.00     0.043 A 
HETATM   15  C   UNL     1       6.674  33.768  65.464  1.00  0.00     0.116 A 
HETATM   16  F   UNL     1       6.922  33.735  66.780  1.00  0.00    -0.206 F 
HETATM   17  C   UNL     1       5.486  34.317  65.004  1.00  0.00     0.043 A 
HETATM   18  C   UNL     1       5.228  34.349  63.633  1.00  0.00     0.011 A 
ENDBRANCH  11  12
BRANCH   1  19
HETATM   19  C   UNL     1       6.035  32.503  59.209  1.00  0.00     0.267 C 
HETATM   20  O   UNL     1       5.402  32.497  58.162  1.00  0.00    -0.265 OA
BRANCH  19  21
HETATM   21  O   UNL     1       7.393  32.448  59.307  1.00  0.00    -0.316 OA
BRANCH  21  22
HETATM   22  C   UNL     1       7.953  31.330  60.024  1.00  0.00     0.123 C 
HETATM   23  C   UNL     1       9.319  31.759  60.544  1.00  0.00     0.040 C 
HETATM   24  C   UNL     1       8.071  30.162  59.055  1.00  0.00     0.040 C 
ENDBRANCH  21  22
ENDBRANCH  19  21
ENDBRANCH   1  19
BRANCH   2  25
HETATM   25  O   UNL     1       3.703  31.019  59.708  1.00  0.00    -0.389 OA
HETATM   26  H   UNL     1       3.420  30.289  60.297  1.00  0.00     0.210 HD
ENDBRANCH   2  25
BRANCH   7  27
HETATM   27  O   UNL     1       5.542  37.127  61.829  1.00  0.00    -0.343 OA
HETATM   28  H   UNL     1       5.102  37.925  62.156  1.00  0.00     0.219 HD
ENDBRANCH   7  27
TORSDOF 6
ENDMDL
MODEL 7
REMARK VINA RESULT:      -6.5      8.173     10.458
REMARK  6 active torsions:
REMARK  status: ('A' for Active; 'I' for Inactive)
REMARK    1  A    between atoms: C_2  and  O_3 
REMARK    2  A    between atoms: O_3  and  C_4 
REMARK    3  A    between atoms: C_4  and  C_5 
REMARK    4  A    between atoms: C_6  and  O_7 
REMARK    5  A    between atoms: C_12  and  O_13 
REMARK    6  A    between atoms: C_17  and  C_18 
ROOT
HETATM    1  C   UNL     1       5.606  34.496  63.217  1.00  0.00     0.133 C 
HETATM    2  C   UNL     1       4.382  33.753  63.857  1.00  0.00     0.073 C 
HETATM    3  C   UNL     1       3.360  34.762  64.409  1.00  0.00     0.047 C 
HETATM    4  C   UNL     1       3.668  32.765  62.890  1.00  0.00     0.097 C 
HETATM    5  C   UNL     1       3.600  33.342  61.529  1.00  0.00     0.042 A 
HETATM    6  C   UNL     1       4.340  34.393  61.026  1.00  0.00     0.030 A 
HETATM    7  C   UNL     1       3.908  34.481  59.693  1.00  0.00     0.190 A 
HETATM    8  N   UNL     1       2.976  33.592  59.374  1.00  0.00    -0.149 NA
HETATM    9  N   UNL     1       2.805  32.896  60.512  1.00  0.00    -0.279 N 
HETATM   10  H   UNL     1       2.138  32.130  60.513  1.00  0.00     0.189 HD
HETATM   11  C   UNL     1       5.375  35.124  61.811  1.00  0.00     0.074 C 
ENDROOT
BRANCH  11  12
HETATM   12  C   UNL     1       5.028  36.610  61.861  1.00  0.00    -0.048 A 
HETATM   13  C   UNL     1       3.735  37.140  61.710  1.00  0.00     0.011 A 
HETATM   14  C   UNL     1       3.509  38.519  61.776  1.00  0.00     0.043 A 
HETATM   15  C   UNL     1       4.574  39.380  61.998  1.00  0.00     0.116 A 
HETATM   16  F   UNL     1       4.356  40.700  62.060  1.00  0.00    -0.206 F 
HETATM   17  C   UNL     1       5.862  38.890  62.158  1.00  0.00     0.043 A 
HETATM   18  C   UNL     1       6.088  37.514  62.091  1.00  0.00     0.011 A 
ENDBRANCH  11  12
BRANCH   1  19
HETATM   19  C   UNL     1       6.790  33.550  63.093  1.00  0.00     0.267 C 
HETATM   20  O   UNL     1       7.331  32.980  64.030  1.00  0.00    -0.265 OA
BRANCH  19  21
HETATM   21  O   UNL     1       7.174  33.457  61.788  1.00  0.00    -0.316 OA
BRANCH  21  22
HETATM   22  C   UNL     1       7.488  32.142  61.290  1.00  0.00     0.123 C 
HETATM   23  C   UNL     1       9.005  32.042  61.191  1.00  0.00     0.040 C 
HETATM   24  C   UNL     1       6.833  31.986  59.925  1.00  0.00     0.040 C 
ENDBRANCH  21  22
ENDBRANCH  19  21
ENDBRANCH   1  19
BRANCH   2  25
HETATM   25  O   UNL     1       4.818  33.027  65.024  1.00  0.00    -0.389 OA
HETATM   26  H   UNL     1       5.120  33.682  65.687  1.00  0.00     0.210 HD
ENDBRANCH   2  25
BRANCH   7  27
HETATM   27  O   UNL     1       4.280  35.327  58.731  1.00  0.00    -0.343 OA
HETATM   28  H   UNL     1       5.174  35.107  58.430  1.00  0.00     0.219 HD
ENDBRANCH   7  27
TORSDOF 6
ENDMDL
MODEL 8
REMARK VINA RESULT:      -6.4      5.766      8.709
REMARK  6 active torsions:
REMARK  status: ('A' for Active; 'I' for Inactive)
REMARK    1  A    between atoms: C_2  and  O_3 
REMARK    2  A    between atoms: O_3  and  C_4 
REMARK    3  A    between atoms: C_4  and  C_5 
REMARK    4  A    between atoms: C_6  and  O_7 
REMARK    5  A    between atoms: C_12  and  O_13 
REMARK    6  A    between atoms: C_17  and  C_18 
ROOT
HETATM    1  C   UNL     1       3.294  29.742  50.174  1.00  0.00     0.133 C 
HETATM    2  C   UNL     1       1.829  29.342  49.779  1.00  0.00     0.073 C 
HETATM    3  C   UNL     1       1.273  30.296  48.709  1.00  0.00     0.047 C 
HETATM    4  C   UNL     1       1.689  27.871  49.291  1.00  0.00     0.097 C 
HETATM    5  C   UNL     1       2.848  27.500  48.449  1.00  0.00     0.042 A 
HETATM    6  C   UNL     1       4.065  28.145  48.367  1.00  0.00     0.030 A 
HETATM    7  C   UNL     1       4.791  27.346  47.469  1.00  0.00     0.190 A 
HETATM    8  N   UNL     1       4.109  26.305  47.008  1.00  0.00    -0.149 NA
HETATM    9  N   UNL     1       2.920  26.411  47.628  1.00  0.00    -0.279 N 
HETATM   10  H   UNL     1       2.217  25.702  47.445  1.00  0.00     0.189 HD
HETATM   11  C   UNL     1       4.412  29.358  49.161  1.00  0.00     0.074 C 
ENDROOT
BRANCH  11  12
HETATM   12  C   UNL     1       4.796  30.497  48.220  1.00  0.00    -0.048 A 
HETATM   13  C   UNL     1       4.489  30.546  46.849  1.00  0.00     0.011 A 
HETATM   14  C   UNL     1       4.877  31.635  46.063  1.00  0.00     0.043 A 
HETATM   15  C   UNL     1       5.572  32.688  46.641  1.00  0.00     0.116 A 
HETATM   16  F   UNL     1       5.944  33.730  45.886  1.00  0.00    -0.206 F 
HETATM   17  C   UNL     1       5.886  32.673  47.992  1.00  0.00     0.043 A 
HETATM   18  C   UNL     1       5.499  31.586  48.777  1.00  0.00     0.011 A 
ENDBRANCH  11  12
BRANCH   1  19
HETATM   19  C   UNL     1       3.669  29.120  51.509  1.00  0.00     0.267 C 
HETATM   20  O   UNL     1       3.056  29.285  52.555  1.00  0.00    -0.265 OA
BRANCH  19  21
HETATM   21  O   UNL     1       4.804  28.377  51.372  1.00  0.00    -0.316 OA
BRANCH  21  22
HETATM   22  C   UNL     1       4.874  27.146  52.117  1.00  0.00     0.123 C 
HETATM   23  C   UNL     1       5.997  27.293  53.136  1.00  0.00     0.040 C 
HETATM   24  C   UNL     1       5.162  26.018  51.137  1.00  0.00     0.040 C 
ENDBRANCH  21  22
ENDBRANCH  19  21
ENDBRANCH   1  19
BRANCH   2  25
HETATM   25  O   UNL     1       0.957  29.542  50.910  1.00  0.00    -0.389 OA
HETATM   26  H   UNL     1       1.085  28.787  51.522  1.00  0.00     0.210 HD
ENDBRANCH   2  25
BRANCH   7  27
HETATM   27  O   UNL     1       6.035  27.495  47.009  1.00  0.00    -0.343 OA
HETATM   28  H   UNL     1       6.423  26.626  46.831  1.00  0.00     0.219 HD
ENDBRANCH   7  27
TORSDOF 6
ENDMDL
MODEL 9
REMARK VINA RESULT:      -6.3      8.109     10.313
REMARK  6 active torsions:
REMARK  status: ('A' for Active; 'I' for Inactive)
REMARK    1  A    between atoms: C_2  and  O_3 
REMARK    2  A    between atoms: O_3  and  C_4 
REMARK    3  A    between atoms: C_4  and  C_5 
REMARK    4  A    between atoms: C_6  and  O_7 
REMARK    5  A    between atoms: C_12  and  O_13 
REMARK    6  A    between atoms: C_17  and  C_18 
ROOT
HETATM    1  C   UNL     1       4.001  34.217  61.445  1.00  0.00     0.133 C 
HETATM    2  C   UNL     1       3.331  34.479  62.839  1.00  0.00     0.073 C 
HETATM    3  C   UNL     1       3.532  35.940  63.276  1.00  0.00     0.047 C 
HETATM    4  C   UNL     1       1.816  34.124  62.886  1.00  0.00     0.097 C 
HETATM    5  C   UNL     1       1.159  34.524  61.622  1.00  0.00     0.042 A 
HETATM    6  C   UNL     1       1.766  34.819  60.419  1.00  0.00     0.030 A 
HETATM    7  C   UNL     1       0.680  35.082  59.568  1.00  0.00     0.190 A 
HETATM    8  N   UNL     1      -0.502  34.984  60.164  1.00  0.00    -0.149 NA
HETATM    9  N   UNL     1      -0.188  34.633  61.424  1.00  0.00    -0.279 N 
HETATM   10  H   UNL     1      -0.945  34.478  62.083  1.00  0.00     0.189 HD
HETATM   11  C   UNL     1       3.239  34.759  60.200  1.00  0.00     0.074 C 
ENDROOT
BRANCH  11  12
HETATM   12  C   UNL     1       3.744  36.119  59.725  1.00  0.00    -0.048 A 
HETATM   13  C   UNL     1       3.895  37.252  60.543  1.00  0.00     0.011 A 
HETATM   14  C   UNL     1       4.371  38.459  60.021  1.00  0.00     0.043 A 
HETATM   15  C   UNL     1       4.706  38.543  58.676  1.00  0.00     0.116 A 
HETATM   16  F   UNL     1       5.161  39.699  58.178  1.00  0.00    -0.206 F 
HETATM   17  C   UNL     1       4.575  37.442  57.843  1.00  0.00     0.043 A 
HETATM   18  C   UNL     1       4.099  36.237  58.363  1.00  0.00     0.011 A 
ENDBRANCH  11  12
BRANCH   1  19
HETATM   19  C   UNL     1       4.204  32.727  61.229  1.00  0.00     0.267 C 
HETATM   20  O   UNL     1       3.464  32.007  60.574  1.00  0.00    -0.265 OA
BRANCH  19  21
HETATM   21  O   UNL     1       5.316  32.309  61.899  1.00  0.00    -0.316 OA
BRANCH  21  22
HETATM   22  C   UNL     1       6.568  32.925  61.537  1.00  0.00     0.123 C 
HETATM   23  C   UNL     1       7.029  32.290  60.232  1.00  0.00     0.040 C 
HETATM   24  C   UNL     1       7.562  32.666  62.660  1.00  0.00     0.040 C 
ENDBRANCH  21  22
ENDBRANCH  19  21
ENDBRANCH   1  19
BRANCH   2  25
HETATM   25  O   UNL     1       4.018  33.716  63.852  1.00  0.00    -0.389 OA
HETATM   26  H   UNL     1       3.905  34.183  64.705  1.00  0.00     0.210 HD
ENDBRANCH   2  25
BRANCH   7  27
HETATM   27  O   UNL     1       0.671  35.429  58.279  1.00  0.00    -0.343 OA
HETATM   28  H   UNL     1      -0.229  35.362  57.930  1.00  0.00     0.219 HD
ENDBRANCH   7  27
TORSDOF 6
ENDMDL
MODEL 10
REMARK VINA RESULT:      -6.2      7.890     10.059
REMARK  6 active torsions:
REMARK  status: ('A' for Active; 'I' for Inactive)
REMARK    1  A    between atoms: C_2  and  O_3 
REMARK    2  A    between atoms: O_3  and  C_4 
REMARK    3  A    between atoms: C_4  and  C_5 
REMARK    4  A    between atoms: C_6  and  O_7 
REMARK    5  A    between atoms: C_12  and  O_13 
REMARK    6  A    between atoms: C_17  and  C_18 
ROOT
HETATM    1  C   UNL     1       3.976  33.929  60.997  1.00  0.00     0.133 C 
HETATM    2  C   UNL     1       2.476  34.349  61.187  1.00  0.00     0.073 C 
HETATM    3  C   UNL     1       2.044  34.182  62.654  1.00  0.00     0.047 C 
HETATM    4  C   UNL     1       2.164  35.798  60.713  1.00  0.00     0.097 C 
HETATM    5  C   UNL     1       3.275  36.705  61.076  1.00  0.00     0.042 A 
HETATM    6  C   UNL     1       4.561  36.354  61.433  1.00  0.00     0.030 A 
HETATM    7  C   UNL     1       5.191  37.594  61.620  1.00  0.00     0.190 A 
HETATM    8  N   UNL     1       4.393  38.635  61.421  1.00  0.00    -0.149 NA
HETATM    9  N   UNL     1       3.221  38.069  61.080  1.00  0.00    -0.279 N 
HETATM   10  H   UNL     1       2.439  38.678  60.858  1.00  0.00     0.189 HD
HETATM   11  C   UNL     1       5.046  34.945  61.493  1.00  0.00     0.074 C 
ENDROOT
BRANCH  11  12
HETATM   12  C   UNL     1       5.569  34.640  62.894  1.00  0.00    -0.048 A 
HETATM   13  C   UNL     1       5.024  35.151  64.085  1.00  0.00     0.011 A 
HETATM   14  C   UNL     1       5.567  34.812  65.328  1.00  0.00     0.043 A 
HETATM   15  C   UNL     1       6.657  33.956  65.393  1.00  0.00     0.116 A 
HETATM   16  F   UNL     1       7.176  33.633  66.585  1.00  0.00    -0.206 F 
HETATM   17  C   UNL     1       7.215  33.430  64.237  1.00  0.00     0.043 A 
HETATM   18  C   UNL     1       6.674  33.768  62.996  1.00  0.00     0.011 A 
ENDBRANCH  11  12
BRANCH   1  19
HETATM   19  C   UNL     1       4.265  33.657  59.530  1.00  0.00     0.267 C 
HETATM   20  O   UNL     1       4.488  34.517  58.689  1.00  0.00    -0.265 OA
BRANCH  19  21
HETATM   21  O   UNL     1       4.209  32.316  59.288  1.00  0.00    -0.316 OA
BRANCH  21  22
HETATM   22  C   UNL     1       5.053  31.805  58.237  1.00  0.00     0.123 C 
HETATM   23  C   UNL     1       4.461  30.477  57.782  1.00  0.00     0.040 C 
HETATM   24  C   UNL     1       6.452  31.621  58.806  1.00  0.00     0.040 C 
ENDBRANCH  21  22
ENDBRANCH  19  21
ENDBRANCH   1  19
BRANCH   2  25
HETATM   25  O   UNL     1       1.627  33.431  60.468  1.00  0.00    -0.389 OA
HETATM   26  H   UNL     1       1.095  32.939  61.127  1.00  0.00     0.210 HD
ENDBRANCH   2  25
BRANCH   7  27
HETATM   27  O   UNL     1       6.447  37.866  61.981  1.00  0.00    -0.343 OA
HETATM   28  H   UNL     1       6.478  38.068  62.928  1.00  0.00     0.219 HD
ENDBRANCH   7  27
TORSDOF 6
ENDMDL
