MODEL 1
REMARK VINA RESULT:      -9.1      0.000      0.000
REMARK  7 active torsions:
REMARK  status: ('A' for Active; 'I' for Inactive)
REMARK    1  A    between atoms: C_4  and  C_5 
REMARK    2  A    between atoms: C_5  and  N_6 
REMARK       I    between atoms: N_6  and  C_7 
REMARK    3  A    between atoms: N_6  and  C_22 
REMARK    4  A    between atoms: C_7  and  C_8 
REMARK    5  A    between atoms: C_13  and  C_14 
REMARK    6  A    between atoms: C_15  and  O_16 
REMARK    7  A    between atoms: C_22  and  C_23 
ROOT
HETATM    1  N   UNL     1       6.093  26.121  54.828  1.00  0.00    -0.343 N 
HETATM    2  C   UNL     1       5.787  26.710  56.053  1.00  0.00     0.235 C 
HETATM    3  O   UNL     1       5.055  26.139  56.867  1.00  0.00    -0.272 OA
ENDROOT
BRANCH   2   4
HETATM    4  C   UNL     1       6.394  28.052  56.419  1.00  0.00     0.195 C 
HETATM    5  C   UNL     1       7.474  27.889  57.447  1.00  0.00     0.247 C 
HETATM    6  O   UNL     1       8.340  27.032  57.477  1.00  0.00    -0.271 OA
HETATM    7  N   UNL     1       7.376  28.957  58.317  1.00  0.00    -0.290 N 
HETATM    8  N   UNL     1       6.257  29.763  58.093  1.00  0.00    -0.228 NA
HETATM    9  H   UNL     1       7.952  29.006  59.154  1.00  0.00     0.183 HD
HETATM   10  C   UNL     1       5.396  28.964  57.166  1.00  0.00     0.134 C 
HETATM   11  H   UNL     1       6.587  30.592  57.579  1.00  0.00     0.147 HD
BRANCH  10  12
HETATM   12  C   UNL     1       4.519  29.869  56.307  1.00  0.00    -0.004 A 
HETATM   13  C   UNL     1       3.421  30.565  56.847  1.00  0.00     0.073 A 
HETATM   14  C   UNL     1       2.612  31.384  56.060  1.00  0.00     0.037 A 
HETATM   15  C   UNL     1       2.870  31.518  54.700  1.00  0.00     0.003 A 
HETATM   16  C   UNL     1       3.928  30.821  54.131  1.00  0.00     0.001 A 
HETATM   17  C   UNL     1       4.738  30.001  54.924  1.00  0.00     0.012 A 
BRANCH  13  18
HETATM   18  O   UNL     1       3.076  30.491  58.170  1.00  0.00    -0.360 OA
HETATM   19  H   UNL     1       2.909  31.395  58.503  1.00  0.00     0.217 HD
ENDBRANCH  13  18
ENDBRANCH  10  12
ENDBRANCH   2   4
BRANCH   1  20
HETATM   20  C   UNL     1       5.776  24.690  54.675  1.00  0.00     0.164 C 
BRANCH  20  21
HETATM   21  C   UNL     1       7.008  23.814  54.611  1.00  0.00    -0.040 A 
HETATM   22  C   UNL     1       7.324  23.111  53.440  1.00  0.00     0.009 A 
HETATM   23  C   UNL     1       8.450  22.289  53.391  1.00  0.00     0.001 A 
HETATM   24  C   UNL     1       9.275  22.166  54.508  1.00  0.00     0.000 A 
HETATM   25  C   UNL     1       8.977  22.868  55.674  1.00  0.00     0.001 A 
HETATM   26  C   UNL     1       7.851  23.691  55.726  1.00  0.00     0.009 A 
ENDBRANCH  20  21
ENDBRANCH   1  20
BRANCH   1  27
HETATM   27  C   UNL     1       6.881  26.752  53.757  1.00  0.00     0.164 C 
BRANCH  27  28
HETATM   28  C   UNL     1       6.112  27.024  52.483  1.00  0.00    -0.040 A 
HETATM   29  C   UNL     1       5.760  28.331  52.110  1.00  0.00     0.009 A 
HETATM   30  C   UNL     1       5.070  28.569  50.920  1.00  0.00     0.001 A 
HETATM   31  C   UNL     1       4.736  27.506  50.082  1.00  0.00     0.000 A 
HETATM   32  C   UNL     1       5.094  26.206  50.433  1.00  0.00     0.001 A 
HETATM   33  C   UNL     1       5.781  25.966  51.624  1.00  0.00     0.009 A 
ENDBRANCH  27  28
ENDBRANCH   1  27
TORSDOF 7
ENDMDL
MODEL 2
REMARK VINA RESULT:      -8.9      2.636      5.941
REMARK  7 active torsions:
REMARK  status: ('A' for Active; 'I' for Inactive)
REMARK    1  A    between atoms: C_4  and  C_5 
REMARK    2  A    between atoms: C_5  and  N_6 
REMARK       I    between atoms: N_6  and  C_7 
REMARK    3  A    between atoms: N_6  and  C_22 
REMARK    4  A    between atoms: C_7  and  C_8 
REMARK    5  A    between atoms: C_13  and  C_14 
REMARK    6  A    between atoms: C_15  and  O_16 
REMARK    7  A    between atoms: C_22  and  C_23 
ROOT
HETATM    1  N   UNL     1       5.001  27.771  51.435  1.00  0.00    -0.343 N 
HETATM    2  C   UNL     1       4.935  29.039  52.007  1.00  0.00     0.235 C 
HETATM    3  O   UNL     1       5.372  30.028  51.412  1.00  0.00    -0.272 OA
ENDROOT
BRANCH   2   4
HETATM    4  C   UNL     1       4.278  29.223  53.363  1.00  0.00     0.195 C 
HETATM    5  C   UNL     1       3.467  30.483  53.399  1.00  0.00     0.247 C 
HETATM    6  O   UNL     1       2.726  30.908  52.530  1.00  0.00    -0.271 OA
HETATM    7  N   UNL     1       3.631  31.042  54.651  1.00  0.00    -0.290 N 
HETATM    8  N   UNL     1       4.583  30.386  55.438  1.00  0.00    -0.228 NA
HETATM    9  H   UNL     1       3.246  31.957  54.872  1.00  0.00     0.183 HD
HETATM   10  C   UNL     1       5.308  29.490  54.484  1.00  0.00     0.134 C 
HETATM   11  H   UNL     1       4.063  29.789  56.096  1.00  0.00     0.147 HD
BRANCH  10  12
HETATM   12  C   UNL     1       5.878  28.268  55.196  1.00  0.00    -0.004 A 
HETATM   13  C   UNL     1       5.113  27.522  56.112  1.00  0.00     0.073 A 
HETATM   14  C   UNL     1       5.637  26.410  56.772  1.00  0.00     0.037 A 
HETATM   15  C   UNL     1       6.953  26.022  56.545  1.00  0.00     0.003 A 
HETATM   16  C   UNL     1       7.744  26.756  55.669  1.00  0.00     0.001 A 
HETATM   17  C   UNL     1       7.214  27.870  55.009  1.00  0.00     0.012 A 
BRANCH  13  18
HETATM   18  O   UNL     1       3.813  27.827  56.413  1.00  0.00    -0.360 OA
HETATM   19  H   UNL     1       3.469  27.163  57.042  1.00  0.00     0.217 HD
ENDBRANCH  13  18
ENDBRANCH  10  12
ENDBRANCH   2   4
BRANCH   1  20
HETATM   20  C   UNL     1       5.315  27.701  49.996  1.00  0.00     0.164 C 
BRANCH  20  21
HETATM   21  C   UNL     1       4.130  27.289  49.151  1.00  0.00    -0.040 A 
HETATM   22  C   UNL     1       2.948  28.043  49.163  1.00  0.00     0.009 A 
HETATM   23  C   UNL     1       1.850  27.649  48.397  1.00  0.00     0.001 A 
HETATM   24  C   UNL     1       1.923  26.503  47.609  1.00  0.00     0.000 A 
HETATM   25  C   UNL     1       3.095  25.750  47.582  1.00  0.00     0.001 A 
HETATM   26  C   UNL     1       4.195  26.142  48.346  1.00  0.00     0.009 A 
ENDBRANCH  20  21
ENDBRANCH   1  20
BRANCH   1  27
HETATM   27  C   UNL     1       4.589  26.520  52.093  1.00  0.00     0.164 C 
BRANCH  27  28
HETATM   28  C   UNL     1       5.731  25.602  52.474  1.00  0.00    -0.040 A 
HETATM   29  C   UNL     1       7.008  25.755  51.912  1.00  0.00     0.009 A 
HETATM   30  C   UNL     1       8.056  24.916  52.290  1.00  0.00     0.001 A 
HETATM   31  C   UNL     1       7.845  23.923  53.245  1.00  0.00     0.000 A 
HETATM   32  C   UNL     1       6.587  23.771  53.824  1.00  0.00     0.001 A 
HETATM   33  C   UNL     1       5.536  24.608  53.444  1.00  0.00     0.009 A 
ENDBRANCH  27  28
ENDBRANCH   1  27
TORSDOF 7
ENDMDL
MODEL 3
REMARK VINA RESULT:      -8.8      2.028      5.786
REMARK  7 active torsions:
REMARK  status: ('A' for Active; 'I' for Inactive)
REMARK    1  A    between atoms: C_4  and  C_5 
REMARK    2  A    between atoms: C_5  and  N_6 
REMARK       I    between atoms: N_6  and  C_7 
REMARK    3  A    between atoms: N_6  and  C_22 
REMARK    4  A    between atoms: C_7  and  C_8 
REMARK    5  A    between atoms: C_13  and  C_14 
REMARK    6  A    between atoms: C_15  and  O_16 
REMARK    7  A    between atoms: C_22  and  C_23 
ROOT
HETATM    1  N   UNL     1       4.449  29.056  53.424  1.00  0.00    -0.343 N 
HETATM    2  C   UNL     1       4.463  29.896  54.536  1.00  0.00     0.235 C 
HETATM    3  O   UNL     1       4.871  31.058  54.449  1.00  0.00    -0.272 OA
ENDROOT
BRANCH   2   4
HETATM    4  C   UNL     1       3.927  29.397  55.866  1.00  0.00     0.195 C 
HETATM    5  C   UNL     1       3.084  30.444  56.530  1.00  0.00     0.247 C 
HETATM    6  O   UNL     1       2.254  31.165  56.004  1.00  0.00    -0.271 OA
HETATM    7  N   UNL     1       3.345  30.382  57.885  1.00  0.00    -0.290 N 
HETATM    8  N   UNL     1       4.384  29.508  58.217  1.00  0.00    -0.228 NA
HETATM    9  H   UNL     1       2.953  31.067  58.526  1.00  0.00     0.183 HD
HETATM   10  C   UNL     1       5.046  29.196  56.912  1.00  0.00     0.134 C 
HETATM   11  H   UNL     1       3.945  28.643  58.561  1.00  0.00     0.147 HD
BRANCH  10  12
HETATM   12  C   UNL     1       5.716  27.827  56.944  1.00  0.00    -0.004 A 
HETATM   13  C   UNL     1       7.116  27.689  57.006  1.00  0.00     0.073 A 
HETATM   14  C   UNL     1       7.731  26.437  57.025  1.00  0.00     0.037 A 
HETATM   15  C   UNL     1       6.959  25.282  56.966  1.00  0.00     0.003 A 
HETATM   16  C   UNL     1       5.576  25.384  56.873  1.00  0.00     0.001 A 
HETATM   17  C   UNL     1       4.964  26.641  56.855  1.00  0.00     0.012 A 
BRANCH  13  18
HETATM   18  O   UNL     1       7.963  28.763  57.058  1.00  0.00    -0.360 OA
HETATM   19  H   UNL     1       8.653  28.589  57.728  1.00  0.00     0.217 HD
ENDBRANCH  13  18
ENDBRANCH  10  12
ENDBRANCH   2   4
BRANCH   1  20
HETATM   20  C   UNL     1       4.639  29.687  52.106  1.00  0.00     0.164 C 
BRANCH  20  21
HETATM   21  C   UNL     1       3.699  29.148  51.050  1.00  0.00    -0.040 A 
HETATM   22  C   UNL     1       4.162  28.263  50.066  1.00  0.00     0.009 A 
HETATM   23  C   UNL     1       3.296  27.783  49.083  1.00  0.00     0.001 A 
HETATM   24  C   UNL     1       1.960  28.177  49.076  1.00  0.00     0.000 A 
HETATM   25  C   UNL     1       1.485  29.048  50.054  1.00  0.00     0.001 A 
HETATM   26  C   UNL     1       2.349  29.530  51.040  1.00  0.00     0.009 A 
ENDBRANCH  20  21
ENDBRANCH   1  20
BRANCH   1  27
HETATM   27  C   UNL     1       4.065  27.635  53.438  1.00  0.00     0.164 C 
BRANCH  27  28
HETATM   28  C   UNL     1       5.223  26.667  53.323  1.00  0.00    -0.040 A 
HETATM   29  C   UNL     1       6.553  27.109  53.406  1.00  0.00     0.009 A 
HETATM   30  C   UNL     1       7.609  26.201  53.322  1.00  0.00     0.001 A 
HETATM   31  C   UNL     1       7.350  24.840  53.166  1.00  0.00     0.000 A 
HETATM   32  C   UNL     1       6.034  24.387  53.098  1.00  0.00     0.001 A 
HETATM   33  C   UNL     1       4.976  25.294  53.180  1.00  0.00     0.009 A 
ENDBRANCH  27  28
ENDBRANCH   1  27
TORSDOF 7
ENDMDL
MODEL 4
REMARK VINA RESULT:      -8.8      2.581      5.676
REMARK  7 active torsions:
REMARK  status: ('A' for Active; 'I' for Inactive)
REMARK    1  A    between atoms: C_4  and  C_5 
REMARK    2  A    between atoms: C_5  and  N_6 
REMARK       I    between atoms: N_6  and  C_7 
REMARK    3  A    between atoms: N_6  and  C_22 
REMARK    4  A    between atoms: C_7  and  C_8 
REMARK    5  A    between atoms: C_13  and  C_14 
REMARK    6  A    between atoms: C_15  and  O_16 
REMARK    7  A    between atoms: C_22  and  C_23 
ROOT
HETATM    1  N   UNL     1       6.886  27.909  55.690  1.00  0.00    -0.343 N 
HETATM    2  C   UNL     1       5.684  28.610  55.752  1.00  0.00     0.235 C 
HETATM    3  O   UNL     1       5.096  28.769  56.826  1.00  0.00    -0.272 OA
ENDROOT
BRANCH   2   4
HETATM    4  C   UNL     1       5.105  29.230  54.493  1.00  0.00     0.195 C 
HETATM    5  C   UNL     1       4.407  30.520  54.803  1.00  0.00     0.247 C 
HETATM    6  O   UNL     1       4.789  31.404  55.550  1.00  0.00    -0.271 OA
HETATM    7  N   UNL     1       3.281  30.580  54.006  1.00  0.00    -0.290 N 
HETATM    8  N   UNL     1       3.042  29.407  53.284  1.00  0.00    -0.228 NA
HETATM    9  H   UNL     1       2.600  31.328  54.114  1.00  0.00     0.183 HD
HETATM   10  C   UNL     1       3.949  28.391  53.903  1.00  0.00     0.134 C 
HETATM   11  H   UNL     1       3.371  29.578  52.323  1.00  0.00     0.147 HD
BRANCH  10  12
HETATM   12  C   UNL     1       4.331  27.306  52.901  1.00  0.00    -0.004 A 
HETATM   13  C   UNL     1       4.726  27.619  51.587  1.00  0.00     0.073 A 
HETATM   14  C   UNL     1       5.066  26.626  50.667  1.00  0.00     0.037 A 
HETATM   15  C   UNL     1       5.005  25.286  51.034  1.00  0.00     0.003 A 
HETATM   16  C   UNL     1       4.590  24.944  52.316  1.00  0.00     0.001 A 
HETATM   17  C   UNL     1       4.251  25.942  53.235  1.00  0.00     0.012 A 
BRANCH  13  18
HETATM   18  O   UNL     1       4.808  28.904  51.125  1.00  0.00    -0.360 OA
HETATM   19  H   UNL     1       4.483  28.930  50.203  1.00  0.00     0.217 HD
ENDBRANCH  13  18
ENDBRANCH  10  12
ENDBRANCH   2   4
BRANCH   1  20
HETATM   20  C   UNL     1       7.573  27.643  56.966  1.00  0.00     0.164 C 
BRANCH  20  21
HETATM   21  C   UNL     1       8.468  28.781  57.405  1.00  0.00    -0.040 A 
HETATM   22  C   UNL     1       9.688  29.019  56.757  1.00  0.00     0.009 A 
HETATM   23  C   UNL     1      10.521  30.058  57.177  1.00  0.00     0.001 A 
HETATM   24  C   UNL     1      10.141  30.870  58.243  1.00  0.00     0.000 A 
HETATM   25  C   UNL     1       8.926  30.649  58.889  1.00  0.00     0.001 A 
HETATM   26  C   UNL     1       8.091  29.612  58.471  1.00  0.00     0.009 A 
ENDBRANCH  20  21
ENDBRANCH   1  20
BRANCH   1  27
HETATM   27  C   UNL     1       7.620  27.591  54.454  1.00  0.00     0.164 C 
BRANCH  27  28
HETATM   28  C   UNL     1       7.669  26.118  54.110  1.00  0.00    -0.040 A 
HETATM   29  C   UNL     1       7.274  25.139  55.037  1.00  0.00     0.009 A 
HETATM   30  C   UNL     1       7.302  23.786  54.698  1.00  0.00     0.001 A 
HETATM   31  C   UNL     1       7.710  23.395  53.424  1.00  0.00     0.000 A 
HETATM   32  C   UNL     1       8.089  24.356  52.489  1.00  0.00     0.001 A 
HETATM   33  C   UNL     1       8.064  25.710  52.828  1.00  0.00     0.009 A 
ENDBRANCH  27  28
ENDBRANCH   1  27
TORSDOF 7
ENDMDL
MODEL 5
REMARK VINA RESULT:      -8.6      2.787      5.038
REMARK  7 active torsions:
REMARK  status: ('A' for Active; 'I' for Inactive)
REMARK    1  A    between atoms: C_4  and  C_5 
REMARK    2  A    between atoms: C_5  and  N_6 
REMARK       I    between atoms: N_6  and  C_7 
REMARK    3  A    between atoms: N_6  and  C_22 
REMARK    4  A    between atoms: C_7  and  C_8 
REMARK    5  A    between atoms: C_13  and  C_14 
REMARK    6  A    between atoms: C_15  and  O_16 
REMARK    7  A    between atoms: C_22  and  C_23 
ROOT
HETATM    1  N   UNL     1       6.205  27.909  56.510  1.00  0.00    -0.343 N 
HETATM    2  C   UNL     1       7.315  28.207  57.296  1.00  0.00     0.235 C 
HETATM    3  O   UNL     1       7.733  27.405  58.136  1.00  0.00    -0.272 OA
ENDROOT
BRANCH   2   4
HETATM    4  C   UNL     1       8.055  29.517  57.091  1.00  0.00     0.195 C 
HETATM    5  C   UNL     1       9.177  29.351  56.110  1.00  0.00     0.247 C 
HETATM    6  O   UNL     1       9.152  28.732  55.060  1.00  0.00    -0.271 OA
HETATM    7  N   UNL     1      10.234  30.115  56.561  1.00  0.00    -0.290 N 
HETATM    8  N   UNL     1      10.022  30.678  57.823  1.00  0.00    -0.228 NA
HETATM    9  H   UNL     1      11.140  30.082  56.100  1.00  0.00     0.183 HD
HETATM   10  C   UNL     1       8.821  29.963  58.357  1.00  0.00     0.134 C 
HETATM   11  H   UNL     1       9.759  31.661  57.669  1.00  0.00     0.147 HD
BRANCH  10  12
HETATM   12  C   UNL     1       8.056  30.831  59.350  1.00  0.00    -0.004 A 
HETATM   13  C   UNL     1       8.303  30.765  60.735  1.00  0.00     0.073 A 
HETATM   14  C   UNL     1       7.597  31.551  61.645  1.00  0.00     0.037 A 
HETATM   15  C   UNL     1       6.606  32.418  61.195  1.00  0.00     0.003 A 
HETATM   16  C   UNL     1       6.317  32.484  59.837  1.00  0.00     0.001 A 
HETATM   17  C   UNL     1       7.029  31.695  58.928  1.00  0.00     0.012 A 
BRANCH  13  18
HETATM   18  O   UNL     1       9.248  29.938  61.279  1.00  0.00    -0.360 OA
HETATM   19  H   UNL     1       9.685  30.402  62.020  1.00  0.00     0.217 HD
ENDBRANCH  13  18
ENDBRANCH  10  12
ENDBRANCH   2   4
BRANCH   1  20
HETATM   20  C   UNL     1       5.750  26.507  56.497  1.00  0.00     0.164 C 
BRANCH  20  21
HETATM   21  C   UNL     1       6.187  25.754  55.259  1.00  0.00    -0.040 A 
HETATM   22  C   UNL     1       7.510  25.311  55.123  1.00  0.00     0.009 A 
HETATM   23  C   UNL     1       7.913  24.635  53.970  1.00  0.00     0.001 A 
HETATM   24  C   UNL     1       6.999  24.389  52.948  1.00  0.00     0.000 A 
HETATM   25  C   UNL     1       5.679  24.816  53.076  1.00  0.00     0.001 A 
HETATM   26  C   UNL     1       5.272  25.492  54.228  1.00  0.00     0.009 A 
ENDBRANCH  20  21
ENDBRANCH   1  20
BRANCH   1  27
HETATM   27  C   UNL     1       5.577  28.826  55.544  1.00  0.00     0.164 C 
BRANCH  27  28
HETATM   28  C   UNL     1       4.884  30.019  56.165  1.00  0.00    -0.040 A 
HETATM   29  C   UNL     1       4.088  29.883  57.314  1.00  0.00     0.009 A 
HETATM   30  C   UNL     1       3.475  30.997  57.889  1.00  0.00     0.001 A 
HETATM   31  C   UNL     1       3.660  32.261  57.332  1.00  0.00     0.000 A 
HETATM   32  C   UNL     1       4.460  32.412  56.202  1.00  0.00     0.001 A 
HETATM   33  C   UNL     1       5.073  31.299  55.623  1.00  0.00     0.009 A 
ENDBRANCH  27  28
ENDBRANCH   1  27
TORSDOF 7
ENDMDL
MODEL 6
REMARK VINA RESULT:      -8.6      2.614      5.210
REMARK  7 active torsions:
REMARK  status: ('A' for Active; 'I' for Inactive)
REMARK    1  A    between atoms: C_4  and  C_5 
REMARK    2  A    between atoms: C_5  and  N_6 
REMARK       I    between atoms: N_6  and  C_7 
REMARK    3  A    between atoms: N_6  and  C_22 
REMARK    4  A    between atoms: C_7  and  C_8 
REMARK    5  A    between atoms: C_13  and  C_14 
REMARK    6  A    between atoms: C_15  and  O_16 
REMARK    7  A    between atoms: C_22  and  C_23 
ROOT
HETATM    1  N   UNL     1       6.936  27.424  54.656  1.00  0.00    -0.343 N 
HETATM    2  C   UNL     1       5.580  27.609  54.397  1.00  0.00     0.235 C 
HETATM    3  O   UNL     1       4.766  26.701  54.594  1.00  0.00    -0.272 OA
ENDROOT
BRANCH   2   4
HETATM    4  C   UNL     1       5.081  28.956  53.908  1.00  0.00     0.195 C 
HETATM    5  C   UNL     1       4.261  29.639  54.962  1.00  0.00     0.247 C 
HETATM    6  O   UNL     1       4.503  29.706  56.155  1.00  0.00    -0.271 OA
HETATM    7  N   UNL     1       3.216  30.275  54.322  1.00  0.00    -0.290 N 
HETATM    8  N   UNL     1       3.137  29.988  52.957  1.00  0.00    -0.228 NA
HETATM    9  H   UNL     1       2.474  30.727  54.851  1.00  0.00     0.183 HD
HETATM   10  C   UNL     1       4.053  28.822  52.762  1.00  0.00     0.134 C 
HETATM   11  H   UNL     1       3.543  30.793  52.460  1.00  0.00     0.147 HD
BRANCH  10  12
HETATM   12  C   UNL     1       4.610  28.785  51.343  1.00  0.00    -0.004 A 
HETATM   13  C   UNL     1       5.215  29.913  50.756  1.00  0.00     0.073 A 
HETATM   14  C   UNL     1       5.715  29.884  49.455  1.00  0.00     0.037 A 
HETATM   15  C   UNL     1       5.610  28.724  48.694  1.00  0.00     0.003 A 
HETATM   16  C   UNL     1       4.991  27.603  49.233  1.00  0.00     0.001 A 
HETATM   17  C   UNL     1       4.491  27.637  50.539  1.00  0.00     0.012 A 
BRANCH  13  18
HETATM   18  O   UNL     1       5.358  31.103  51.417  1.00  0.00    -0.360 OA
HETATM   19  H   UNL     1       4.866  31.058  52.260  1.00  0.00     0.217 HD
ENDBRANCH  13  18
ENDBRANCH  10  12
ENDBRANCH   2   4
BRANCH   1  20
HETATM   20  C   UNL     1       7.311  26.242  55.453  1.00  0.00     0.164 C 
BRANCH  20  21
HETATM   21  C   UNL     1       7.503  24.999  54.613  1.00  0.00    -0.040 A 
HETATM   22  C   UNL     1       7.418  23.725  55.193  1.00  0.00     0.009 A 
HETATM   23  C   UNL     1       7.615  22.581  54.418  1.00  0.00     0.001 A 
HETATM   24  C   UNL     1       7.893  22.698  53.058  1.00  0.00     0.000 A 
HETATM   25  C   UNL     1       7.970  23.958  52.468  1.00  0.00     0.001 A 
HETATM   26  C   UNL     1       7.773  25.104  53.240  1.00  0.00     0.009 A 
ENDBRANCH  20  21
ENDBRANCH   1  20
BRANCH   1  27
HETATM   27  C   UNL     1       7.995  28.407  54.376  1.00  0.00     0.164 C 
BRANCH  27  28
HETATM   28  C   UNL     1       8.616  29.036  55.605  1.00  0.00    -0.040 A 
HETATM   29  C   UNL     1       7.882  29.192  56.793  1.00  0.00     0.009 A 
HETATM   30  C   UNL     1       8.475  29.751  57.925  1.00  0.00     0.001 A 
HETATM   31  C   UNL     1       9.810  30.148  57.890  1.00  0.00     0.000 A 
HETATM   32  C   UNL     1      10.554  29.984  56.723  1.00  0.00     0.001 A 
HETATM   33  C   UNL     1       9.962  29.427  55.588  1.00  0.00     0.009 A 
ENDBRANCH  27  28
ENDBRANCH   1  27
TORSDOF 7
ENDMDL
MODEL 7
REMARK VINA RESULT:      -8.6      2.508      5.309
REMARK  7 active torsions:
REMARK  status: ('A' for Active; 'I' for Inactive)
REMARK    1  A    between atoms: C_4  and  C_5 
REMARK    2  A    between atoms: C_5  and  N_6 
REMARK       I    between atoms: N_6  and  C_7 
REMARK    3  A    between atoms: N_6  and  C_22 
REMARK    4  A    between atoms: C_7  and  C_8 
REMARK    5  A    between atoms: C_13  and  C_14 
REMARK    6  A    between atoms: C_15  and  O_16 
REMARK    7  A    between atoms: C_22  and  C_23 
ROOT
HETATM    1  N   UNL     1       6.872  27.395  54.491  1.00  0.00    -0.343 N 
HETATM    2  C   UNL     1       5.529  27.528  54.146  1.00  0.00     0.235 C 
HETATM    3  O   UNL     1       4.733  26.601  54.323  1.00  0.00    -0.272 OA
ENDROOT
BRANCH   2   4
HETATM    4  C   UNL     1       5.019  28.843  53.585  1.00  0.00     0.195 C 
HETATM    5  C   UNL     1       4.316  29.640  54.643  1.00  0.00     0.247 C 
HETATM    6  O   UNL     1       4.667  29.802  55.799  1.00  0.00    -0.271 OA
HETATM    7  N   UNL     1       3.232  30.251  54.044  1.00  0.00    -0.290 N 
HETATM    8  N   UNL     1       3.022  29.850  52.722  1.00  0.00    -0.228 NA
HETATM    9  H   UNL     1       2.553  30.771  54.594  1.00  0.00     0.183 HD
HETATM   10  C   UNL     1       3.888  28.643  52.552  1.00  0.00     0.134 C 
HETATM   11  H   UNL     1       3.400  30.595  52.122  1.00  0.00     0.147 HD
BRANCH  10  12
HETATM   12  C   UNL     1       4.313  28.466  51.097  1.00  0.00    -0.004 A 
HETATM   13  C   UNL     1       4.618  27.199  50.564  1.00  0.00     0.073 A 
HETATM   14  C   UNL     1       5.016  27.038  49.237  1.00  0.00     0.037 A 
HETATM   15  C   UNL     1       5.136  28.147  48.406  1.00  0.00     0.003 A 
HETATM   16  C   UNL     1       4.871  29.414  48.911  1.00  0.00     0.001 A 
HETATM   17  C   UNL     1       4.472  29.572  50.242  1.00  0.00     0.012 A 
BRANCH  13  18
HETATM   18  O   UNL     1       4.541  26.049  51.301  1.00  0.00    -0.360 OA
HETATM   19  H   UNL     1       5.293  25.471  51.064  1.00  0.00     0.217 HD
ENDBRANCH  13  18
ENDBRANCH  10  12
ENDBRANCH   2   4
BRANCH   1  20
HETATM   20  C   UNL     1       7.234  26.250  55.346  1.00  0.00     0.164 C 
BRANCH  20  21
HETATM   21  C   UNL     1       7.468  24.977  54.562  1.00  0.00    -0.040 A 
HETATM   22  C   UNL     1       7.724  25.024  53.185  1.00  0.00     0.009 A 
HETATM   23  C   UNL     1       7.920  23.846  52.462  1.00  0.00     0.001 A 
HETATM   24  C   UNL     1       7.866  22.613  53.108  1.00  0.00     0.000 A 
HETATM   25  C   UNL     1       7.621  22.554  54.478  1.00  0.00     0.001 A 
HETATM   26  C   UNL     1       7.426  23.730  55.204  1.00  0.00     0.009 A 
ENDBRANCH  20  21
ENDBRANCH   1  20
BRANCH   1  27
HETATM   27  C   UNL     1       7.916  28.403  54.243  1.00  0.00     0.164 C 
BRANCH  27  28
HETATM   28  C   UNL     1       8.546  28.981  55.491  1.00  0.00    -0.040 A 
HETATM   29  C   UNL     1       7.824  29.082  56.692  1.00  0.00     0.009 A 
HETATM   30  C   UNL     1       8.425  29.595  57.841  1.00  0.00     0.001 A 
HETATM   31  C   UNL     1       9.758  30.001  57.810  1.00  0.00     0.000 A 
HETATM   32  C   UNL     1      10.491  29.891  56.630  1.00  0.00     0.001 A 
HETATM   33  C   UNL     1       9.890  29.380  55.478  1.00  0.00     0.009 A 
ENDBRANCH  27  28
ENDBRANCH   1  27
TORSDOF 7
ENDMDL
MODEL 8
REMARK VINA RESULT:      -8.5      2.427      3.624
REMARK  7 active torsions:
REMARK  status: ('A' for Active; 'I' for Inactive)
REMARK    1  A    between atoms: C_4  and  C_5 
REMARK    2  A    between atoms: C_5  and  N_6 
REMARK       I    between atoms: N_6  and  C_7 
REMARK    3  A    between atoms: N_6  and  C_22 
REMARK    4  A    between atoms: C_7  and  C_8 
REMARK    5  A    between atoms: C_13  and  C_14 
REMARK    6  A    between atoms: C_15  and  O_16 
REMARK    7  A    between atoms: C_22  and  C_23 
ROOT
HETATM    1  N   UNL     1       7.072  25.173  55.010  1.00  0.00    -0.343 N 
HETATM    2  C   UNL     1       7.707  25.561  56.187  1.00  0.00     0.235 C 
HETATM    3  O   UNL     1       8.823  25.121  56.482  1.00  0.00    -0.272 OA
ENDROOT
BRANCH   2   4
HETATM    4  C   UNL     1       7.046  26.573  57.105  1.00  0.00     0.195 C 
HETATM    5  C   UNL     1       5.574  26.309  57.222  1.00  0.00     0.247 C 
HETATM    6  O   UNL     1       5.028  25.228  57.353  1.00  0.00    -0.271 OA
HETATM    7  N   UNL     1       4.939  27.534  57.256  1.00  0.00    -0.290 N 
HETATM    8  N   UNL     1       5.793  28.616  57.027  1.00  0.00    -0.228 NA
HETATM    9  H   UNL     1       3.924  27.600  57.238  1.00  0.00     0.183 HD
HETATM   10  C   UNL     1       7.053  27.999  56.509  1.00  0.00     0.134 C 
HETATM   11  H   UNL     1       6.001  29.030  57.946  1.00  0.00     0.147 HD
BRANCH  10  12
HETATM   12  C   UNL     1       8.267  28.867  56.825  1.00  0.00    -0.004 A 
HETATM   13  C   UNL     1       8.447  29.454  58.092  1.00  0.00     0.073 A 
HETATM   14  C   UNL     1       9.551  30.256  58.379  1.00  0.00     0.037 A 
HETATM   15  C   UNL     1      10.502  30.510  57.397  1.00  0.00     0.003 A 
HETATM   16  C   UNL     1      10.338  29.970  56.127  1.00  0.00     0.001 A 
HETATM   17  C   UNL     1       9.229  29.165  55.843  1.00  0.00     0.012 A 
BRANCH  13  18
HETATM   18  O   UNL     1       7.564  29.275  59.122  1.00  0.00    -0.360 OA
HETATM   19  H   UNL     1       7.097  30.118  59.288  1.00  0.00     0.217 HD
ENDBRANCH  13  18
ENDBRANCH  10  12
ENDBRANCH   2   4
BRANCH   1  20
HETATM   20  C   UNL     1       7.894  24.482  54.001  1.00  0.00     0.164 C 
BRANCH  20  21
HETATM   21  C   UNL     1       7.853  22.975  54.136  1.00  0.00    -0.040 A 
HETATM   22  C   UNL     1       7.683  22.376  55.391  1.00  0.00     0.009 A 
HETATM   23  C   UNL     1       7.665  20.985  55.514  1.00  0.00     0.001 A 
HETATM   24  C   UNL     1       7.813  20.182  54.385  1.00  0.00     0.000 A 
HETATM   25  C   UNL     1       7.973  20.767  53.130  1.00  0.00     0.001 A 
HETATM   26  C   UNL     1       7.991  22.157  53.004  1.00  0.00     0.009 A 
ENDBRANCH  20  21
ENDBRANCH   1  20
BRANCH   1  27
HETATM   27  C   UNL     1       5.712  25.570  54.609  1.00  0.00     0.164 C 
BRANCH  27  28
HETATM   28  C   UNL     1       5.608  26.153  53.216  1.00  0.00    -0.040 A 
HETATM   29  C   UNL     1       5.240  25.357  52.119  1.00  0.00     0.009 A 
HETATM   30  C   UNL     1       5.126  25.913  50.845  1.00  0.00     0.001 A 
HETATM   31  C   UNL     1       5.365  27.273  50.653  1.00  0.00     0.000 A 
HETATM   32  C   UNL     1       5.715  28.077  51.735  1.00  0.00     0.001 A 
HETATM   33  C   UNL     1       5.832  27.522  53.011  1.00  0.00     0.009 A 
ENDBRANCH  27  28
ENDBRANCH   1  27
TORSDOF 7
ENDMDL
MODEL 9
REMARK VINA RESULT:      -8.3      2.001      2.724
REMARK  7 active torsions:
REMARK  status: ('A' for Active; 'I' for Inactive)
REMARK    1  A    between atoms: C_4  and  C_5 
REMARK    2  A    between atoms: C_5  and  N_6 
REMARK       I    between atoms: N_6  and  C_7 
REMARK    3  A    between atoms: N_6  and  C_22 
REMARK    4  A    between atoms: C_7  and  C_8 
REMARK    5  A    between atoms: C_13  and  C_14 
REMARK    6  A    between atoms: C_15  and  O_16 
REMARK    7  A    between atoms: C_22  and  C_23 
ROOT
HETATM    1  N   UNL     1       5.777  25.950  53.202  1.00  0.00    -0.343 N 
HETATM    2  C   UNL     1       5.375  26.859  54.179  1.00  0.00     0.235 C 
HETATM    3  O   UNL     1       4.679  26.499  55.133  1.00  0.00    -0.272 OA
ENDROOT
BRANCH   2   4
HETATM    4  C   UNL     1       5.833  28.304  54.101  1.00  0.00     0.195 C 
HETATM    5  C   UNL     1       6.741  28.641  55.245  1.00  0.00     0.247 C 
HETATM    6  O   UNL     1       7.641  27.956  55.699  1.00  0.00    -0.271 OA
HETATM    7  N   UNL     1       6.441  29.929  55.643  1.00  0.00    -0.290 N 
HETATM    8  N   UNL     1       5.325  30.469  54.997  1.00  0.00    -0.228 NA
HETATM    9  H   UNL     1       6.870  30.337  56.470  1.00  0.00     0.183 HD
HETATM   10  C   UNL     1       4.674  29.301  54.327  1.00  0.00     0.134 C 
HETATM   11  H   UNL     1       5.682  31.094  54.261  1.00  0.00     0.147 HD
BRANCH  10  12
HETATM   12  C   UNL     1       3.893  29.735  53.091  1.00  0.00    -0.004 A 
HETATM   13  C   UNL     1       4.005  31.036  52.565  1.00  0.00     0.073 A 
HETATM   14  C   UNL     1       3.283  31.437  51.440  1.00  0.00     0.037 A 
HETATM   15  C   UNL     1       2.413  30.549  50.817  1.00  0.00     0.003 A 
HETATM   16  C   UNL     1       2.258  29.267  51.331  1.00  0.00     0.001 A 
HETATM   17  C   UNL     1       2.984  28.868  52.458  1.00  0.00     0.012 A 
BRANCH  13  18
HETATM   18  O   UNL     1       4.824  31.987  53.110  1.00  0.00    -0.360 OA
HETATM   19  H   UNL     1       4.722  32.818  52.606  1.00  0.00     0.217 HD
ENDBRANCH  13  18
ENDBRANCH  10  12
ENDBRANCH   2   4
BRANCH   1  20
HETATM   20  C   UNL     1       5.610  24.519  53.510  1.00  0.00     0.164 C 
BRANCH  20  21
HETATM   21  C   UNL     1       6.882  23.868  54.007  1.00  0.00    -0.040 A 
HETATM   22  C   UNL     1       7.409  24.199  55.264  1.00  0.00     0.009 A 
HETATM   23  C   UNL     1       8.593  23.612  55.711  1.00  0.00     0.001 A 
HETATM   24  C   UNL     1       9.259  22.685  54.911  1.00  0.00     0.000 A 
HETATM   25  C   UNL     1       8.740  22.340  53.665  1.00  0.00     0.001 A 
HETATM   26  C   UNL     1       7.555  22.926  53.215  1.00  0.00     0.009 A 
ENDBRANCH  20  21
ENDBRANCH   1  20
BRANCH   1  27
HETATM   27  C   UNL     1       6.531  26.291  51.985  1.00  0.00     0.164 C 
BRANCH  27  28
HETATM   28  C   UNL     1       5.682  26.789  50.835  1.00  0.00    -0.040 A 
HETATM   29  C   UNL     1       5.818  28.098  50.343  1.00  0.00     0.009 A 
HETATM   30  C   UNL     1       5.045  28.535  49.267  1.00  0.00     0.001 A 
HETATM   31  C   UNL     1       4.138  27.668  48.660  1.00  0.00     0.000 A 
HETATM   32  C   UNL     1       4.005  26.362  49.129  1.00  0.00     0.001 A 
HETATM   33  C   UNL     1       4.775  25.923  50.207  1.00  0.00     0.009 A 
ENDBRANCH  27  28
ENDBRANCH   1  27
TORSDOF 7
ENDMDL
MODEL 10
REMARK VINA RESULT:      -8.1      3.253      7.403
REMARK  7 active torsions:
REMARK  status: ('A' for Active; 'I' for Inactive)
REMARK    1  A    between atoms: C_4  and  C_5 
REMARK    2  A    between atoms: C_5  and  N_6 
REMARK       I    between atoms: N_6  and  C_7 
REMARK    3  A    between atoms: N_6  and  C_22 
REMARK    4  A    between atoms: C_7  and  C_8 
REMARK    5  A    between atoms: C_13  and  C_14 
REMARK    6  A    between atoms: C_15  and  O_16 
REMARK    7  A    between atoms: C_22  and  C_23 
ROOT
HETATM    1  N   UNL     1       5.386  27.858  49.844  1.00  0.00    -0.343 N 
HETATM    2  C   UNL     1       5.490  28.270  51.170  1.00  0.00     0.235 C 
HETATM    3  O   UNL     1       6.114  29.292  51.471  1.00  0.00    -0.272 OA
ENDROOT
BRANCH   2   4
HETATM    4  C   UNL     1       4.789  27.482  52.263  1.00  0.00     0.195 C 
HETATM    5  C   UNL     1       3.690  28.290  52.885  1.00  0.00     0.247 C 
HETATM    6  O   UNL     1       2.878  28.995  52.311  1.00  0.00    -0.271 OA
HETATM    7  N   UNL     1       3.693  28.015  54.238  1.00  0.00    -0.290 N 
HETATM    8  N   UNL     1       4.768  27.219  54.646  1.00  0.00    -0.228 NA
HETATM    9  H   UNL     1       3.090  28.524  54.879  1.00  0.00     0.183 HD
HETATM   10  C   UNL     1       5.705  27.224  53.480  1.00  0.00     0.134 C 
HETATM   11  H   UNL     1       4.404  26.262  54.752  1.00  0.00     0.147 HD
BRANCH  10  12
HETATM   12  C   UNL     1       6.552  25.956  53.444  1.00  0.00    -0.004 A 
HETATM   13  C   UNL     1       7.143  25.429  54.608  1.00  0.00     0.073 A 
HETATM   14  C   UNL     1       7.927  24.275  54.574  1.00  0.00     0.037 A 
HETATM   15  C   UNL     1       8.155  23.623  53.367  1.00  0.00     0.003 A 
HETATM   16  C   UNL     1       7.610  24.136  52.196  1.00  0.00     0.001 A 
HETATM   17  C   UNL     1       6.825  25.293  52.234  1.00  0.00     0.012 A 
BRANCH  13  18
HETATM   18  O   UNL     1       6.989  26.000  55.841  1.00  0.00    -0.360 OA
HETATM   19  H   UNL     1       6.883  25.293  56.507  1.00  0.00     0.217 HD
ENDBRANCH  13  18
ENDBRANCH  10  12
ENDBRANCH   2   4
BRANCH   1  20
HETATM   20  C   UNL     1       5.771  28.833  48.808  1.00  0.00     0.164 C 
BRANCH  20  21
HETATM   21  C   UNL     1       4.620  29.707  48.360  1.00  0.00    -0.040 A 
HETATM   22  C   UNL     1       3.914  30.487  49.287  1.00  0.00     0.009 A 
HETATM   23  C   UNL     1       2.840  31.276  48.874  1.00  0.00     0.001 A 
HETATM   24  C   UNL     1       2.465  31.299  47.532  1.00  0.00     0.000 A 
HETATM   25  C   UNL     1       3.165  30.536  46.600  1.00  0.00     0.001 A 
HETATM   26  C   UNL     1       4.240  29.746  47.010  1.00  0.00     0.009 A 
ENDBRANCH  20  21
ENDBRANCH   1  20
BRANCH   1  27
HETATM   27  C   UNL     1       4.741  26.615  49.389  1.00  0.00     0.164 C 
BRANCH  27  28
HETATM   28  C   UNL     1       3.422  26.813  48.675  1.00  0.00    -0.040 A 
HETATM   29  C   UNL     1       2.380  27.550  49.261  1.00  0.00     0.009 A 
HETATM   30  C   UNL     1       1.177  27.744  48.581  1.00  0.00     0.001 A 
HETATM   31  C   UNL     1       1.005  27.216  47.302  1.00  0.00     0.000 A 
HETATM   32  C   UNL     1       2.037  26.496  46.703  1.00  0.00     0.001 A 
HETATM   33  C   UNL     1       3.240  26.299  47.382  1.00  0.00     0.009 A 
ENDBRANCH  27  28
ENDBRANCH   1  27
TORSDOF 7
ENDMDL
