MODEL 1
REMARK VINA RESULT:      -8.9      0.000      0.000
REMARK  4 active torsions:
REMARK  status: ('A' for Active; 'I' for Inactive)
REMARK    1  A    between atoms: C_4  and  C_5 
REMARK    2  A    between atoms: C_8  and  C_9 
REMARK    3  A    between atoms: C_9  and  N_10 
REMARK       I    between atoms: N_10  and  C_11 
REMARK       I    between atoms: C_11  and  N_12 
REMARK    4  A    between atoms: N_12  and  C_13 
ROOT
HETATM    1  C   UNL     1       7.970  29.288  56.633  1.00  0.00     0.213 C 
ENDROOT
BRANCH   1   2
HETATM    2  C   UNL     1       7.890  27.822  56.839  1.00  0.00     0.190 A 
HETATM    3  O   UNL     1       7.960  27.382  58.127  1.00  0.00    -0.194 OA
HETATM    4  N   UNL     1       7.952  25.992  58.071  1.00  0.00    -0.106 NA
HETATM    5  C   UNL     1       7.875  25.721  56.757  1.00  0.00     0.189 A 
HETATM    6  N   UNL     1       7.826  26.847  55.959  1.00  0.00    -0.202 NA
BRANCH   5   7
HETATM    7  C   UNL     1       7.874  24.369  56.206  1.00  0.00     0.014 A 
HETATM    8  C   UNL     1       8.341  23.280  56.959  1.00  0.00     0.015 A 
HETATM    9  C   UNL     1       8.347  21.990  56.420  1.00  0.00     0.001 A 
HETATM   10  C   UNL     1       7.886  21.775  55.123  1.00  0.00     0.000 A 
HETATM   11  C   UNL     1       7.420  22.845  54.363  1.00  0.00     0.001 A 
HETATM   12  C   UNL     1       7.414  24.136  54.901  1.00  0.00     0.015 A 
ENDBRANCH   5   7
ENDBRANCH   1   2
BRANCH   1  13
HETATM   13  N   UNL     1       8.372  29.955  57.855  1.00  0.00    -0.335 N 
HETATM   14  C   UNL     1       9.586  30.555  57.961  1.00  0.00     0.321 C 
HETATM   15  N   UNL     1       9.820  31.321  59.061  1.00  0.00    -0.309 N 
HETATM   16  O   UNL     1      10.434  30.503  57.074  1.00  0.00    -0.247 OA
HETATM   17  H   UNL     1      10.628  31.917  58.921  1.00  0.00     0.170 HD
HETATM   18  H   UNL     1       7.634  30.318  58.438  1.00  0.00     0.164 HD
BRANCH  15  19
HETATM   19  C   UNL     1       9.167  31.437  60.300  1.00  0.00     0.036 A 
HETATM   20  C   UNL     1       9.330  30.539  61.357  1.00  0.00     0.029 A 
HETATM   21  C   UNL     1       8.638  30.730  62.556  1.00  0.00     0.002 A 
HETATM   22  C   UNL     1       7.788  31.824  62.713  1.00  0.00     0.000 A 
HETATM   23  C   UNL     1       7.648  32.743  61.677  1.00  0.00     0.002 A 
HETATM   24  C   UNL     1       8.345  32.557  60.482  1.00  0.00     0.029 A 
ENDBRANCH  15  19
ENDBRANCH   1  13
TORSDOF 4
ENDMDL
MODEL 2
REMARK VINA RESULT:      -8.8      2.772      4.120
REMARK  4 active torsions:
REMARK  status: ('A' for Active; 'I' for Inactive)
REMARK    1  A    between atoms: C_4  and  C_5 
REMARK    2  A    between atoms: C_8  and  C_9 
REMARK    3  A    between atoms: C_9  and  N_10 
REMARK       I    between atoms: N_10  and  C_11 
REMARK       I    between atoms: C_11  and  N_12 
REMARK    4  A    between atoms: N_12  and  C_13 
ROOT
HETATM    1  C   UNL     1       6.098  27.670  54.400  1.00  0.00     0.213 C 
ENDROOT
BRANCH   1   2
HETATM    2  C   UNL     1       6.681  26.377  53.968  1.00  0.00     0.190 A 
HETATM    3  O   UNL     1       7.052  26.281  52.660  1.00  0.00    -0.194 OA
HETATM    4  N   UNL     1       7.485  24.973  52.466  1.00  0.00    -0.106 NA
HETATM    5  C   UNL     1       7.338  24.401  53.672  1.00  0.00     0.189 A 
HETATM    6  N   UNL     1       6.844  25.257  54.638  1.00  0.00    -0.202 NA
BRANCH   5   7
HETATM    7  C   UNL     1       7.638  22.999  53.948  1.00  0.00     0.014 A 
HETATM    8  C   UNL     1       7.968  22.112  52.911  1.00  0.00     0.015 A 
HETATM    9  C   UNL     1       8.243  20.769  53.181  1.00  0.00     0.001 A 
HETATM   10  C   UNL     1       8.191  20.296  54.491  1.00  0.00     0.000 A 
HETATM   11  C   UNL     1       7.865  21.164  55.530  1.00  0.00     0.001 A 
HETATM   12  C   UNL     1       7.589  22.508  55.261  1.00  0.00     0.015 A 
ENDBRANCH   5   7
ENDBRANCH   1   2
BRANCH   1  13
HETATM   13  N   UNL     1       6.858  28.230  55.500  1.00  0.00    -0.335 N 
HETATM   14  C   UNL     1       6.475  28.038  56.789  1.00  0.00     0.321 C 
HETATM   15  N   UNL     1       7.334  28.427  57.770  1.00  0.00    -0.309 N 
HETATM   16  O   UNL     1       5.438  27.456  57.095  1.00  0.00    -0.247 OA
HETATM   17  H   UNL     1       7.079  28.013  58.659  1.00  0.00     0.170 HD
HETATM   18  H   UNL     1       7.840  28.391  55.337  1.00  0.00     0.164 HD
BRANCH  15  19
HETATM   19  C   UNL     1       8.468  29.258  57.771  1.00  0.00     0.036 A 
HETATM   20  C   UNL     1       8.556  30.461  58.474  1.00  0.00     0.029 A 
HETATM   21  C   UNL     1       9.724  31.227  58.417  1.00  0.00     0.002 A 
HETATM   22  C   UNL     1      10.815  30.791  57.668  1.00  0.00     0.000 A 
HETATM   23  C   UNL     1      10.749  29.575  56.994  1.00  0.00     0.002 A 
HETATM   24  C   UNL     1       9.585  28.807  57.057  1.00  0.00     0.029 A 
ENDBRANCH  15  19
ENDBRANCH   1  13
TORSDOF 4
ENDMDL
MODEL 3
REMARK VINA RESULT:      -8.8      6.855      9.319
REMARK  4 active torsions:
REMARK  status: ('A' for Active; 'I' for Inactive)
REMARK    1  A    between atoms: C_4  and  C_5 
REMARK    2  A    between atoms: C_8  and  C_9 
REMARK    3  A    between atoms: C_9  and  N_10 
REMARK       I    between atoms: N_10  and  C_11 
REMARK       I    between atoms: C_11  and  N_12 
REMARK    4  A    between atoms: N_12  and  C_13 
ROOT
HETATM    1  C   UNL     1       4.938  26.828  53.182  1.00  0.00     0.213 C 
ENDROOT
BRANCH   1   2
HETATM    2  C   UNL     1       5.983  25.779  53.255  1.00  0.00     0.190 A 
HETATM    3  O   UNL     1       7.117  25.994  52.532  1.00  0.00    -0.194 OA
HETATM    4  N   UNL     1       7.905  24.857  52.682  1.00  0.00    -0.106 NA
HETATM    5  C   UNL     1       7.176  24.062  53.483  1.00  0.00     0.189 A 
HETATM    6  N   UNL     1       5.969  24.614  53.867  1.00  0.00    -0.202 NA
BRANCH   5   7
HETATM    7  C   UNL     1       7.591  22.723  53.894  1.00  0.00     0.014 A 
HETATM    8  C   UNL     1       7.979  21.763  52.946  1.00  0.00     0.015 A 
HETATM    9  C   UNL     1       8.365  20.481  53.347  1.00  0.00     0.001 A 
HETATM   10  C   UNL     1       8.366  20.143  54.699  1.00  0.00     0.000 A 
HETATM   11  C   UNL     1       7.982  21.085  55.650  1.00  0.00     0.001 A 
HETATM   12  C   UNL     1       7.597  22.368  55.252  1.00  0.00     0.015 A 
ENDBRANCH   5   7
ENDBRANCH   1   2
BRANCH   1  13
HETATM   13  N   UNL     1       4.548  27.066  51.807  1.00  0.00    -0.335 N 
HETATM   14  C   UNL     1       4.989  28.158  51.130  1.00  0.00     0.321 C 
HETATM   15  N   UNL     1       4.739  28.218  49.794  1.00  0.00    -0.309 N 
HETATM   16  O   UNL     1       5.667  29.037  51.655  1.00  0.00    -0.247 OA
HETATM   17  H   UNL     1       5.319  28.921  49.350  1.00  0.00     0.170 HD
HETATM   18  H   UNL     1       4.310  26.255  51.256  1.00  0.00     0.164 HD
BRANCH  15  19
HETATM   19  C   UNL     1       3.866  27.507  48.953  1.00  0.00     0.036 A 
HETATM   20  C   UNL     1       4.229  26.367  48.232  1.00  0.00     0.029 A 
HETATM   21  C   UNL     1       3.295  25.722  47.417  1.00  0.00     0.002 A 
HETATM   22  C   UNL     1       1.990  26.202  47.326  1.00  0.00     0.000 A 
HETATM   23  C   UNL     1       1.610  27.315  48.070  1.00  0.00     0.002 A 
HETATM   24  C   UNL     1       2.541  27.956  48.890  1.00  0.00     0.029 A 
ENDBRANCH  15  19
ENDBRANCH   1  13
TORSDOF 4
ENDMDL
MODEL 4
REMARK VINA RESULT:      -8.4      1.829      2.312
REMARK  4 active torsions:
REMARK  status: ('A' for Active; 'I' for Inactive)
REMARK    1  A    between atoms: C_4  and  C_5 
REMARK    2  A    between atoms: C_8  and  C_9 
REMARK    3  A    between atoms: C_9  and  N_10 
REMARK       I    between atoms: N_10  and  C_11 
REMARK       I    between atoms: C_11  and  N_12 
REMARK    4  A    between atoms: N_12  and  C_13 
ROOT
HETATM    1  C   UNL     1       5.637  29.126  57.256  1.00  0.00     0.213 C 
ENDROOT
BRANCH   1   2
HETATM    2  C   UNL     1       6.391  27.850  57.256  1.00  0.00     0.190 A 
HETATM    3  O   UNL     1       7.459  27.771  58.097  1.00  0.00    -0.194 OA
HETATM    4  N   UNL     1       8.055  26.535  57.867  1.00  0.00    -0.106 NA
HETATM    5  C   UNL     1       7.290  25.980  56.911  1.00  0.00     0.189 A 
HETATM    6  N   UNL     1       6.234  26.776  56.513  1.00  0.00    -0.202 NA
BRANCH   5   7
HETATM    7  C   UNL     1       7.555  24.673  56.316  1.00  0.00     0.014 A 
HETATM    8  C   UNL     1       7.036  24.333  55.057  1.00  0.00     0.015 A 
HETATM    9  C   UNL     1       7.285  23.076  54.499  1.00  0.00     0.001 A 
HETATM   10  C   UNL     1       8.055  22.145  55.193  1.00  0.00     0.000 A 
HETATM   11  C   UNL     1       8.576  22.468  56.443  1.00  0.00     0.001 A 
HETATM   12  C   UNL     1       8.328  23.725  57.003  1.00  0.00     0.015 A 
ENDBRANCH   5   7
ENDBRANCH   1   2
BRANCH   1  13
HETATM   13  N   UNL     1       6.261  30.088  58.143  1.00  0.00    -0.335 N 
HETATM   14  C   UNL     1       5.984  31.414  58.048  1.00  0.00     0.321 C 
HETATM   15  N   UNL     1       6.455  32.232  59.028  1.00  0.00    -0.309 N 
HETATM   16  O   UNL     1       5.262  31.882  57.171  1.00  0.00    -0.247 OA
HETATM   17  H   UNL     1       5.985  33.130  59.006  1.00  0.00     0.170 HD
HETATM   18  H   UNL     1       6.555  29.749  59.046  1.00  0.00     0.164 HD
BRANCH  15  19
HETATM   19  C   UNL     1       7.427  32.060  60.028  1.00  0.00     0.036 A 
HETATM   20  C   UNL     1       7.134  31.796  61.368  1.00  0.00     0.029 A 
HETATM   21  C   UNL     1       8.166  31.641  62.298  1.00  0.00     0.002 A 
HETATM   22  C   UNL     1       9.497  31.735  61.894  1.00  0.00     0.000 A 
HETATM   23  C   UNL     1       9.798  31.961  60.555  1.00  0.00     0.002 A 
HETATM   24  C   UNL     1       8.768  32.109  59.624  1.00  0.00     0.029 A 
ENDBRANCH  15  19
ENDBRANCH   1  13
TORSDOF 4
ENDMDL
MODEL 5
REMARK VINA RESULT:      -8.1      5.425      8.824
REMARK  4 active torsions:
REMARK  status: ('A' for Active; 'I' for Inactive)
REMARK    1  A    between atoms: C_4  and  C_5 
REMARK    2  A    between atoms: C_8  and  C_9 
REMARK    3  A    between atoms: C_9  and  N_10 
REMARK       I    between atoms: N_10  and  C_11 
REMARK       I    between atoms: C_11  and  N_12 
REMARK    4  A    between atoms: N_12  and  C_13 
ROOT
HETATM    1  C   UNL     1       5.429  26.624  55.183  1.00  0.00     0.213 C 
ENDROOT
BRANCH   1   2
HETATM    2  C   UNL     1       5.047  27.138  53.847  1.00  0.00     0.190 A 
HETATM    3  O   UNL     1       3.985  27.991  53.801  1.00  0.00    -0.194 OA
HETATM    4  N   UNL     1       3.759  28.271  52.457  1.00  0.00    -0.106 NA
HETATM    5  C   UNL     1       4.706  27.566  51.816  1.00  0.00     0.189 A 
HETATM    6  N   UNL     1       5.534  26.851  52.659  1.00  0.00    -0.202 NA
BRANCH   5   7
HETATM    7  C   UNL     1       4.841  27.521  50.362  1.00  0.00     0.014 A 
HETATM    8  C   UNL     1       4.479  26.375  49.637  1.00  0.00     0.015 A 
HETATM    9  C   UNL     1       4.621  26.336  48.247  1.00  0.00     0.001 A 
HETATM   10  C   UNL     1       5.127  27.442  47.567  1.00  0.00     0.000 A 
HETATM   11  C   UNL     1       5.490  28.586  48.273  1.00  0.00     0.001 A 
HETATM   12  C   UNL     1       5.349  28.626  49.663  1.00  0.00     0.015 A 
ENDBRANCH   5   7
ENDBRANCH   1   2
BRANCH   1  13
HETATM   13  N   UNL     1       6.312  25.482  55.058  1.00  0.00    -0.335 N 
HETATM   14  C   UNL     1       7.511  25.447  55.695  1.00  0.00     0.321 C 
HETATM   15  N   UNL     1       8.199  24.273  55.687  1.00  0.00    -0.309 N 
HETATM   16  O   UNL     1       7.949  26.396  56.340  1.00  0.00    -0.247 OA
HETATM   17  H   UNL     1       8.930  24.278  56.390  1.00  0.00     0.170 HD
HETATM   18  H   UNL     1       5.880  24.594  54.855  1.00  0.00     0.164 HD
BRANCH  15  19
HETATM   19  C   UNL     1       8.079  23.103  54.919  1.00  0.00     0.036 A 
HETATM   20  C   UNL     1       8.167  23.068  53.526  1.00  0.00     0.029 A 
HETATM   21  C   UNL     1       8.034  21.857  52.841  1.00  0.00     0.002 A 
HETATM   22  C   UNL     1       7.825  20.671  53.543  1.00  0.00     0.000 A 
HETATM   23  C   UNL     1       7.774  20.691  54.933  1.00  0.00     0.002 A 
HETATM   24  C   UNL     1       7.914  21.900  55.618  1.00  0.00     0.029 A 
ENDBRANCH  15  19
ENDBRANCH   1  13
TORSDOF 4
ENDMDL
MODEL 6
REMARK VINA RESULT:      -7.9      5.449      8.752
REMARK  4 active torsions:
REMARK  status: ('A' for Active; 'I' for Inactive)
REMARK    1  A    between atoms: C_4  and  C_5 
REMARK    2  A    between atoms: C_8  and  C_9 
REMARK    3  A    between atoms: C_9  and  N_10 
REMARK       I    between atoms: N_10  and  C_11 
REMARK       I    between atoms: C_11  and  N_12 
REMARK    4  A    between atoms: N_12  and  C_13 
ROOT
HETATM    1  C   UNL     1       6.310  26.148  54.990  1.00  0.00     0.213 C 
ENDROOT
BRANCH   1   2
HETATM    2  C   UNL     1       5.744  26.077  53.621  1.00  0.00     0.190 A 
HETATM    3  O   UNL     1       5.123  24.914  53.276  1.00  0.00    -0.194 OA
HETATM    4  N   UNL     1       4.753  25.044  51.941  1.00  0.00    -0.106 NA
HETATM    5  C   UNL     1       5.181  26.272  51.604  1.00  0.00     0.189 A 
HETATM    6  N   UNL     1       5.798  26.949  52.638  1.00  0.00    -0.202 NA
BRANCH   5   7
HETATM    7  C   UNL     1       5.042  26.842  50.267  1.00  0.00     0.014 A 
HETATM    8  C   UNL     1       5.438  28.161  49.998  1.00  0.00     0.015 A 
HETATM    9  C   UNL     1       5.292  28.703  48.718  1.00  0.00     0.001 A 
HETATM   10  C   UNL     1       4.749  27.933  47.693  1.00  0.00     0.000 A 
HETATM   11  C   UNL     1       4.350  26.622  47.944  1.00  0.00     0.001 A 
HETATM   12  C   UNL     1       4.495  26.079  49.224  1.00  0.00     0.015 A 
ENDBRANCH   5   7
ENDBRANCH   1   2
BRANCH   1  13
HETATM   13  N   UNL     1       7.081  24.957  55.285  1.00  0.00    -0.335 N 
HETATM   14  C   UNL     1       7.996  24.944  56.290  1.00  0.00     0.321 C 
HETATM   15  N   UNL     1       8.543  23.746  56.633  1.00  0.00    -0.309 N 
HETATM   16  O   UNL     1       8.279  25.944  56.945  1.00  0.00    -0.247 OA
HETATM   17  H   UNL     1       8.999  23.804  57.537  1.00  0.00     0.170 HD
HETATM   18  H   UNL     1       6.664  24.073  55.040  1.00  0.00     0.164 HD
BRANCH  15  19
HETATM   19  C   UNL     1       8.581  22.496  55.993  1.00  0.00     0.036 A 
HETATM   20  C   UNL     1       8.277  21.286  56.620  1.00  0.00     0.029 A 
HETATM   21  C   UNL     1       8.342  20.086  55.906  1.00  0.00     0.002 A 
HETATM   22  C   UNL     1       8.698  20.088  54.558  1.00  0.00     0.000 A 
HETATM   23  C   UNL     1       8.967  21.293  53.916  1.00  0.00     0.002 A 
HETATM   24  C   UNL     1       8.894  22.492  54.628  1.00  0.00     0.029 A 
ENDBRANCH  15  19
ENDBRANCH   1  13
TORSDOF 4
ENDMDL
MODEL 7
REMARK VINA RESULT:      -7.9      6.078      9.472
REMARK  4 active torsions:
REMARK  status: ('A' for Active; 'I' for Inactive)
REMARK    1  A    between atoms: C_4  and  C_5 
REMARK    2  A    between atoms: C_8  and  C_9 
REMARK    3  A    between atoms: C_9  and  N_10 
REMARK       I    between atoms: N_10  and  C_11 
REMARK       I    between atoms: C_11  and  N_12 
REMARK    4  A    between atoms: N_12  and  C_13 
ROOT
HETATM    1  C   UNL     1       5.082  29.199  52.245  1.00  0.00     0.213 C 
ENDROOT
BRANCH   1   2
HETATM    2  C   UNL     1       5.504  28.019  53.038  1.00  0.00     0.190 A 
HETATM    3  O   UNL     1       5.517  28.166  54.392  1.00  0.00    -0.194 OA
HETATM    4  N   UNL     1       6.020  26.978  54.914  1.00  0.00    -0.106 NA
HETATM    5  C   UNL     1       6.260  26.223  53.829  1.00  0.00     0.189 A 
HETATM    6  N   UNL     1       5.939  26.844  52.638  1.00  0.00    -0.202 NA
BRANCH   5   7
HETATM    7  C   UNL     1       6.836  24.882  53.884  1.00  0.00     0.014 A 
HETATM    8  C   UNL     1       6.847  24.148  55.081  1.00  0.00     0.015 A 
HETATM    9  C   UNL     1       7.410  22.870  55.128  1.00  0.00     0.001 A 
HETATM   10  C   UNL     1       7.967  22.311  53.979  1.00  0.00     0.000 A 
HETATM   11  C   UNL     1       7.963  23.027  52.785  1.00  0.00     0.001 A 
HETATM   12  C   UNL     1       7.401  24.306  52.737  1.00  0.00     0.015 A 
ENDBRANCH   5   7
ENDBRANCH   1   2
BRANCH   1  13
HETATM   13  N   UNL     1       4.773  28.815  50.883  1.00  0.00    -0.335 N 
HETATM   14  C   UNL     1       5.469  29.325  49.834  1.00  0.00     0.321 C 
HETATM   15  N   UNL     1       5.254  28.780  48.605  1.00  0.00    -0.309 N 
HETATM   16  O   UNL     1       6.334  30.186  49.965  1.00  0.00    -0.247 OA
HETATM   17  H   UNL     1       5.990  29.043  47.960  1.00  0.00     0.170 HD
HETATM   18  H   UNL     1       4.353  27.908  50.751  1.00  0.00     0.164 HD
BRANCH  15  19
HETATM   19  C   UNL     1       4.243  27.948  48.095  1.00  0.00     0.036 A 
HETATM   20  C   UNL     1       3.024  28.412  47.596  1.00  0.00     0.029 A 
HETATM   21  C   UNL     1       2.073  27.512  47.108  1.00  0.00     0.002 A 
HETATM   22  C   UNL     1       2.337  26.143  47.103  1.00  0.00     0.000 A 
HETATM   23  C   UNL     1       3.564  25.675  47.564  1.00  0.00     0.002 A 
HETATM   24  C   UNL     1       4.517  26.575  48.045  1.00  0.00     0.029 A 
ENDBRANCH  15  19
ENDBRANCH   1  13
TORSDOF 4
ENDMDL
MODEL 8
REMARK VINA RESULT:      -7.8      3.276      4.272
REMARK  4 active torsions:
REMARK  status: ('A' for Active; 'I' for Inactive)
REMARK    1  A    between atoms: C_4  and  C_5 
REMARK    2  A    between atoms: C_8  and  C_9 
REMARK    3  A    between atoms: C_9  and  N_10 
REMARK       I    between atoms: N_10  and  C_11 
REMARK       I    between atoms: C_11  and  N_12 
REMARK    4  A    between atoms: N_12  and  C_13 
ROOT
HETATM    1  C   UNL     1       6.244  28.274  53.173  1.00  0.00     0.213 C 
ENDROOT
BRANCH   1   2
HETATM    2  C   UNL     1       6.385  26.799  53.153  1.00  0.00     0.190 A 
HETATM    3  O   UNL     1       5.336  26.091  52.649  1.00  0.00    -0.194 OA
HETATM    4  N   UNL     1       5.652  24.745  52.807  1.00  0.00    -0.106 NA
HETATM    5  C   UNL     1       6.863  24.764  53.389  1.00  0.00     0.189 A 
HETATM    6  N   UNL     1       7.354  26.036  53.612  1.00  0.00    -0.202 NA
BRANCH   5   7
HETATM    7  C   UNL     1       7.592  23.562  53.786  1.00  0.00     0.014 A 
HETATM    8  C   UNL     1       7.677  22.453  52.930  1.00  0.00     0.015 A 
HETATM    9  C   UNL     1       8.367  21.302  53.321  1.00  0.00     0.001 A 
HETATM   10  C   UNL     1       8.981  21.248  54.571  1.00  0.00     0.000 A 
HETATM   11  C   UNL     1       8.904  22.341  55.431  1.00  0.00     0.001 A 
HETATM   12  C   UNL     1       8.214  23.492  55.041  1.00  0.00     0.015 A 
ENDBRANCH   5   7
ENDBRANCH   1   2
BRANCH   1  13
HETATM   13  N   UNL     1       6.185  28.763  54.536  1.00  0.00    -0.335 N 
HETATM   14  C   UNL     1       5.009  28.811  55.215  1.00  0.00     0.321 C 
HETATM   15  N   UNL     1       5.056  29.100  56.544  1.00  0.00    -0.309 N 
HETATM   16  O   UNL     1       3.931  28.525  54.700  1.00  0.00    -0.247 OA
HETATM   17  H   UNL     1       4.182  28.859  56.997  1.00  0.00     0.170 HD
HETATM   18  H   UNL     1       7.024  28.673  55.087  1.00  0.00     0.164 HD
BRANCH  15  19
HETATM   19  C   UNL     1       6.058  29.640  57.368  1.00  0.00     0.036 A 
HETATM   20  C   UNL     1       7.203  28.946  57.764  1.00  0.00     0.029 A 
HETATM   21  C   UNL     1       8.150  29.561  58.589  1.00  0.00     0.002 A 
HETATM   22  C   UNL     1       7.966  30.877  59.012  1.00  0.00     0.000 A 
HETATM   23  C   UNL     1       6.845  31.587  58.591  1.00  0.00     0.002 A 
HETATM   24  C   UNL     1       5.904  30.975  57.762  1.00  0.00     0.029 A 
ENDBRANCH  15  19
ENDBRANCH   1  13
TORSDOF 4
ENDMDL
MODEL 9
REMARK VINA RESULT:      -7.8      2.325      3.618
REMARK  4 active torsions:
REMARK  status: ('A' for Active; 'I' for Inactive)
REMARK    1  A    between atoms: C_4  and  C_5 
REMARK    2  A    between atoms: C_8  and  C_9 
REMARK    3  A    between atoms: C_9  and  N_10 
REMARK       I    between atoms: N_10  and  C_11 
REMARK       I    between atoms: C_11  and  N_12 
REMARK    4  A    between atoms: N_12  and  C_13 
ROOT
HETATM    1  C   UNL     1       8.836  31.252  59.201  1.00  0.00     0.213 C 
ENDROOT
BRANCH   1   2
HETATM    2  C   UNL     1       8.026  30.213  58.522  1.00  0.00     0.190 A 
HETATM    3  O   UNL     1       6.737  30.540  58.228  1.00  0.00    -0.194 OA
HETATM    4  N   UNL     1       6.154  29.400  57.680  1.00  0.00    -0.106 NA
HETATM    5  C   UNL     1       7.145  28.493  57.691  1.00  0.00     0.189 A 
HETATM    6  N   UNL     1       8.334  28.974  58.205  1.00  0.00    -0.202 NA
BRANCH   5   7
HETATM    7  C   UNL     1       6.989  27.114  57.236  1.00  0.00     0.014 A 
HETATM    8  C   UNL     1       5.778  26.668  56.684  1.00  0.00     0.015 A 
HETATM    9  C   UNL     1       5.632  25.344  56.261  1.00  0.00     0.001 A 
HETATM   10  C   UNL     1       6.696  24.451  56.384  1.00  0.00     0.000 A 
HETATM   11  C   UNL     1       7.903  24.880  56.930  1.00  0.00     0.001 A 
HETATM   12  C   UNL     1       8.050  26.204  57.354  1.00  0.00     0.015 A 
ENDBRANCH   5   7
ENDBRANCH   1   2
BRANCH   1  13
HETATM   13  N   UNL     1       8.317  31.518  60.527  1.00  0.00    -0.335 N 
HETATM   14  C   UNL     1       8.759  30.823  61.608  1.00  0.00     0.321 C 
HETATM   15  N   UNL     1       8.371  31.253  62.840  1.00  0.00    -0.309 N 
HETATM   16  O   UNL     1       9.552  29.890  61.520  1.00  0.00    -0.247 OA
HETATM   17  H   UNL     1       8.949  30.842  63.564  1.00  0.00     0.170 HD
HETATM   18  H   UNL     1       7.964  32.447  60.699  1.00  0.00     0.164 HD
BRANCH  15  19
HETATM   19  C   UNL     1       7.364  32.133  63.269  1.00  0.00     0.036 A 
HETATM   20  C   UNL     1       6.019  32.018  62.910  1.00  0.00     0.029 A 
HETATM   21  C   UNL     1       5.082  32.941  63.383  1.00  0.00     0.002 A 
HETATM   22  C   UNL     1       5.478  33.976  64.228  1.00  0.00     0.000 A 
HETATM   23  C   UNL     1       6.810  34.076  64.621  1.00  0.00     0.002 A 
HETATM   24  C   UNL     1       7.745  33.150  64.154  1.00  0.00     0.029 A 
ENDBRANCH  15  19
ENDBRANCH   1  13
TORSDOF 4
ENDMDL
MODEL 10
REMARK VINA RESULT:      -7.6      1.876      2.322
REMARK  4 active torsions:
REMARK  status: ('A' for Active; 'I' for Inactive)
REMARK    1  A    between atoms: C_4  and  C_5 
REMARK    2  A    between atoms: C_8  and  C_9 
REMARK    3  A    between atoms: C_9  and  N_10 
REMARK       I    between atoms: N_10  and  C_11 
REMARK       I    between atoms: C_11  and  N_12 
REMARK    4  A    between atoms: N_12  and  C_13 
ROOT
HETATM    1  C   UNL     1       9.149  30.138  58.160  1.00  0.00     0.213 C 
ENDROOT
BRANCH   1   2
HETATM    2  C   UNL     1       8.406  28.932  57.725  1.00  0.00     0.190 A 
HETATM    3  O   UNL     1       7.054  28.954  57.893  1.00  0.00    -0.194 OA
HETATM    4  N   UNL     1       6.586  27.703  57.500  1.00  0.00    -0.106 NA
HETATM    5  C   UNL     1       7.696  27.043  57.130  1.00  0.00     0.189 A 
HETATM    6  N   UNL     1       8.853  27.789  57.251  1.00  0.00    -0.202 NA
BRANCH   5   7
HETATM    7  C   UNL     1       7.702  25.657  56.671  1.00  0.00     0.014 A 
HETATM    8  C   UNL     1       8.460  24.679  57.333  1.00  0.00     0.015 A 
HETATM    9  C   UNL     1       8.469  23.356  56.881  1.00  0.00     0.001 A 
HETATM   10  C   UNL     1       7.721  22.997  55.762  1.00  0.00     0.000 A 
HETATM   11  C   UNL     1       6.965  23.957  55.094  1.00  0.00     0.001 A 
HETATM   12  C   UNL     1       6.955  25.280  55.545  1.00  0.00     0.015 A 
ENDBRANCH   5   7
ENDBRANCH   1   2
BRANCH   1  13
HETATM   13  N   UNL     1       8.399  30.865  59.165  1.00  0.00    -0.335 N 
HETATM   14  C   UNL     1       8.933  31.942  59.799  1.00  0.00     0.321 C 
HETATM   15  N   UNL     1       8.111  32.686  60.587  1.00  0.00    -0.309 N 
HETATM   16  O   UNL     1      10.091  32.311  59.622  1.00  0.00    -0.247 OA
HETATM   17  H   UNL     1       8.528  33.586  60.795  1.00  0.00     0.170 HD
HETATM   18  H   UNL     1       7.394  30.834  59.093  1.00  0.00     0.164 HD
BRANCH  15  19
HETATM   19  C   UNL     1       6.839  32.446  61.132  1.00  0.00     0.036 A 
HETATM   20  C   UNL     1       6.620  31.918  62.407  1.00  0.00     0.029 A 
HETATM   21  C   UNL     1       5.318  31.709  62.870  1.00  0.00     0.002 A 
HETATM   22  C   UNL     1       4.226  32.039  62.070  1.00  0.00     0.000 A 
HETATM   23  C   UNL     1       4.434  32.601  60.814  1.00  0.00     0.002 A 
HETATM   24  C   UNL     1       5.734  32.816  60.354  1.00  0.00     0.029 A 
ENDBRANCH  15  19
ENDBRANCH   1  13
TORSDOF 4
ENDMDL
