MODEL 1
REMARK VINA RESULT:      -9.6      0.000      0.000
REMARK  5 active torsions:
REMARK  status: ('A' for Active; 'I' for Inactive)
REMARK    1  A    between atoms: C_9  and  C_10 
REMARK       I    between atoms: C_10  and  N_11 
REMARK    2  A    between atoms: N_11  and  C_12 
REMARK    3  A    between atoms: C_12  and  C_13 
REMARK    4  A    between atoms: C_16  and  N_17 
REMARK       I    between atoms: N_17  and  C_18 
REMARK    5  A    between atoms: C_18  and  C_19 
ROOT
HETATM    1  C   UNL     1       6.324  26.132  54.502  1.00  0.00     0.273 C 
HETATM    2  N   UNL     1       6.838  27.392  54.287  1.00  0.00    -0.351 N 
HETATM    3  O   UNL     1       5.334  25.923  55.199  1.00  0.00    -0.266 OA
HETATM    4  H   UNL     1       7.589  27.454  53.606  1.00  0.00     0.163 HD
ENDROOT
BRANCH   2   5
HETATM    5  C   UNL     1       6.140  28.567  54.731  1.00  0.00     0.161 C 
BRANCH   5   6
HETATM    6  C   UNL     1       6.667  29.055  56.052  1.00  0.00    -0.040 A 
HETATM    7  C   UNL     1       5.952  29.998  56.799  1.00  0.00     0.011 A 
HETATM    8  C   UNL     1       6.436  30.449  58.033  1.00  0.00     0.030 A 
HETATM    9  C   UNL     1       7.645  29.971  58.539  1.00  0.00     0.034 A 
HETATM   10  C   UNL     1       8.372  29.045  57.781  1.00  0.00     0.030 A 
HETATM   11  C   UNL     1       7.892  28.595  56.546  1.00  0.00     0.011 A 
BRANCH   9  12
HETATM   12  N   UNL     1       8.191  30.355  59.781  1.00  0.00    -0.327 N 
HETATM   13  C   UNL     1       8.852  31.534  60.090  1.00  0.00     0.225 C 
HETATM   14  O   UNL     1       9.085  32.455  59.313  1.00  0.00    -0.273 OA
HETATM   15  H   UNL     1       8.064  29.695  60.537  1.00  0.00     0.169 HD
BRANCH  13  16
HETATM   16  C   UNL     1       9.282  31.593  61.560  1.00  0.00     0.070 C 
HETATM   17  C   UNL     1       8.233  32.314  62.405  1.00  0.00     0.019 C 
HETATM   18  C   UNL     1       9.533  30.192  62.116  1.00  0.00     0.019 C 
ENDBRANCH  13  16
ENDBRANCH   9  12
ENDBRANCH   5   6
ENDBRANCH   2   5
BRANCH   1  19
HETATM   19  C   UNL     1       7.063  25.071  53.802  1.00  0.00     0.157 A 
HETATM   20  C   UNL     1       7.570  23.859  54.360  1.00  0.00     0.029 A 
HETATM   21  C   UNL     1       7.582  23.255  55.633  1.00  0.00     0.023 A 
HETATM   22  C   UNL     1       8.172  23.194  53.298  1.00  0.00     0.063 A 
HETATM   23  C   UNL     1       8.197  22.003  55.801  1.00  0.00    -0.061 A 
HETATM   24  C   UNL     1       8.219  21.339  57.148  1.00  0.00     0.048 C 
HETATM   25  C   UNL     1       8.793  21.368  54.703  1.00  0.00     0.009 A 
HETATM   26  C   UNL     1       8.792  21.950  53.431  1.00  0.00     0.032 A 
HETATM   27  N   UNL     1       7.998  24.012  52.217  1.00  0.00    -0.277 N 
HETATM   28  H   UNL     1       8.310  23.846  51.267  1.00  0.00     0.189 HD
HETATM   29  N   UNL     1       7.330  25.150  52.479  1.00  0.00    -0.168 NA
ENDBRANCH   1  19
TORSDOF 5
ENDMDL
MODEL 2
REMARK VINA RESULT:      -9.6      3.487      6.061
REMARK  5 active torsions:
REMARK  status: ('A' for Active; 'I' for Inactive)
REMARK    1  A    between atoms: C_9  and  C_10 
REMARK       I    between atoms: C_10  and  N_11 
REMARK    2  A    between atoms: N_11  and  C_12 
REMARK    3  A    between atoms: C_12  and  C_13 
REMARK    4  A    between atoms: C_16  and  N_17 
REMARK       I    between atoms: N_17  and  C_18 
REMARK    5  A    between atoms: C_18  and  C_19 
ROOT
HETATM    1  C   UNL     1       8.038  29.602  58.346  1.00  0.00     0.273 C 
HETATM    2  N   UNL     1       7.708  30.171  59.556  1.00  0.00    -0.351 N 
HETATM    3  O   UNL     1       9.129  29.766  57.805  1.00  0.00    -0.266 OA
HETATM    4  H   UNL     1       6.823  29.875  59.959  1.00  0.00     0.163 HD
ENDROOT
BRANCH   2   5
HETATM    5  C   UNL     1       8.689  30.860  60.348  1.00  0.00     0.161 C 
BRANCH   5   6
HETATM    6  C   UNL     1       8.045  31.787  61.341  1.00  0.00    -0.040 A 
HETATM    7  C   UNL     1       8.505  31.849  62.661  1.00  0.00     0.011 A 
HETATM    8  C   UNL     1       7.912  32.718  63.586  1.00  0.00     0.030 A 
HETATM    9  C   UNL     1       6.846  33.535  63.209  1.00  0.00     0.034 A 
HETATM   10  C   UNL     1       6.371  33.457  61.894  1.00  0.00     0.030 A 
HETATM   11  C   UNL     1       6.959  32.588  60.970  1.00  0.00     0.011 A 
BRANCH   9  12
HETATM   12  N   UNL     1       6.209  34.453  64.069  1.00  0.00    -0.327 N 
HETATM   13  C   UNL     1       5.175  34.205  64.959  1.00  0.00     0.225 C 
HETATM   14  O   UNL     1       4.623  33.124  65.141  1.00  0.00    -0.273 OA
HETATM   15  H   UNL     1       6.568  35.398  64.043  1.00  0.00     0.169 HD
BRANCH  13  16
HETATM   16  C   UNL     1       4.763  35.460  65.738  1.00  0.00     0.070 C 
HETATM   17  C   UNL     1       4.772  36.689  64.832  1.00  0.00     0.019 C 
HETATM   18  C   UNL     1       3.385  35.285  66.374  1.00  0.00     0.019 C 
ENDBRANCH  13  16
ENDBRANCH   9  12
ENDBRANCH   5   6
ENDBRANCH   2   5
BRANCH   1  19
HETATM   19  C   UNL     1       6.967  28.767  57.780  1.00  0.00     0.157 A 
HETATM   20  C   UNL     1       7.051  27.393  57.407  1.00  0.00     0.029 A 
HETATM   21  C   UNL     1       8.050  26.398  57.413  1.00  0.00     0.023 A 
HETATM   22  C   UNL     1       5.783  27.065  56.943  1.00  0.00     0.063 A 
HETATM   23  C   UNL     1       7.744  25.105  56.956  1.00  0.00    -0.061 A 
HETATM   24  C   UNL     1       8.791  24.030  56.957  1.00  0.00     0.048 C 
HETATM   25  C   UNL     1       6.452  24.818  56.496  1.00  0.00     0.009 A 
HETATM   26  C   UNL     1       5.446  25.791  56.480  1.00  0.00     0.032 A 
HETATM   27  N   UNL     1       5.050  28.212  57.061  1.00  0.00    -0.277 N 
HETATM   28  H   UNL     1       4.075  28.343  56.816  1.00  0.00     0.189 HD
HETATM   29  N   UNL     1       5.726  29.258  57.566  1.00  0.00    -0.168 NA
ENDBRANCH   1  19
TORSDOF 5
ENDMDL
MODEL 3
REMARK VINA RESULT:      -9.4      2.257      9.848
REMARK  5 active torsions:
REMARK  status: ('A' for Active; 'I' for Inactive)
REMARK    1  A    between atoms: C_9  and  C_10 
REMARK       I    between atoms: C_10  and  N_11 
REMARK    2  A    between atoms: N_11  and  C_12 
REMARK    3  A    between atoms: C_12  and  C_13 
REMARK    4  A    between atoms: C_16  and  N_17 
REMARK       I    between atoms: N_17  and  C_18 
REMARK    5  A    between atoms: C_18  and  C_19 
ROOT
HETATM    1  C   UNL     1       7.445  30.803  58.876  1.00  0.00     0.273 C 
HETATM    2  N   UNL     1       7.280  29.471  58.568  1.00  0.00    -0.351 N 
HETATM    3  O   UNL     1       7.182  31.709  58.088  1.00  0.00    -0.266 OA
HETATM    4  H   UNL     1       7.423  28.818  59.334  1.00  0.00     0.163 HD
ENDROOT
BRANCH   2   5
HETATM    5  C   UNL     1       6.626  29.061  57.357  1.00  0.00     0.161 C 
BRANCH   5   6
HETATM    6  C   UNL     1       6.820  27.593  57.094  1.00  0.00    -0.040 A 
HETATM    7  C   UNL     1       8.080  27.002  57.246  1.00  0.00     0.011 A 
HETATM    8  C   UNL     1       8.262  25.635  57.010  1.00  0.00     0.030 A 
HETATM    9  C   UNL     1       7.191  24.834  56.613  1.00  0.00     0.034 A 
HETATM   10  C   UNL     1       5.935  25.429  56.439  1.00  0.00     0.030 A 
HETATM   11  C   UNL     1       5.751  26.796  56.671  1.00  0.00     0.011 A 
BRANCH   9  12
HETATM   12  N   UNL     1       7.283  23.446  56.379  1.00  0.00    -0.327 N 
HETATM   13  C   UNL     1       7.878  22.806  55.302  1.00  0.00     0.225 C 
HETATM   14  O   UNL     1       8.425  23.352  54.350  1.00  0.00    -0.273 OA
HETATM   15  H   UNL     1       6.884  22.854  57.095  1.00  0.00     0.169 HD
BRANCH  13  16
HETATM   16  C   UNL     1       7.793  21.279  55.414  1.00  0.00     0.070 C 
HETATM   17  C   UNL     1       7.911  20.626  54.038  1.00  0.00     0.019 C 
HETATM   18  C   UNL     1       8.873  20.735  56.349  1.00  0.00     0.019 C 
ENDBRANCH  13  16
ENDBRANCH   9  12
ENDBRANCH   5   6
ENDBRANCH   2   5
BRANCH   1  19
HETATM   19  C   UNL     1       7.944  31.032  60.240  1.00  0.00     0.157 A 
HETATM   20  C   UNL     1       7.454  31.977  61.191  1.00  0.00     0.029 A 
HETATM   21  C   UNL     1       6.439  32.954  61.221  1.00  0.00     0.023 A 
HETATM   22  C   UNL     1       8.242  31.795  62.322  1.00  0.00     0.063 A 
HETATM   23  C   UNL     1       6.245  33.717  62.384  1.00  0.00    -0.061 A 
HETATM   24  C   UNL     1       5.167  34.761  62.439  1.00  0.00     0.048 C 
HETATM   25  C   UNL     1       7.063  33.501  63.502  1.00  0.00     0.009 A 
HETATM   26  C   UNL     1       8.076  32.537  63.493  1.00  0.00     0.032 A 
HETATM   27  N   UNL     1       9.116  30.798  61.993  1.00  0.00    -0.277 N 
HETATM   28  H   UNL     1       9.841  30.402  62.581  1.00  0.00     0.189 HD
HETATM   29  N   UNL     1       8.965  30.308  60.750  1.00  0.00    -0.168 NA
ENDBRANCH   1  19
TORSDOF 5
ENDMDL
MODEL 4
REMARK VINA RESULT:      -9.3      4.827      8.528
REMARK  5 active torsions:
REMARK  status: ('A' for Active; 'I' for Inactive)
REMARK    1  A    between atoms: C_9  and  C_10 
REMARK       I    between atoms: C_10  and  N_11 
REMARK    2  A    between atoms: N_11  and  C_12 
REMARK    3  A    between atoms: C_12  and  C_13 
REMARK    4  A    between atoms: C_16  and  N_17 
REMARK       I    between atoms: N_17  and  C_18 
REMARK    5  A    between atoms: C_18  and  C_19 
ROOT
HETATM    1  C   UNL     1       6.722  31.974  59.847  1.00  0.00     0.273 C 
HETATM    2  N   UNL     1       6.745  32.424  61.148  1.00  0.00    -0.351 N 
HETATM    3  O   UNL     1       5.682  31.828  59.208  1.00  0.00    -0.266 OA
HETATM    4  H   UNL     1       7.666  32.612  61.535  1.00  0.00     0.163 HD
ENDROOT
BRANCH   2   5
HETATM    5  C   UNL     1       5.557  32.915  61.789  1.00  0.00     0.161 C 
BRANCH   5   6
HETATM    6  C   UNL     1       5.810  33.261  63.230  1.00  0.00    -0.040 A 
HETATM    7  C   UNL     1       4.747  33.565  64.088  1.00  0.00     0.011 A 
HETATM    8  C   UNL     1       4.978  33.880  65.432  1.00  0.00     0.030 A 
HETATM    9  C   UNL     1       6.277  33.902  65.942  1.00  0.00     0.034 A 
HETATM   10  C   UNL     1       7.343  33.621  65.079  1.00  0.00     0.030 A 
HETATM   11  C   UNL     1       7.114  33.309  63.735  1.00  0.00     0.011 A 
BRANCH   9  12
HETATM   12  N   UNL     1       6.595  34.186  67.286  1.00  0.00    -0.327 N 
HETATM   13  C   UNL     1       5.761  34.101  68.391  1.00  0.00     0.225 C 
HETATM   14  O   UNL     1       4.581  33.767  68.381  1.00  0.00    -0.273 OA
HETATM   15  H   UNL     1       7.551  34.465  67.460  1.00  0.00     0.169 HD
BRANCH  13  16
HETATM   16  C   UNL     1       6.481  34.473  69.693  1.00  0.00     0.070 C 
HETATM   17  C   UNL     1       6.703  33.238  70.564  1.00  0.00     0.019 C 
HETATM   18  C   UNL     1       7.816  35.161  69.407  1.00  0.00     0.019 C 
ENDBRANCH  13  16
ENDBRANCH   9  12
ENDBRANCH   5   6
ENDBRANCH   2   5
BRANCH   1  19
HETATM   19  C   UNL     1       8.059  31.708  59.295  1.00  0.00     0.157 A 
HETATM   20  C   UNL     1       8.457  30.596  58.494  1.00  0.00     0.029 A 
HETATM   21  C   UNL     1       7.832  29.444  57.974  1.00  0.00     0.023 A 
HETATM   22  C   UNL     1       9.802  30.810  58.218  1.00  0.00     0.063 A 
HETATM   23  C   UNL     1       8.576  28.545  57.192  1.00  0.00    -0.061 A 
HETATM   24  C   UNL     1       7.930  27.314  56.625  1.00  0.00     0.048 C 
HETATM   25  C   UNL     1       9.931  28.799  56.940  1.00  0.00     0.009 A 
HETATM   26  C   UNL     1      10.571  29.935  57.447  1.00  0.00     0.032 A 
HETATM   27  N   UNL     1      10.114  31.984  58.844  1.00  0.00    -0.277 N 
HETATM   28  H   UNL     1      11.014  32.450  58.856  1.00  0.00     0.189 HD
HETATM   29  N   UNL     1       9.090  32.558  59.498  1.00  0.00    -0.168 NA
ENDBRANCH   1  19
TORSDOF 5
ENDMDL
MODEL 5
REMARK VINA RESULT:      -9.3      2.745      4.512
REMARK  5 active torsions:
REMARK  status: ('A' for Active; 'I' for Inactive)
REMARK    1  A    between atoms: C_9  and  C_10 
REMARK       I    between atoms: C_10  and  N_11 
REMARK    2  A    between atoms: N_11  and  C_12 
REMARK    3  A    between atoms: C_12  and  C_13 
REMARK    4  A    between atoms: C_16  and  N_17 
REMARK       I    between atoms: N_17  and  C_18 
REMARK    5  A    between atoms: C_18  and  C_19 
ROOT
HETATM    1  C   UNL     1       8.140  28.303  56.790  1.00  0.00     0.273 C 
HETATM    2  N   UNL     1       8.256  28.909  58.021  1.00  0.00    -0.351 N 
HETATM    3  O   UNL     1       8.304  28.905  55.730  1.00  0.00    -0.266 OA
HETATM    4  H   UNL     1       8.210  28.290  58.825  1.00  0.00     0.163 HD
ENDROOT
BRANCH   2   5
HETATM    5  C   UNL     1       8.745  30.254  58.148  1.00  0.00     0.161 C 
BRANCH   5   6
HETATM    6  C   UNL     1       8.275  30.895  59.424  1.00  0.00    -0.040 A 
HETATM    7  C   UNL     1       8.900  30.601  60.641  1.00  0.00     0.011 A 
HETATM    8  C   UNL     1       8.469  31.201  61.830  1.00  0.00     0.030 A 
HETATM    9  C   UNL     1       7.403  32.102  61.825  1.00  0.00     0.034 A 
HETATM   10  C   UNL     1       6.763  32.378  60.611  1.00  0.00     0.030 A 
HETATM   11  C   UNL     1       7.189  31.777  59.422  1.00  0.00     0.011 A 
BRANCH   9  12
HETATM   12  N   UNL     1       6.923  32.767  62.972  1.00  0.00    -0.327 N 
HETATM   13  C   UNL     1       5.767  32.496  63.688  1.00  0.00     0.225 C 
HETATM   14  O   UNL     1       4.947  31.621  63.431  1.00  0.00    -0.273 OA
HETATM   15  H   UNL     1       7.507  33.517  63.319  1.00  0.00     0.169 HD
BRANCH  13  16
HETATM   16  C   UNL     1       5.597  33.430  64.893  1.00  0.00     0.070 C 
HETATM   17  C   UNL     1       6.949  33.744  65.533  1.00  0.00     0.019 C 
HETATM   18  C   UNL     1       4.892  34.725  64.490  1.00  0.00     0.019 C 
ENDBRANCH  13  16
ENDBRANCH   9  12
ENDBRANCH   5   6
ENDBRANCH   2   5
BRANCH   1  19
HETATM   19  C   UNL     1       7.824  26.869  56.870  1.00  0.00     0.157 A 
HETATM   20  C   UNL     1       7.627  25.967  55.782  1.00  0.00     0.029 A 
HETATM   21  C   UNL     1       7.642  26.054  54.375  1.00  0.00     0.023 A 
HETATM   22  C   UNL     1       7.369  24.736  56.374  1.00  0.00     0.063 A 
HETATM   23  C   UNL     1       7.399  24.903  53.607  1.00  0.00    -0.061 A 
HETATM   24  C   UNL     1       7.414  24.972  52.107  1.00  0.00     0.048 C 
HETATM   25  C   UNL     1       7.143  23.682  54.245  1.00  0.00     0.009 A 
HETATM   26  C   UNL     1       7.122  23.574  55.639  1.00  0.00     0.032 A 
HETATM   27  N   UNL     1       7.423  24.967  57.719  1.00  0.00    -0.277 N 
HETATM   28  H   UNL     1       7.285  24.291  58.462  1.00  0.00     0.189 HD
HETATM   29  N   UNL     1       7.701  26.238  58.059  1.00  0.00    -0.168 NA
ENDBRANCH   1  19
TORSDOF 5
ENDMDL
MODEL 6
REMARK VINA RESULT:      -9.2      4.230      8.168
REMARK  5 active torsions:
REMARK  status: ('A' for Active; 'I' for Inactive)
REMARK    1  A    between atoms: C_9  and  C_10 
REMARK       I    between atoms: C_10  and  N_11 
REMARK    2  A    between atoms: N_11  and  C_12 
REMARK    3  A    between atoms: C_12  and  C_13 
REMARK    4  A    between atoms: C_16  and  N_17 
REMARK       I    between atoms: N_17  and  C_18 
REMARK    5  A    between atoms: C_18  and  C_19 
ROOT
HETATM    1  C   UNL     1       6.848  26.429  55.750  1.00  0.00     0.273 C 
HETATM    2  N   UNL     1       7.703  27.049  54.866  1.00  0.00    -0.351 N 
HETATM    3  O   UNL     1       5.713  26.839  55.982  1.00  0.00    -0.266 OA
HETATM    4  H   UNL     1       8.571  26.557  54.670  1.00  0.00     0.163 HD
ENDROOT
BRANCH   2   5
HETATM    5  C   UNL     1       7.256  28.125  54.027  1.00  0.00     0.161 C 
BRANCH   5   6
HETATM    6  C   UNL     1       6.421  27.623  52.882  1.00  0.00    -0.040 A 
HETATM    7  C   UNL     1       5.396  28.412  52.347  1.00  0.00     0.011 A 
HETATM    8  C   UNL     1       4.622  27.950  51.276  1.00  0.00     0.030 A 
HETATM    9  C   UNL     1       4.854  26.690  50.724  1.00  0.00     0.034 A 
HETATM   10  C   UNL     1       5.863  25.890  51.274  1.00  0.00     0.030 A 
HETATM   11  C   UNL     1       6.636  26.348  52.346  1.00  0.00     0.011 A 
BRANCH   9  12
HETATM   12  N   UNL     1       4.137  26.159  49.632  1.00  0.00    -0.327 N 
HETATM   13  C   UNL     1       4.328  26.422  48.284  1.00  0.00     0.225 C 
HETATM   14  O   UNL     1       5.163  27.184  47.808  1.00  0.00    -0.273 OA
HETATM   15  H   UNL     1       3.412  25.494  49.866  1.00  0.00     0.169 HD
BRANCH  13  16
HETATM   16  C   UNL     1       3.359  25.634  47.394  1.00  0.00     0.070 C 
HETATM   17  C   UNL     1       2.927  24.337  48.077  1.00  0.00     0.019 C 
HETATM   18  C   UNL     1       2.132  26.473  47.037  1.00  0.00     0.019 C 
ENDBRANCH  13  16
ENDBRANCH   9  12
ENDBRANCH   5   6
ENDBRANCH   2   5
BRANCH   1  19
HETATM   19  C   UNL     1       7.418  25.222  56.368  1.00  0.00     0.157 A 
HETATM   20  C   UNL     1       7.678  23.969  55.736  1.00  0.00     0.029 A 
HETATM   21  C   UNL     1       7.517  23.431  54.444  1.00  0.00     0.023 A 
HETATM   22  C   UNL     1       8.224  23.168  56.732  1.00  0.00     0.063 A 
HETATM   23  C   UNL     1       7.910  22.107  54.190  1.00  0.00    -0.061 A 
HETATM   24  C   UNL     1       7.751  21.515  52.820  1.00  0.00     0.048 C 
HETATM   25  C   UNL     1       8.456  21.333  55.223  1.00  0.00     0.009 A 
HETATM   26  C   UNL     1       8.624  21.847  56.514  1.00  0.00     0.032 A 
HETATM   27  N   UNL     1       8.255  23.953  57.849  1.00  0.00    -0.277 N 
HETATM   28  H   UNL     1       8.594  23.696  58.769  1.00  0.00     0.189 HD
HETATM   29  N   UNL     1       7.783  25.200  57.670  1.00  0.00    -0.168 NA
ENDBRANCH   1  19
TORSDOF 5
ENDMDL
MODEL 7
REMARK VINA RESULT:      -9.1      1.967      8.874
REMARK  5 active torsions:
REMARK  status: ('A' for Active; 'I' for Inactive)
REMARK    1  A    between atoms: C_9  and  C_10 
REMARK       I    between atoms: C_10  and  N_11 
REMARK    2  A    between atoms: N_11  and  C_12 
REMARK    3  A    between atoms: C_12  and  C_13 
REMARK    4  A    between atoms: C_16  and  N_17 
REMARK       I    between atoms: N_17  and  C_18 
REMARK    5  A    between atoms: C_18  and  C_19 
ROOT
HETATM    1  C   UNL     1       6.720  29.440  56.834  1.00  0.00     0.273 C 
HETATM    2  N   UNL     1       6.917  29.358  55.474  1.00  0.00    -0.351 N 
HETATM    3  O   UNL     1       5.669  29.109  57.379  1.00  0.00    -0.266 OA
HETATM    4  H   UNL     1       7.861  29.553  55.151  1.00  0.00     0.163 HD
ENDROOT
BRANCH   2   5
HETATM    5  C   UNL     1       5.959  28.716  54.618  1.00  0.00     0.161 C 
BRANCH   5   6
HETATM    6  C   UNL     1       6.268  27.256  54.441  1.00  0.00    -0.040 A 
HETATM    7  C   UNL     1       7.229  26.838  53.513  1.00  0.00     0.011 A 
HETATM    8  C   UNL     1       7.525  25.479  53.351  1.00  0.00     0.030 A 
HETATM    9  C   UNL     1       6.863  24.513  54.111  1.00  0.00     0.034 A 
HETATM   10  C   UNL     1       5.886  24.929  55.023  1.00  0.00     0.030 A 
HETATM   11  C   UNL     1       5.586  26.286  55.184  1.00  0.00     0.011 A 
BRANCH   9  12
HETATM   12  N   UNL     1       7.118  23.129  54.027  1.00  0.00    -0.327 N 
HETATM   13  C   UNL     1       7.863  22.349  54.898  1.00  0.00     0.225 C 
HETATM   14  O   UNL     1       8.445  22.745  55.903  1.00  0.00    -0.273 OA
HETATM   15  H   UNL     1       6.686  22.651  53.246  1.00  0.00     0.169 HD
BRANCH  13  16
HETATM   16  C   UNL     1       7.892  20.874  54.479  1.00  0.00     0.070 C 
HETATM   17  C   UNL     1       8.467  20.721  53.072  1.00  0.00     0.019 C 
HETATM   18  C   UNL     1       8.698  20.036  55.471  1.00  0.00     0.019 C 
ENDBRANCH  13  16
ENDBRANCH   9  12
ENDBRANCH   5   6
ENDBRANCH   2   5
BRANCH   1  19
HETATM   19  C   UNL     1       7.892  29.941  57.568  1.00  0.00     0.157 A 
HETATM   20  C   UNL     1       7.898  30.849  58.669  1.00  0.00     0.029 A 
HETATM   21  C   UNL     1       6.928  31.555  59.408  1.00  0.00     0.023 A 
HETATM   22  C   UNL     1       9.237  30.994  59.011  1.00  0.00     0.063 A 
HETATM   23  C   UNL     1       7.332  32.382  60.469  1.00  0.00    -0.061 A 
HETATM   24  C   UNL     1       6.315  33.140  61.273  1.00  0.00     0.048 C 
HETATM   25  C   UNL     1       8.693  32.500  60.780  1.00  0.00     0.009 A 
HETATM   26  C   UNL     1       9.672  31.810  60.059  1.00  0.00     0.032 A 
HETATM   27  N   UNL     1       9.921  30.201  58.133  1.00  0.00    -0.277 N 
HETATM   28  H   UNL     1      10.924  30.060  58.089  1.00  0.00     0.189 HD
HETATM   29  N   UNL     1       9.145  29.545  57.251  1.00  0.00    -0.168 NA
ENDBRANCH   1  19
TORSDOF 5
ENDMDL
MODEL 8
REMARK VINA RESULT:      -8.9      4.109      7.092
REMARK  5 active torsions:
REMARK  status: ('A' for Active; 'I' for Inactive)
REMARK    1  A    between atoms: C_9  and  C_10 
REMARK       I    between atoms: C_10  and  N_11 
REMARK    2  A    between atoms: N_11  and  C_12 
REMARK    3  A    between atoms: C_12  and  C_13 
REMARK    4  A    between atoms: C_16  and  N_17 
REMARK       I    between atoms: N_17  and  C_18 
REMARK    5  A    between atoms: C_18  and  C_19 
ROOT
HETATM    1  C   UNL     1       8.616  30.006  58.787  1.00  0.00     0.273 C 
HETATM    2  N   UNL     1       8.200  30.080  60.098  1.00  0.00    -0.351 N 
HETATM    3  O   UNL     1       9.532  30.690  58.337  1.00  0.00    -0.266 OA
HETATM    4  H   UNL     1       7.512  29.388  60.384  1.00  0.00     0.163 HD
ENDROOT
BRANCH   2   5
HETATM    5  C   UNL     1       8.929  30.846  61.070  1.00  0.00     0.161 C 
BRANCH   5   6
HETATM    6  C   UNL     1       8.042  31.838  61.769  1.00  0.00    -0.040 A 
HETATM    7  C   UNL     1       6.937  32.392  61.112  1.00  0.00     0.011 A 
HETATM    8  C   UNL     1       6.104  33.310  61.762  1.00  0.00     0.030 A 
HETATM    9  C   UNL     1       6.364  33.696  63.078  1.00  0.00     0.034 A 
HETATM   10  C   UNL     1       7.483  33.160  63.727  1.00  0.00     0.030 A 
HETATM   11  C   UNL     1       8.318  32.245  63.079  1.00  0.00     0.011 A 
BRANCH   9  12
HETATM   12  N   UNL     1       5.563  34.596  63.812  1.00  0.00    -0.327 N 
HETATM   13  C   UNL     1       4.700  34.305  64.857  1.00  0.00     0.225 C 
HETATM   14  O   UNL     1       4.477  33.191  65.320  1.00  0.00    -0.273 OA
HETATM   15  H   UNL     1       5.650  35.570  63.553  1.00  0.00     0.169 HD
BRANCH  13  16
HETATM   16  C   UNL     1       4.019  35.560  65.416  1.00  0.00     0.070 C 
HETATM   17  C   UNL     1       4.502  35.854  66.835  1.00  0.00     0.019 C 
HETATM   18  C   UNL     1       4.268  36.769  64.515  1.00  0.00     0.019 C 
ENDBRANCH  13  16
ENDBRANCH   9  12
ENDBRANCH   5   6
ENDBRANCH   2   5
BRANCH   1  19
HETATM   19  C   UNL     1       7.873  29.017  57.991  1.00  0.00     0.157 A 
HETATM   20  C   UNL     1       6.551  29.146  57.469  1.00  0.00     0.029 A 
HETATM   21  C   UNL     1       5.541  30.129  57.497  1.00  0.00     0.023 A 
HETATM   22  C   UNL     1       6.313  27.960  56.786  1.00  0.00     0.063 A 
HETATM   23  C   UNL     1       4.324  29.890  56.836  1.00  0.00    -0.061 A 
HETATM   24  C   UNL     1       3.235  30.924  56.849  1.00  0.00     0.048 C 
HETATM   25  C   UNL     1       4.126  28.679  56.159  1.00  0.00     0.009 A 
HETATM   26  C   UNL     1       5.115  27.690  56.121  1.00  0.00     0.032 A 
HETATM   27  N   UNL     1       7.455  27.225  56.935  1.00  0.00    -0.277 N 
HETATM   28  H   UNL     1       7.640  26.299  56.565  1.00  0.00     0.189 HD
HETATM   29  N   UNL     1       8.421  27.829  57.650  1.00  0.00    -0.168 NA
ENDBRANCH   1  19
TORSDOF 5
ENDMDL
MODEL 9
REMARK VINA RESULT:      -8.8      1.857      9.773
REMARK  5 active torsions:
REMARK  status: ('A' for Active; 'I' for Inactive)
REMARK    1  A    between atoms: C_9  and  C_10 
REMARK       I    between atoms: C_10  and  N_11 
REMARK    2  A    between atoms: N_11  and  C_12 
REMARK    3  A    between atoms: C_12  and  C_13 
REMARK    4  A    between atoms: C_16  and  N_17 
REMARK       I    between atoms: N_17  and  C_18 
REMARK    5  A    between atoms: C_18  and  C_19 
ROOT
HETATM    1  C   UNL     1       7.828  31.282  59.285  1.00  0.00     0.273 C 
HETATM    2  N   UNL     1       6.589  30.794  58.932  1.00  0.00    -0.351 N 
HETATM    3  O   UNL     1       8.667  31.637  58.460  1.00  0.00    -0.266 OA
HETATM    4  H   UNL     1       5.940  30.639  59.698  1.00  0.00     0.163 HD
ENDROOT
BRANCH   2   5
HETATM    5  C   UNL     1       6.134  30.829  57.570  1.00  0.00     0.161 C 
BRANCH   5   6
HETATM    6  C   UNL     1       6.295  29.493  56.900  1.00  0.00    -0.040 A 
HETATM    7  C   UNL     1       7.401  29.235  56.081  1.00  0.00     0.011 A 
HETATM    8  C   UNL     1       7.558  27.990  55.462  1.00  0.00     0.030 A 
HETATM    9  C   UNL     1       6.611  26.981  55.645  1.00  0.00     0.034 A 
HETATM   10  C   UNL     1       5.493  27.246  56.446  1.00  0.00     0.030 A 
HETATM   11  C   UNL     1       5.333  28.491  57.063  1.00  0.00     0.011 A 
BRANCH   9  12
HETATM   12  N   UNL     1       6.706  25.694  55.079  1.00  0.00    -0.327 N 
HETATM   13  C   UNL     1       7.306  24.569  55.623  1.00  0.00     0.225 C 
HETATM   14  O   UNL     1       7.877  24.509  56.708  1.00  0.00    -0.273 OA
HETATM   15  H   UNL     1       6.264  25.580  54.176  1.00  0.00     0.169 HD
BRANCH  13  16
HETATM   16  C   UNL     1       7.185  23.344  54.709  1.00  0.00     0.070 C 
HETATM   17  C   UNL     1       7.887  23.590  53.374  1.00  0.00     0.019 C 
HETATM   18  C   UNL     1       7.757  22.096  55.381  1.00  0.00     0.019 C 
ENDBRANCH  13  16
ENDBRANCH   9  12
ENDBRANCH   5   6
ENDBRANCH   2   5
BRANCH   1  19
HETATM   19  C   UNL     1       8.037  31.355  60.739  1.00  0.00     0.157 A 
HETATM   20  C   UNL     1       7.505  32.325  61.640  1.00  0.00     0.029 A 
HETATM   21  C   UNL     1       6.680  33.463  61.535  1.00  0.00     0.023 A 
HETATM   22  C   UNL     1       7.978  31.955  62.892  1.00  0.00     0.063 A 
HETATM   23  C   UNL     1       6.355  34.193  62.691  1.00  0.00    -0.061 A 
HETATM   24  C   UNL     1       5.475  35.406  62.603  1.00  0.00     0.048 C 
HETATM   25  C   UNL     1       6.855  33.784  63.934  1.00  0.00     0.009 A 
HETATM   26  C   UNL     1       7.676  32.658  64.061  1.00  0.00     0.032 A 
HETATM   27  N   UNL     1       8.732  30.836  62.675  1.00  0.00    -0.277 N 
HETATM   28  H   UNL     1       9.233  30.291  63.368  1.00  0.00     0.189 HD
HETATM   29  N   UNL     1       8.788  30.440  61.391  1.00  0.00    -0.168 NA
ENDBRANCH   1  19
TORSDOF 5
ENDMDL
MODEL 10
REMARK VINA RESULT:      -8.8      5.812      9.377
REMARK  5 active torsions:
REMARK  status: ('A' for Active; 'I' for Inactive)
REMARK    1  A    between atoms: C_9  and  C_10 
REMARK       I    between atoms: C_10  and  N_11 
REMARK    2  A    between atoms: N_11  and  C_12 
REMARK    3  A    between atoms: C_12  and  C_13 
REMARK    4  A    between atoms: C_16  and  N_17 
REMARK       I    between atoms: N_17  and  C_18 
REMARK    5  A    between atoms: C_18  and  C_19 
ROOT
HETATM    1  C   UNL     1       4.533  27.634  49.791  1.00  0.00     0.273 C 
HETATM    2  N   UNL     1       4.357  27.172  51.077  1.00  0.00    -0.351 N 
HETATM    3  O   UNL     1       5.431  28.412  49.477  1.00  0.00    -0.266 OA
HETATM    4  H   UNL     1       3.654  26.448  51.195  1.00  0.00     0.163 HD
ENDROOT
BRANCH   2   5
HETATM    5  C   UNL     1       5.324  27.442  52.105  1.00  0.00     0.161 C 
BRANCH   5   6
HETATM    6  C   UNL     1       5.965  26.177  52.605  1.00  0.00    -0.040 A 
HETATM    7  C   UNL     1       6.963  25.540  51.858  1.00  0.00     0.011 A 
HETATM    8  C   UNL     1       7.567  24.367  52.325  1.00  0.00     0.030 A 
HETATM    9  C   UNL     1       7.181  23.805  53.542  1.00  0.00     0.034 A 
HETATM   10  C   UNL     1       6.166  24.429  54.278  1.00  0.00     0.030 A 
HETATM   11  C   UNL     1       5.559  25.599  53.813  1.00  0.00     0.011 A 
BRANCH   9  12
HETATM   12  N   UNL     1       7.754  22.641  54.094  1.00  0.00    -0.327 N 
HETATM   13  C   UNL     1       8.710  22.558  55.095  1.00  0.00     0.225 C 
HETATM   14  O   UNL     1       9.235  23.505  55.671  1.00  0.00    -0.273 OA
HETATM   15  H   UNL     1       7.406  21.765  53.725  1.00  0.00     0.169 HD
BRANCH  13  16
HETATM   16  C   UNL     1       9.067  21.107  55.440  1.00  0.00     0.070 C 
HETATM   17  C   UNL     1       8.424  20.688  56.760  1.00  0.00     0.019 C 
HETATM   18  C   UNL     1       8.642  20.155  54.322  1.00  0.00     0.019 C 
ENDBRANCH  13  16
ENDBRANCH   9  12
ENDBRANCH   5   6
ENDBRANCH   2   5
BRANCH   1  19
HETATM   19  C   UNL     1       3.557  27.090  48.835  1.00  0.00     0.157 A 
HETATM   20  C   UNL     1       2.491  27.791  48.196  1.00  0.00     0.029 A 
HETATM   21  C   UNL     1       1.988  29.107  48.212  1.00  0.00     0.023 A 
HETATM   22  C   UNL     1       1.873  26.848  47.384  1.00  0.00     0.063 A 
HETATM   23  C   UNL     1       0.882  29.437  47.412  1.00  0.00    -0.061 A 
HETATM   24  C   UNL     1       0.332  30.834  47.412  1.00  0.00     0.048 C 
HETATM   25  C   UNL     1       0.287  28.455  46.608  1.00  0.00     0.009 A 
HETATM   26  C   UNL     1       0.770  27.142  46.577  1.00  0.00     0.032 A 
HETATM   27  N   UNL     1       2.574  25.691  47.578  1.00  0.00    -0.277 N 
HETATM   28  H   UNL     1       2.403  24.792  47.143  1.00  0.00     0.189 HD
HETATM   29  N   UNL     1       3.600  25.797  48.440  1.00  0.00    -0.168 NA
ENDBRANCH   1  19
TORSDOF 5
ENDMDL
