MODEL 1
REMARK VINA RESULT:      -9.2      0.000      0.000
REMARK  5 active torsions:
REMARK  status: ('A' for Active; 'I' for Inactive)
REMARK    1  A    between atoms: C_3  and  N_4 
REMARK       I    between atoms: N_4  and  C_5 
REMARK       I    between atoms: C_5  and  N_6 
REMARK    2  A    between atoms: N_6  and  C_7 
REMARK    3  A    between atoms: C_7  and  C_8 
REMARK    4  A    between atoms: C_10  and  O_11 
REMARK    5  A    between atoms: O_11  and  C_12 
ROOT
HETATM    1  N   UNL     1       7.583  25.731  55.242  1.00  0.00    -0.308 N 
HETATM    2  C   UNL     1       6.391  26.191  55.762  1.00  0.00     0.321 C 
HETATM    3  N   UNL     1       6.550  27.444  56.312  1.00  0.00    -0.339 N 
HETATM    4  O   UNL     1       5.311  25.619  55.719  1.00  0.00    -0.247 OA
HETATM    5  H   UNL     1       8.134  26.479  54.851  1.00  0.00     0.170 HD
HETATM    6  H   UNL     1       7.486  27.724  56.561  1.00  0.00     0.164 HD
ENDROOT
BRANCH   3   7
HETATM    7  C   UNL     1       5.453  28.105  56.987  1.00  0.00     0.163 C 
BRANCH   7   8
HETATM    8  C   UNL     1       5.783  29.502  57.446  1.00  0.00    -0.035 A 
HETATM    9  C   UNL     1       7.007  29.821  58.043  1.00  0.00     0.066 A 
HETATM   10  C   UNL     1       7.262  31.140  58.384  1.00  0.00     0.164 A 
HETATM   11  N   UNL     1       6.403  32.157  58.165  1.00  0.00    -0.237 NA
HETATM   12  C   UNL     1       5.239  31.836  57.567  1.00  0.00     0.120 A 
HETATM   13  C   UNL     1       4.888  30.547  57.193  1.00  0.00     0.028 A 
BRANCH  10  14
HETATM   14  O   UNL     1       8.477  31.398  58.991  1.00  0.00    -0.329 OA
BRANCH  14  15
HETATM   15  C   UNL     1       8.427  32.148  60.223  1.00  0.00     0.130 C 
HETATM   16  C   UNL     1       7.558  31.569  61.371  1.00  0.00     0.032 C 
HETATM   17  C   UNL     1       8.665  32.006  62.346  1.00  0.00     0.005 C 
HETATM   18  C   UNL     1       9.643  31.929  61.161  1.00  0.00     0.032 C 
ENDBRANCH  14  15
ENDBRANCH  10  14
ENDBRANCH   7   8
ENDBRANCH   3   7
BRANCH   1  19
HETATM   19  C   UNL     1       7.796  24.439  54.697  1.00  0.00     0.048 A 
HETATM   20  C   UNL     1       7.740  24.302  53.287  1.00  0.00    -0.033 A 
HETATM   21  C   UNL     1       7.462  25.466  52.371  1.00  0.00     0.050 C 
HETATM   22  C   UNL     1       7.914  23.036  52.701  1.00  0.00     0.033 A 
HETATM   23  C   UNL     1       8.153  21.920  53.492  1.00  0.00     0.035 A 
HETATM   24  C   UNL     1       8.254  22.052  54.870  1.00  0.00     0.033 A 
HETATM   25 CL   UNL     1       8.349  20.376  52.760  1.00  0.00    -0.084 Cl
HETATM   26  C   UNL     1       8.112  23.310  55.490  1.00  0.00    -0.033 A 
HETATM   27  C   UNL     1       8.347  23.350  56.976  1.00  0.00     0.050 C 
ENDBRANCH   1  19
TORSDOF 5
ENDMDL
MODEL 2
REMARK VINA RESULT:      -9.1      0.288      1.866
REMARK  5 active torsions:
REMARK  status: ('A' for Active; 'I' for Inactive)
REMARK    1  A    between atoms: C_3  and  N_4 
REMARK       I    between atoms: N_4  and  C_5 
REMARK       I    between atoms: C_5  and  N_6 
REMARK    2  A    between atoms: N_6  and  C_7 
REMARK    3  A    between atoms: C_7  and  C_8 
REMARK    4  A    between atoms: C_10  and  O_11 
REMARK    5  A    between atoms: O_11  and  C_12 
ROOT
HETATM    1  N   UNL     1       7.612  25.751  55.298  1.00  0.00    -0.308 N 
HETATM    2  C   UNL     1       6.401  26.200  55.783  1.00  0.00     0.321 C 
HETATM    3  N   UNL     1       6.550  27.415  56.415  1.00  0.00    -0.339 N 
HETATM    4  O   UNL     1       5.317  25.651  55.651  1.00  0.00    -0.247 OA
HETATM    5  H   UNL     1       8.192  26.511  54.981  1.00  0.00     0.170 HD
HETATM    6  H   UNL     1       7.476  27.663  56.728  1.00  0.00     0.164 HD
ENDROOT
BRANCH   3   7
HETATM    7  C   UNL     1       5.428  28.053  57.073  1.00  0.00     0.163 C 
BRANCH   7   8
HETATM    8  C   UNL     1       5.682  29.495  57.430  1.00  0.00    -0.035 A 
HETATM    9  C   UNL     1       6.881  29.920  58.012  1.00  0.00     0.066 A 
HETATM   10  C   UNL     1       7.064  31.272  58.256  1.00  0.00     0.164 A 
HETATM   11  N   UNL     1       6.158  32.225  57.953  1.00  0.00    -0.237 NA
HETATM   12  C   UNL     1       5.020  31.801  57.371  1.00  0.00     0.120 A 
HETATM   13  C   UNL     1       4.739  30.472  57.091  1.00  0.00     0.028 A 
BRANCH  10  14
HETATM   14  O   UNL     1       8.257  31.637  58.852  1.00  0.00    -0.329 OA
BRANCH  14  15
HETATM   15  C   UNL     1       8.441  31.210  60.219  1.00  0.00     0.130 C 
HETATM   16  C   UNL     1       9.583  31.884  61.026  1.00  0.00     0.032 C 
HETATM   17  C   UNL     1       8.634  31.899  62.237  1.00  0.00     0.005 C 
HETATM   18  C   UNL     1       7.466  31.861  61.235  1.00  0.00     0.032 C 
ENDBRANCH  14  15
ENDBRANCH  10  14
ENDBRANCH   7   8
ENDBRANCH   3   7
BRANCH   1  19
HETATM   19  C   UNL     1       7.834  24.490  54.687  1.00  0.00     0.048 A 
HETATM   20  C   UNL     1       8.214  23.411  55.525  1.00  0.00    -0.033 A 
HETATM   21  C   UNL     1       8.390  23.565  57.013  1.00  0.00     0.050 C 
HETATM   22  C   UNL     1       8.477  22.150  54.962  1.00  0.00     0.033 A 
HETATM   23  C   UNL     1       8.353  21.949  53.594  1.00  0.00     0.035 A 
HETATM   24  C   UNL     1       7.938  22.988  52.772  1.00  0.00     0.033 A 
HETATM   25 CL   UNL     1       8.691  20.402  52.919  1.00  0.00    -0.084 Cl
HETATM   26  C   UNL     1       7.641  24.258  53.304  1.00  0.00    -0.033 A 
HETATM   27  C   UNL     1       7.098  25.275  52.336  1.00  0.00     0.050 C 
ENDBRANCH   1  19
TORSDOF 5
ENDMDL
MODEL 3
REMARK VINA RESULT:      -8.9      1.521      2.564
REMARK  5 active torsions:
REMARK  status: ('A' for Active; 'I' for Inactive)
REMARK    1  A    between atoms: C_3  and  N_4 
REMARK       I    between atoms: N_4  and  C_5 
REMARK       I    between atoms: C_5  and  N_6 
REMARK    2  A    between atoms: N_6  and  C_7 
REMARK    3  A    between atoms: C_7  and  C_8 
REMARK    4  A    between atoms: C_10  and  O_11 
REMARK    5  A    between atoms: O_11  and  C_12 
ROOT
HETATM    1  N   UNL     1       6.809  25.524  55.817  1.00  0.00    -0.308 N 
HETATM    2  C   UNL     1       7.087  26.822  55.442  1.00  0.00     0.321 C 
HETATM    3  N   UNL     1       6.505  27.717  56.313  1.00  0.00    -0.339 N 
HETATM    4  O   UNL     1       7.787  27.172  54.502  1.00  0.00    -0.247 OA
HETATM    5  H   UNL     1       6.766  25.426  56.819  1.00  0.00     0.170 HD
HETATM    6  H   UNL     1       5.736  27.383  56.873  1.00  0.00     0.164 HD
ENDROOT
BRANCH   3   7
HETATM    7  C   UNL     1       6.595  29.144  56.082  1.00  0.00     0.163 C 
BRANCH   7   8
HETATM    8  C   UNL     1       7.621  29.829  56.947  1.00  0.00    -0.035 A 
HETATM    9  C   UNL     1       7.268  30.767  57.922  1.00  0.00     0.066 A 
HETATM   10  C   UNL     1       8.264  31.310  58.720  1.00  0.00     0.164 A 
HETATM   11  N   UNL     1       9.569  30.981  58.629  1.00  0.00    -0.237 NA
HETATM   12  C   UNL     1       9.888  30.058  57.701  1.00  0.00     0.120 A 
HETATM   13  C   UNL     1       8.968  29.461  56.851  1.00  0.00     0.028 A 
BRANCH  10  14
HETATM   14  O   UNL     1       7.865  32.248  59.654  1.00  0.00    -0.329 OA
BRANCH  14  15
HETATM   15  C   UNL     1       7.774  31.788  61.019  1.00  0.00     0.130 C 
HETATM   16  C   UNL     1       9.027  31.971  61.916  1.00  0.00     0.032 C 
HETATM   17  C   UNL     1       8.074  32.356  63.061  1.00  0.00     0.005 C 
HETATM   18  C   UNL     1       7.056  32.769  61.983  1.00  0.00     0.032 C 
ENDBRANCH  14  15
ENDBRANCH  10  14
ENDBRANCH   7   8
ENDBRANCH   3   7
BRANCH   1  19
HETATM   19  C   UNL     1       7.166  24.363  55.083  1.00  0.00     0.048 A 
HETATM   20  C   UNL     1       8.127  23.493  55.657  1.00  0.00    -0.033 A 
HETATM   21  C   UNL     1       8.770  23.764  56.993  1.00  0.00     0.050 C 
HETATM   22  C   UNL     1       8.537  22.346  54.955  1.00  0.00     0.033 A 
HETATM   23  C   UNL     1       7.998  22.052  53.710  1.00  0.00     0.035 A 
HETATM   24  C   UNL     1       7.024  22.874  53.161  1.00  0.00     0.033 A 
HETATM   25 CL   UNL     1       8.521  20.651  52.858  1.00  0.00    -0.084 Cl
HETATM   26  C   UNL     1       6.569  24.017  53.848  1.00  0.00    -0.033 A 
HETATM   27  C   UNL     1       5.436  24.773  53.207  1.00  0.00     0.050 C 
ENDBRANCH   1  19
TORSDOF 5
ENDMDL
MODEL 4
REMARK VINA RESULT:      -8.6      3.478      8.759
REMARK  5 active torsions:
REMARK  status: ('A' for Active; 'I' for Inactive)
REMARK    1  A    between atoms: C_3  and  N_4 
REMARK       I    between atoms: N_4  and  C_5 
REMARK       I    between atoms: C_5  and  N_6 
REMARK    2  A    between atoms: N_6  and  C_7 
REMARK    3  A    between atoms: C_7  and  C_8 
REMARK    4  A    between atoms: C_10  and  O_11 
REMARK    5  A    between atoms: O_11  and  C_12 
ROOT
HETATM    1  N   UNL     1       7.428  29.732  56.218  1.00  0.00    -0.308 N 
HETATM    2  C   UNL     1       6.846  28.491  56.061  1.00  0.00     0.321 C 
HETATM    3  N   UNL     1       6.432  28.309  54.760  1.00  0.00    -0.339 N 
HETATM    4  O   UNL     1       6.736  27.627  56.919  1.00  0.00    -0.247 OA
HETATM    5  H   UNL     1       7.936  30.014  55.395  1.00  0.00     0.170 HD
HETATM    6  H   UNL     1       6.296  29.135  54.198  1.00  0.00     0.164 HD
ENDROOT
BRANCH   3   7
HETATM    7  C   UNL     1       5.722  27.109  54.367  1.00  0.00     0.163 C 
BRANCH   7   8
HETATM    8  C   UNL     1       6.619  26.040  53.799  1.00  0.00    -0.035 A 
HETATM    9  C   UNL     1       7.267  25.102  54.610  1.00  0.00     0.066 A 
HETATM   10  C   UNL     1       8.028  24.111  54.009  1.00  0.00     0.164 A 
HETATM   11  N   UNL     1       8.178  23.977  52.675  1.00  0.00    -0.237 NA
HETATM   12  C   UNL     1       7.527  24.874  51.908  1.00  0.00     0.120 A 
HETATM   13  C   UNL     1       6.748  25.905  52.412  1.00  0.00     0.028 A 
BRANCH  10  14
HETATM   14  O   UNL     1       8.665  23.222  54.855  1.00  0.00    -0.329 OA
BRANCH  14  15
HETATM   15  C   UNL     1       7.850  22.156  55.388  1.00  0.00     0.130 C 
HETATM   16  C   UNL     1       7.919  20.783  54.670  1.00  0.00     0.032 C 
HETATM   17  C   UNL     1       7.881  20.124  56.060  1.00  0.00     0.005 C 
HETATM   18  C   UNL     1       8.457  21.437  56.621  1.00  0.00     0.032 C 
ENDBRANCH  14  15
ENDBRANCH  10  14
ENDBRANCH   7   8
ENDBRANCH   3   7
BRANCH   1  19
HETATM   19  C   UNL     1       7.869  30.282  57.450  1.00  0.00     0.048 A 
HETATM   20  C   UNL     1       9.246  30.163  57.768  1.00  0.00    -0.033 A 
HETATM   21  C   UNL     1      10.232  29.480  56.856  1.00  0.00     0.050 C 
HETATM   22  C   UNL     1       9.725  30.665  58.991  1.00  0.00     0.033 A 
HETATM   23  C   UNL     1       8.863  31.287  59.884  1.00  0.00     0.035 A 
HETATM   24  C   UNL     1       7.522  31.447  59.561  1.00  0.00     0.033 A 
HETATM   25 CL   UNL     1       9.463  31.882  61.383  1.00  0.00    -0.084 Cl
HETATM   26  C   UNL     1       7.012  30.981  58.333  1.00  0.00    -0.033 A 
HETATM   27  C   UNL     1       5.570  31.304  58.045  1.00  0.00     0.050 C 
ENDBRANCH   1  19
TORSDOF 5
ENDMDL
MODEL 5
REMARK VINA RESULT:      -8.5      4.261      9.968
REMARK  5 active torsions:
REMARK  status: ('A' for Active; 'I' for Inactive)
REMARK    1  A    between atoms: C_3  and  N_4 
REMARK       I    between atoms: N_4  and  C_5 
REMARK       I    between atoms: C_5  and  N_6 
REMARK    2  A    between atoms: N_6  and  C_7 
REMARK    3  A    between atoms: C_7  and  C_8 
REMARK    4  A    between atoms: C_10  and  O_11 
REMARK    5  A    between atoms: O_11  and  C_12 
ROOT
HETATM    1  N   UNL     1       6.817  31.194  60.339  1.00  0.00    -0.308 N 
HETATM    2  C   UNL     1       7.623  31.295  59.224  1.00  0.00     0.321 C 
HETATM    3  N   UNL     1       7.337  30.292  58.324  1.00  0.00    -0.339 N 
HETATM    4  O   UNL     1       8.454  32.165  59.006  1.00  0.00    -0.247 OA
HETATM    5  H   UNL     1       5.896  30.859  60.106  1.00  0.00     0.170 HD
HETATM    6  H   UNL     1       6.864  29.475  58.678  1.00  0.00     0.164 HD
ENDROOT
BRANCH   3   7
HETATM    7  C   UNL     1       8.107  30.145  57.106  1.00  0.00     0.163 C 
BRANCH   7   8
HETATM    8  C   UNL     1       7.375  29.401  56.019  1.00  0.00    -0.035 A 
HETATM    9  C   UNL     1       8.015  28.477  55.187  1.00  0.00     0.066 A 
HETATM   10  C   UNL     1       7.261  27.787  54.249  1.00  0.00     0.164 A 
HETATM   11  N   UNL     1       5.930  27.937  54.090  1.00  0.00    -0.237 NA
HETATM   12  C   UNL     1       5.326  28.813  54.916  1.00  0.00     0.120 A 
HETATM   13  C   UNL     1       5.991  29.556  55.881  1.00  0.00     0.028 A 
BRANCH  10  14
HETATM   14  O   UNL     1       7.945  26.901  53.438  1.00  0.00    -0.329 OA
BRANCH  14  15
HETATM   15  C   UNL     1       7.317  25.619  53.224  1.00  0.00     0.130 C 
HETATM   16  C   UNL     1       7.773  24.802  51.986  1.00  0.00     0.032 C 
HETATM   17  C   UNL     1       7.698  23.543  52.867  1.00  0.00     0.005 C 
HETATM   18  C   UNL     1       7.899  24.466  54.083  1.00  0.00     0.032 C 
ENDBRANCH  14  15
ENDBRANCH  10  14
ENDBRANCH   7   8
ENDBRANCH   3   7
BRANCH   1  19
HETATM   19  C   UNL     1       6.919  32.002  61.501  1.00  0.00     0.048 A 
HETATM   20  C   UNL     1       7.931  31.680  62.440  1.00  0.00    -0.033 A 
HETATM   21  C   UNL     1       8.879  30.525  62.245  1.00  0.00     0.050 C 
HETATM   22  C   UNL     1       8.052  32.432  63.622  1.00  0.00     0.033 A 
HETATM   23  C   UNL     1       7.195  33.496  63.871  1.00  0.00     0.035 A 
HETATM   24  C   UNL     1       6.230  33.846  62.937  1.00  0.00     0.033 A 
HETATM   25 CL   UNL     1       7.348  34.397  65.329  1.00  0.00    -0.084 Cl
HETATM   26  C   UNL     1       6.098  33.132  61.729  1.00  0.00    -0.033 A 
HETATM   27  C   UNL     1       5.091  33.667  60.746  1.00  0.00     0.050 C 
ENDBRANCH   1  19
TORSDOF 5
ENDMDL
MODEL 6
REMARK VINA RESULT:      -8.4      1.710      2.349
REMARK  5 active torsions:
REMARK  status: ('A' for Active; 'I' for Inactive)
REMARK    1  A    between atoms: C_3  and  N_4 
REMARK       I    between atoms: N_4  and  C_5 
REMARK       I    between atoms: C_5  and  N_6 
REMARK    2  A    between atoms: N_6  and  C_7 
REMARK    3  A    between atoms: C_7  and  C_8 
REMARK    4  A    between atoms: C_10  and  O_11 
REMARK    5  A    between atoms: O_11  and  C_12 
ROOT
HETATM    1  N   UNL     1       7.612  25.998  54.669  1.00  0.00    -0.308 N 
HETATM    2  C   UNL     1       6.597  26.466  55.477  1.00  0.00     0.321 C 
HETATM    3  N   UNL     1       6.758  27.811  55.730  1.00  0.00    -0.339 N 
HETATM    4  O   UNL     1       5.645  25.823  55.894  1.00  0.00    -0.247 OA
HETATM    5  H   UNL     1       7.907  26.691  53.999  1.00  0.00     0.170 HD
HETATM    6  H   UNL     1       7.679  28.199  55.601  1.00  0.00     0.164 HD
ENDROOT
BRANCH   3   7
HETATM    7  C   UNL     1       5.855  28.513  56.619  1.00  0.00     0.163 C 
BRANCH   7   8
HETATM    8  C   UNL     1       6.547  29.507  57.516  1.00  0.00    -0.035 A 
HETATM    9  C   UNL     1       5.969  30.735  57.854  1.00  0.00     0.066 A 
HETATM   10  C   UNL     1       6.640  31.571  58.733  1.00  0.00     0.164 A 
HETATM   11  N   UNL     1       7.826  31.274  59.304  1.00  0.00    -0.237 NA
HETATM   12  C   UNL     1       8.357  30.077  58.985  1.00  0.00     0.120 A 
HETATM   13  C   UNL     1       7.768  29.173  58.113  1.00  0.00     0.028 A 
BRANCH  10  14
HETATM   14  O   UNL     1       6.036  32.781  59.018  1.00  0.00    -0.329 OA
BRANCH  14  15
HETATM   15  C   UNL     1       5.260  32.834  60.235  1.00  0.00     0.130 C 
HETATM   16  C   UNL     1       4.744  34.225  60.689  1.00  0.00     0.032 C 
HETATM   17  C   UNL     1       3.428  33.536  61.091  1.00  0.00     0.005 C 
HETATM   18  C   UNL     1       3.769  32.440  60.066  1.00  0.00     0.032 C 
ENDBRANCH  14  15
ENDBRANCH  10  14
ENDBRANCH   7   8
ENDBRANCH   3   7
BRANCH   1  19
HETATM   19  C   UNL     1       7.809  24.641  54.301  1.00  0.00     0.048 A 
HETATM   20  C   UNL     1       7.553  24.282  52.953  1.00  0.00    -0.033 A 
HETATM   21  C   UNL     1       7.085  25.278  51.924  1.00  0.00     0.050 C 
HETATM   22  C   UNL     1       7.703  22.944  52.547  1.00  0.00     0.033 A 
HETATM   23  C   UNL     1       8.112  21.975  53.454  1.00  0.00     0.035 A 
HETATM   24  C   UNL     1       8.407  22.326  54.764  1.00  0.00     0.033 A 
HETATM   25 CL   UNL     1       8.278  20.340  52.944  1.00  0.00    -0.084 Cl
HETATM   26  C   UNL     1       8.294  23.661  55.199  1.00  0.00    -0.033 A 
HETATM   27  C   UNL     1       8.742  23.943  56.608  1.00  0.00     0.050 C 
ENDBRANCH   1  19
TORSDOF 5
ENDMDL
MODEL 7
REMARK VINA RESULT:      -8.3      4.317      7.063
REMARK  5 active torsions:
REMARK  status: ('A' for Active; 'I' for Inactive)
REMARK    1  A    between atoms: C_3  and  N_4 
REMARK       I    between atoms: N_4  and  C_5 
REMARK       I    between atoms: C_5  and  N_6 
REMARK    2  A    between atoms: N_6  and  C_7 
REMARK    3  A    between atoms: C_7  and  C_8 
REMARK    4  A    between atoms: C_10  and  O_11 
REMARK    5  A    between atoms: O_11  and  C_12 
ROOT
HETATM    1  N   UNL     1       5.089  25.868  54.861  1.00  0.00    -0.308 N 
HETATM    2  C   UNL     1       5.285  27.230  54.760  1.00  0.00     0.321 C 
HETATM    3  N   UNL     1       4.098  27.907  54.939  1.00  0.00    -0.339 N 
HETATM    4  O   UNL     1       6.352  27.799  54.584  1.00  0.00    -0.247 OA
HETATM    5  H   UNL     1       4.380  25.642  55.540  1.00  0.00     0.170 HD
HETATM    6  H   UNL     1       3.245  27.390  54.798  1.00  0.00     0.164 HD
ENDROOT
BRANCH   3   7
HETATM    7  C   UNL     1       4.037  29.348  54.804  1.00  0.00     0.163 C 
BRANCH   7   8
HETATM    8  C   UNL     1       3.626  29.805  53.428  1.00  0.00    -0.035 A 
HETATM    9  C   UNL     1       3.430  28.909  52.372  1.00  0.00     0.066 A 
HETATM   10  C   UNL     1       2.994  29.399  51.150  1.00  0.00     0.164 A 
HETATM   11  N   UNL     1       2.728  30.699  50.909  1.00  0.00    -0.237 NA
HETATM   12  C   UNL     1       2.899  31.545  51.943  1.00  0.00     0.120 A 
HETATM   13  C   UNL     1       3.337  31.155  53.200  1.00  0.00     0.028 A 
BRANCH  10  14
HETATM   14  O   UNL     1       2.836  28.475  50.134  1.00  0.00    -0.329 OA
BRANCH  14  15
HETATM   15  C   UNL     1       4.050  27.994  49.518  1.00  0.00     0.130 C 
HETATM   16  C   UNL     1       4.083  26.506  49.079  1.00  0.00     0.032 C 
HETATM   17  C   UNL     1       4.834  26.959  47.815  1.00  0.00     0.005 C 
HETATM   18  C   UNL     1       4.190  28.343  48.012  1.00  0.00     0.032 C 
ENDBRANCH  14  15
ENDBRANCH  10  14
ENDBRANCH   7   8
ENDBRANCH   3   7
BRANCH   1  19
HETATM   19  C   UNL     1       6.078  24.878  54.626  1.00  0.00     0.048 A 
HETATM   20  C   UNL     1       6.230  24.402  53.299  1.00  0.00    -0.033 A 
HETATM   21  C   UNL     1       5.387  24.905  52.156  1.00  0.00     0.050 C 
HETATM   22  C   UNL     1       7.175  23.398  53.022  1.00  0.00     0.033 A 
HETATM   23  C   UNL     1       7.968  22.878  54.036  1.00  0.00     0.035 A 
HETATM   24  C   UNL     1       7.856  23.369  55.329  1.00  0.00     0.033 A 
HETATM   25 CL   UNL     1       9.109  21.640  53.682  1.00  0.00    -0.084 Cl
HETATM   26  C   UNL     1       6.940  24.394  55.638  1.00  0.00    -0.033 A 
HETATM   27  C   UNL     1       6.981  24.922  57.048  1.00  0.00     0.050 C 
ENDBRANCH   1  19
TORSDOF 5
ENDMDL
MODEL 8
REMARK VINA RESULT:      -8.1      4.394      8.043
REMARK  5 active torsions:
REMARK  status: ('A' for Active; 'I' for Inactive)
REMARK    1  A    between atoms: C_3  and  N_4 
REMARK       I    between atoms: N_4  and  C_5 
REMARK       I    between atoms: C_5  and  N_6 
REMARK    2  A    between atoms: N_6  and  C_7 
REMARK    3  A    between atoms: C_7  and  C_8 
REMARK    4  A    between atoms: C_10  and  O_11 
REMARK    5  A    between atoms: O_11  and  C_12 
ROOT
HETATM    1  N   UNL     1       6.109  28.621  52.119  1.00  0.00    -0.308 N 
HETATM    2  C   UNL     1       5.731  28.404  53.428  1.00  0.00     0.321 C 
HETATM    3  N   UNL     1       6.819  28.482  54.269  1.00  0.00    -0.339 N 
HETATM    4  O   UNL     1       4.593  28.211  53.832  1.00  0.00    -0.247 OA
HETATM    5  H   UNL     1       6.856  29.295  52.053  1.00  0.00     0.170 HD
HETATM    6  H   UNL     1       7.731  28.360  53.857  1.00  0.00     0.164 HD
ENDROOT
BRANCH   3   7
HETATM    7  C   UNL     1       6.684  28.213  55.686  1.00  0.00     0.163 C 
BRANCH   7   8
HETATM    8  C   UNL     1       7.151  26.838  56.084  1.00  0.00    -0.035 A 
HETATM    9  C   UNL     1       6.796  25.692  55.365  1.00  0.00     0.066 A 
HETATM   10  C   UNL     1       7.315  24.467  55.757  1.00  0.00     0.164 A 
HETATM   11  N   UNL     1       8.163  24.302  56.793  1.00  0.00    -0.237 NA
HETATM   12  C   UNL     1       8.514  25.419  57.461  1.00  0.00     0.120 A 
HETATM   13  C   UNL     1       8.045  26.688  57.151  1.00  0.00     0.028 A 
BRANCH  10  14
HETATM   14  O   UNL     1       6.916  23.364  55.026  1.00  0.00    -0.329 OA
BRANCH  14  15
HETATM   15  C   UNL     1       7.973  22.532  54.501  1.00  0.00     0.130 C 
HETATM   16  C   UNL     1       7.847  21.001  54.720  1.00  0.00     0.032 C 
HETATM   17  C   UNL     1       8.386  20.815  53.291  1.00  0.00     0.005 C 
HETATM   18  C   UNL     1       7.862  22.230  52.984  1.00  0.00     0.032 C 
ENDBRANCH  14  15
ENDBRANCH  10  14
ENDBRANCH   7   8
ENDBRANCH   3   7
BRANCH   1  19
HETATM   19  C   UNL     1       5.258  28.510  50.989  1.00  0.00     0.048 A 
HETATM   20  C   UNL     1       5.006  27.211  50.482  1.00  0.00    -0.033 A 
HETATM   21  C   UNL     1       5.607  25.971  51.092  1.00  0.00     0.050 C 
HETATM   22  C   UNL     1       4.194  27.051  49.345  1.00  0.00     0.033 A 
HETATM   23  C   UNL     1       3.628  28.156  48.723  1.00  0.00     0.035 A 
HETATM   24  C   UNL     1       3.833  29.428  49.240  1.00  0.00     0.033 A 
HETATM   25 CL   UNL     1       2.648  27.945  47.324  1.00  0.00    -0.084 Cl
HETATM   26  C   UNL     1       4.619  29.623  50.393  1.00  0.00    -0.033 A 
HETATM   27  C   UNL     1       4.684  31.030  50.924  1.00  0.00     0.050 C 
ENDBRANCH   1  19
TORSDOF 5
ENDMDL
MODEL 9
REMARK VINA RESULT:      -8.1      4.401      7.045
REMARK  5 active torsions:
REMARK  status: ('A' for Active; 'I' for Inactive)
REMARK    1  A    between atoms: C_3  and  N_4 
REMARK       I    between atoms: N_4  and  C_5 
REMARK       I    between atoms: C_5  and  N_6 
REMARK    2  A    between atoms: N_6  and  C_7 
REMARK    3  A    between atoms: C_7  and  C_8 
REMARK    4  A    between atoms: C_10  and  O_11 
REMARK    5  A    between atoms: O_11  and  C_12 
ROOT
HETATM    1  N   UNL     1       7.162  25.945  54.534  1.00  0.00    -0.308 N 
HETATM    2  C   UNL     1       5.861  26.401  54.499  1.00  0.00     0.321 C 
HETATM    3  N   UNL     1       5.808  27.747  54.787  1.00  0.00    -0.339 N 
HETATM    4  O   UNL     1       4.869  25.746  54.211  1.00  0.00    -0.247 OA
HETATM    5  H   UNL     1       7.811  26.642  54.206  1.00  0.00     0.170 HD
HETATM    6  H   UNL     1       6.594  28.146  55.277  1.00  0.00     0.164 HD
ENDROOT
BRANCH   3   7
HETATM    7  C   UNL     1       4.539  28.438  54.884  1.00  0.00     0.163 C 
BRANCH   7   8
HETATM    8  C   UNL     1       4.150  29.161  53.620  1.00  0.00    -0.035 A 
HETATM    9  C   UNL     1       3.821  28.482  52.443  1.00  0.00     0.066 A 
HETATM   10  C   UNL     1       3.415  29.216  51.338  1.00  0.00     0.164 A 
HETATM   11  N   UNL     1       3.301  30.560  51.324  1.00  0.00    -0.237 NA
HETATM   12  C   UNL     1       3.599  31.196  52.473  1.00  0.00     0.120 A 
HETATM   13  C   UNL     1       4.020  30.555  53.629  1.00  0.00     0.028 A 
BRANCH  10  14
HETATM   14  O   UNL     1       3.121  28.498  50.194  1.00  0.00    -0.329 OA
BRANCH  14  15
HETATM   15  C   UNL     1       4.225  27.800  49.579  1.00  0.00     0.130 C 
HETATM   16  C   UNL     1       3.907  26.466  48.853  1.00  0.00     0.032 C 
HETATM   17  C   UNL     1       4.904  26.894  47.762  1.00  0.00     0.005 C 
HETATM   18  C   UNL     1       4.640  28.349  48.189  1.00  0.00     0.032 C 
ENDBRANCH  14  15
ENDBRANCH  10  14
ENDBRANCH   7   8
ENDBRANCH   3   7
BRANCH   1  19
HETATM   19  C   UNL     1       7.562  24.591  54.387  1.00  0.00     0.048 A 
HETATM   20  C   UNL     1       7.661  23.804  55.562  1.00  0.00    -0.033 A 
HETATM   21  C   UNL     1       7.365  24.354  56.934  1.00  0.00     0.050 C 
HETATM   22  C   UNL     1       8.083  22.466  55.472  1.00  0.00     0.033 A 
HETATM   23  C   UNL     1       8.391  21.906  54.239  1.00  0.00     0.035 A 
HETATM   24  C   UNL     1       8.254  22.656  53.079  1.00  0.00     0.033 A 
HETATM   25 CL   UNL     1       8.920  20.271  54.147  1.00  0.00    -0.084 Cl
HETATM   26  C   UNL     1       7.807  23.992  53.129  1.00  0.00    -0.033 A 
HETATM   27  C   UNL     1       7.594  24.673  51.804  1.00  0.00     0.050 C 
ENDBRANCH   1  19
TORSDOF 5
ENDMDL
MODEL 10
REMARK VINA RESULT:      -8.0      4.522     10.162
REMARK  5 active torsions:
REMARK  status: ('A' for Active; 'I' for Inactive)
REMARK    1  A    between atoms: C_3  and  N_4 
REMARK       I    between atoms: N_4  and  C_5 
REMARK       I    between atoms: C_5  and  N_6 
REMARK    2  A    between atoms: N_6  and  C_7 
REMARK    3  A    between atoms: C_7  and  C_8 
REMARK    4  A    between atoms: C_10  and  O_11 
REMARK    5  A    between atoms: O_11  and  C_12 
ROOT
HETATM    1  N   UNL     1       6.346  31.602  60.627  1.00  0.00    -0.308 N 
HETATM    2  C   UNL     1       7.285  31.390  59.639  1.00  0.00     0.321 C 
HETATM    3  N   UNL     1       7.246  30.083  59.203  1.00  0.00    -0.339 N 
HETATM    4  O   UNL     1       8.033  32.227  59.156  1.00  0.00    -0.247 OA
HETATM    5  H   UNL     1       5.512  31.059  60.473  1.00  0.00     0.170 HD
HETATM    6  H   UNL     1       6.824  29.404  59.817  1.00  0.00     0.164 HD
ENDROOT
BRANCH   3   7
HETATM    7  C   UNL     1       8.192  29.600  58.218  1.00  0.00     0.163 C 
BRANCH   7   8
HETATM    8  C   UNL     1       7.654  28.478  57.368  1.00  0.00    -0.035 A 
HETATM    9  C   UNL     1       8.320  27.255  57.238  1.00  0.00     0.066 A 
HETATM   10  C   UNL     1       7.732  26.249  56.487  1.00  0.00     0.164 A 
HETATM   11  N   UNL     1       6.536  26.365  55.873  1.00  0.00    -0.237 NA
HETATM   12  C   UNL     1       5.897  27.541  56.029  1.00  0.00     0.120 A 
HETATM   13  C   UNL     1       6.403  28.609  56.754  1.00  0.00     0.028 A 
BRANCH  10  14
HETATM   14  O   UNL     1       8.441  25.068  56.372  1.00  0.00    -0.329 OA
BRANCH  14  15
HETATM   15  C   UNL     1       7.655  23.864  56.250  1.00  0.00     0.130 C 
HETATM   16  C   UNL     1       7.624  23.174  54.860  1.00  0.00     0.032 C 
HETATM   17  C   UNL     1       7.701  21.825  55.597  1.00  0.00     0.005 C 
HETATM   18  C   UNL     1       8.357  22.580  56.767  1.00  0.00     0.032 C 
ENDBRANCH  14  15
ENDBRANCH  10  14
ENDBRANCH   7   8
ENDBRANCH   3   7
BRANCH   1  19
HETATM   19  C   UNL     1       6.189  32.804  61.365  1.00  0.00     0.048 A 
HETATM   20  C   UNL     1       5.166  33.697  60.957  1.00  0.00    -0.033 A 
HETATM   21  C   UNL     1       4.264  33.414  59.783  1.00  0.00     0.050 C 
HETATM   22  C   UNL     1       4.990  34.915  61.637  1.00  0.00     0.033 A 
HETATM   23  C   UNL     1       5.804  35.244  62.713  1.00  0.00     0.035 A 
HETATM   24  C   UNL     1       6.778  34.356  63.148  1.00  0.00     0.033 A 
HETATM   25 CL   UNL     1       5.585  36.745  63.526  1.00  0.00    -0.084 Cl
HETATM   26  C   UNL     1       6.964  33.115  62.507  1.00  0.00    -0.033 A 
HETATM   27  C   UNL     1       7.975  32.189  63.130  1.00  0.00     0.050 C 
ENDBRANCH   1  19
TORSDOF 5
ENDMDL
