MODEL 1
REMARK VINA RESULT:     -10.2      0.000      0.000
REMARK  3 active torsions:
REMARK  status: ('A' for Active; 'I' for Inactive)
REMARK    1  A    between atoms: N_3  and  C_4 
REMARK    2  A    between atoms: C_12  and  C_13 
REMARK       I    between atoms: C_13  and  N_14 
REMARK    3  A    between atoms: N_14  and  C_15 
ROOT
HETATM    1  C   UNL     1       9.881  29.211  55.459  1.00  0.00     0.070 C 
HETATM    2  C   UNL     1       9.568  29.676  56.862  1.00  0.00     0.036 C 
HETATM    3  N   UNL     1       8.544  29.069  57.607  1.00  0.00    -0.235 N 
HETATM    4  N   UNL     1       8.210  29.447  58.889  1.00  0.00    -0.157 NA
HETATM    5  C   UNL     1       8.841  30.460  59.410  1.00  0.00     0.195 C 
HETATM    6  C   UNL     1       9.854  31.255  58.635  1.00  0.00     0.209 C 
HETATM    7  O   UNL     1      10.272  32.324  59.053  1.00  0.00    -0.286 OA
HETATM    8  C   UNL     1      10.251  30.733  57.327  1.00  0.00     0.084 C 
ENDROOT
BRANCH   5   9
HETATM    9  C   UNL     1       8.481  30.842  60.828  1.00  0.00     0.280 C 
HETATM   10  N   UNL     1       7.512  31.827  60.908  1.00  0.00    -0.322 N 
HETATM   11  H   UNL     1       7.003  32.013  60.047  1.00  0.00     0.169 HD
HETATM   12  O   UNL     1       9.031  30.264  61.754  1.00  0.00    -0.265 OA
BRANCH  10  13
HETATM   13  C   UNL     1       7.154  32.538  62.070  1.00  0.00     0.035 A 
HETATM   14  C   UNL     1       5.955  33.251  62.174  1.00  0.00     0.039 A 
HETATM   15  C   UNL     1       5.639  33.868  63.375  1.00  0.00    -0.022 A 
HETATM   16  C   UNL     1       6.497  33.799  64.471  1.00  0.00    -0.025 A 
HETATM   17  C   UNL     1       4.392  34.608  63.711  1.00  0.00     0.274 C 
HETATM   18  C   UNL     1       5.903  34.504  65.642  1.00  0.00     0.273 C 
HETATM   19  C   UNL     1       7.693  33.106  64.387  1.00  0.00     0.012 A 
HETATM   20  N   UNL     1       4.620  35.148  65.119  1.00  0.00    -0.067 N 
HETATM   21  H   UNL     1       4.821  36.148  65.010  1.00  0.00     0.280 HD
HETATM   22  C   UNL     1       3.445  34.989  66.021  1.00  0.00     0.270 C 
HETATM   23  C   UNL     1       8.014  32.467  63.181  1.00  0.00     0.030 A 
ENDBRANCH  10  13
ENDBRANCH   5   9
BRANCH   3  24
HETATM   24  C   UNL     1       7.710  28.026  57.104  1.00  0.00     0.097 A 
HETATM   25  C   UNL     1       6.573  28.320  56.331  1.00  0.00     0.145 A 
HETATM   26  F   UNL     1       6.252  29.596  56.055  1.00  0.00    -0.204 F 
HETATM   27  C   UNL     1       5.770  27.311  55.803  1.00  0.00     0.045 A 
HETATM   28  C   UNL     1       6.079  25.976  56.052  1.00  0.00     0.003 A 
HETATM   29  C   UNL     1       7.182  25.658  56.844  1.00  0.00     0.002 A 
HETATM   30  C   UNL     1       7.986  26.674  57.371  1.00  0.00     0.035 A 
ENDBRANCH   3  24
TORSDOF 3
ENDMDL
MODEL 2
REMARK VINA RESULT:     -10.1      8.165     11.807
REMARK  3 active torsions:
REMARK  status: ('A' for Active; 'I' for Inactive)
REMARK    1  A    between atoms: N_3  and  C_4 
REMARK    2  A    between atoms: C_12  and  C_13 
REMARK       I    between atoms: C_13  and  N_14 
REMARK    3  A    between atoms: N_14  and  C_15 
ROOT
HETATM    1  C   UNL     1       8.963  24.335  57.108  1.00  0.00     0.070 C 
HETATM    2  C   UNL     1       7.992  24.876  56.084  1.00  0.00     0.036 C 
HETATM    3  N   UNL     1       7.478  24.046  55.075  1.00  0.00    -0.235 N 
HETATM    4  N   UNL     1       6.591  24.478  54.113  1.00  0.00    -0.157 NA
HETATM    5  C   UNL     1       6.262  25.738  54.109  1.00  0.00     0.195 C 
HETATM    6  C   UNL     1       6.870  26.725  55.065  1.00  0.00     0.209 C 
HETATM    7  O   UNL     1       6.723  27.929  54.910  1.00  0.00    -0.286 OA
HETATM    8  C   UNL     1       7.710  26.186  56.135  1.00  0.00     0.084 C 
ENDROOT
BRANCH   5   9
HETATM    9  C   UNL     1       5.266  26.187  53.064  1.00  0.00     0.280 C 
HETATM   10  N   UNL     1       5.729  26.059  51.766  1.00  0.00    -0.322 N 
HETATM   11  H   UNL     1       6.560  25.484  51.651  1.00  0.00     0.169 HD
HETATM   12  O   UNL     1       4.171  26.592  53.425  1.00  0.00    -0.265 OA
BRANCH  10  13
HETATM   13  C   UNL     1       5.124  26.608  50.618  1.00  0.00     0.035 A 
HETATM   14  C   UNL     1       4.237  25.881  49.817  1.00  0.00     0.039 A 
HETATM   15  C   UNL     1       3.628  26.511  48.743  1.00  0.00    -0.022 A 
HETATM   16  C   UNL     1       3.890  27.846  48.443  1.00  0.00    -0.025 A 
HETATM   17  C   UNL     1       2.609  25.940  47.819  1.00  0.00     0.274 C 
HETATM   18  C   UNL     1       3.076  28.288  47.276  1.00  0.00     0.273 C 
HETATM   19  C   UNL     1       4.771  28.582  49.218  1.00  0.00     0.012 A 
HETATM   20  N   UNL     1       2.362  27.031  46.782  1.00  0.00    -0.067 N 
HETATM   21  H   UNL     1       2.854  26.732  45.933  1.00  0.00     0.280 HD
HETATM   22  C   UNL     1       0.922  27.235  46.456  1.00  0.00     0.270 C 
HETATM   23  C   UNL     1       5.381  27.957  50.315  1.00  0.00     0.030 A 
ENDBRANCH  10  13
ENDBRANCH   5   9
BRANCH   3  24
HETATM   24  C   UNL     1       7.849  22.678  54.909  1.00  0.00     0.097 A 
HETATM   25  C   UNL     1       8.442  22.231  53.715  1.00  0.00     0.145 A 
HETATM   26  F   UNL     1       8.667  23.090  52.706  1.00  0.00    -0.204 F 
HETATM   27  C   UNL     1       8.843  20.905  53.552  1.00  0.00     0.045 A 
HETATM   28  C   UNL     1       8.642  19.989  54.580  1.00  0.00     0.003 A 
HETATM   29  C   UNL     1       8.025  20.399  55.762  1.00  0.00     0.002 A 
HETATM   30  C   UNL     1       7.626  21.730  55.922  1.00  0.00     0.035 A 
ENDBRANCH   3  24
TORSDOF 3
ENDMDL
MODEL 3
REMARK VINA RESULT:      -9.7      2.432      8.943
REMARK  3 active torsions:
REMARK  status: ('A' for Active; 'I' for Inactive)
REMARK    1  A    between atoms: N_3  and  C_4 
REMARK    2  A    between atoms: C_12  and  C_13 
REMARK       I    between atoms: C_13  and  N_14 
REMARK    3  A    between atoms: N_14  and  C_15 
ROOT
HETATM    1  C   UNL     1       6.795  33.827  65.291  1.00  0.00     0.070 C 
HETATM    2  C   UNL     1       7.130  33.316  63.908  1.00  0.00     0.036 C 
HETATM    3  N   UNL     1       6.522  33.872  62.771  1.00  0.00    -0.235 N 
HETATM    4  N   UNL     1       6.784  33.451  61.486  1.00  0.00    -0.157 NA
HETATM    5  C   UNL     1       7.594  32.443  61.328  1.00  0.00     0.195 C 
HETATM    6  C   UNL     1       8.183  31.700  62.494  1.00  0.00     0.209 C 
HETATM    7  O   UNL     1       8.758  30.633  62.339  1.00  0.00    -0.286 OA
HETATM    8  C   UNL     1       7.964  32.268  63.825  1.00  0.00     0.084 C 
ENDROOT
BRANCH   5   9
HETATM    9  C   UNL     1       7.892  32.014  59.909  1.00  0.00     0.280 C 
HETATM   10  N   UNL     1       7.092  30.975  59.465  1.00  0.00    -0.322 N 
HETATM   11  H   UNL     1       6.271  30.780  60.034  1.00  0.00     0.169 HD
HETATM   12  O   UNL     1       8.762  32.601  59.283  1.00  0.00    -0.265 OA
BRANCH  10  13
HETATM   13  C   UNL     1       7.295  30.223  58.292  1.00  0.00     0.035 A 
HETATM   14  C   UNL     1       6.246  29.870  57.436  1.00  0.00     0.039 A 
HETATM   15  C   UNL     1       6.533  29.187  56.264  1.00  0.00    -0.022 A 
HETATM   16  C   UNL     1       7.841  28.840  55.931  1.00  0.00    -0.025 A 
HETATM   17  C   UNL     1       5.579  28.786  55.194  1.00  0.00     0.274 C 
HETATM   18  C   UNL     1       7.878  28.159  54.606  1.00  0.00     0.273 C 
HETATM   19  C   UNL     1       8.893  29.173  56.768  1.00  0.00     0.012 A 
HETATM   20  N   UNL     1       6.415  27.991  54.196  1.00  0.00    -0.067 N 
HETATM   21  H   UNL     1       6.181  27.005  54.352  1.00  0.00     0.280 HD
HETATM   22  C   UNL     1       6.137  28.333  52.773  1.00  0.00     0.270 C 
HETATM   23  C   UNL     1       8.614  29.875  57.948  1.00  0.00     0.030 A 
ENDBRANCH  10  13
ENDBRANCH   5   9
BRANCH   3  24
HETATM   24  C   UNL     1       5.537  34.902  62.824  1.00  0.00     0.097 A 
HETATM   25  C   UNL     1       4.171  34.589  62.934  1.00  0.00     0.145 A 
HETATM   26  F   UNL     1       3.771  33.307  62.989  1.00  0.00    -0.204 F 
HETATM   27  C   UNL     1       3.199  35.585  63.024  1.00  0.00     0.045 A 
HETATM   28  C   UNL     1       3.575  36.925  62.987  1.00  0.00     0.003 A 
HETATM   29  C   UNL     1       4.921  37.263  62.845  1.00  0.00     0.002 A 
HETATM   30  C   UNL     1       5.892  36.260  62.757  1.00  0.00     0.035 A 
ENDBRANCH   3  24
TORSDOF 3
ENDMDL
MODEL 4
REMARK VINA RESULT:      -9.5      2.278      8.855
REMARK  3 active torsions:
REMARK  status: ('A' for Active; 'I' for Inactive)
REMARK    1  A    between atoms: N_3  and  C_4 
REMARK    2  A    between atoms: C_12  and  C_13 
REMARK       I    between atoms: C_13  and  N_14 
REMARK    3  A    between atoms: N_14  and  C_15 
ROOT
HETATM    1  C   UNL     1       7.198  33.174  64.349  1.00  0.00     0.070 C 
HETATM    2  C   UNL     1       7.470  32.541  63.004  1.00  0.00     0.036 C 
HETATM    3  N   UNL     1       6.607  32.765  61.919  1.00  0.00    -0.235 N 
HETATM    4  N   UNL     1       6.798  32.218  60.670  1.00  0.00    -0.157 NA
HETATM    5  C   UNL     1       7.802  31.403  60.508  1.00  0.00     0.195 C 
HETATM    6  C   UNL     1       8.694  30.999  61.648  1.00  0.00     0.209 C 
HETATM    7  O   UNL     1       9.486  30.075  61.534  1.00  0.00    -0.286 OA
HETATM    8  C   UNL     1       8.514  31.704  62.917  1.00  0.00     0.084 C 
ENDROOT
BRANCH   5   9
HETATM    9  C   UNL     1       8.013  30.835  59.123  1.00  0.00     0.280 C 
HETATM   10  N   UNL     1       7.092  29.860  58.777  1.00  0.00    -0.322 N 
HETATM   11  H   UNL     1       6.270  29.802  59.374  1.00  0.00     0.169 HD
HETATM   12  O   UNL     1       8.924  31.272  58.436  1.00  0.00    -0.265 OA
BRANCH  10  13
HETATM   13  C   UNL     1       7.181  29.002  57.665  1.00  0.00     0.035 A 
HETATM   14  C   UNL     1       7.611  27.675  57.774  1.00  0.00     0.039 A 
HETATM   15  C   UNL     1       7.605  26.869  56.645  1.00  0.00    -0.022 A 
HETATM   16  C   UNL     1       7.190  27.359  55.409  1.00  0.00    -0.025 A 
HETATM   17  C   UNL     1       7.953  25.424  56.564  1.00  0.00     0.274 C 
HETATM   18  C   UNL     1       7.237  26.283  54.379  1.00  0.00     0.273 C 
HETATM   19  C   UNL     1       6.769  28.672  55.277  1.00  0.00     0.012 A 
HETATM   20  N   UNL     1       7.863  25.079  55.081  1.00  0.00    -0.067 N 
HETATM   21  H   UNL     1       8.830  25.018  54.745  1.00  0.00     0.280 HD
HETATM   22  C   UNL     1       7.175  23.786  54.806  1.00  0.00     0.270 C 
HETATM   23  C   UNL     1       6.757  29.490  56.416  1.00  0.00     0.030 A 
ENDBRANCH  10  13
ENDBRANCH   5   9
BRANCH   3  24
HETATM   24  C   UNL     1       5.416  33.547  62.002  1.00  0.00     0.097 A 
HETATM   25  C   UNL     1       4.163  32.937  62.181  1.00  0.00     0.145 A 
HETATM   26  F   UNL     1       4.067  31.600  62.274  1.00  0.00    -0.204 F 
HETATM   27  C   UNL     1       2.995  33.690  62.301  1.00  0.00     0.045 A 
HETATM   28  C   UNL     1       3.055  35.079  62.226  1.00  0.00     0.003 A 
HETATM   29  C   UNL     1       4.282  35.708  62.015  1.00  0.00     0.002 A 
HETATM   30  C   UNL     1       5.451  34.949  61.898  1.00  0.00     0.035 A 
ENDBRANCH   3  24
TORSDOF 3
ENDMDL
MODEL 5
REMARK VINA RESULT:      -9.5      3.981     10.091
REMARK  3 active torsions:
REMARK  status: ('A' for Active; 'I' for Inactive)
REMARK    1  A    between atoms: N_3  and  C_4 
REMARK    2  A    between atoms: C_12  and  C_13 
REMARK       I    between atoms: C_13  and  N_14 
REMARK    3  A    between atoms: N_14  and  C_15 
ROOT
HETATM    1  C   UNL     1       5.353  32.830  57.862  1.00  0.00     0.070 C 
HETATM    2  C   UNL     1       5.456  31.373  57.474  1.00  0.00     0.036 C 
HETATM    3  N   UNL     1       6.486  30.566  57.984  1.00  0.00    -0.235 N 
HETATM    4  N   UNL     1       6.635  29.234  57.668  1.00  0.00    -0.157 NA
HETATM    5  C   UNL     1       5.809  28.715  56.805  1.00  0.00     0.195 C 
HETATM    6  C   UNL     1       4.764  29.539  56.105  1.00  0.00     0.209 C 
HETATM    7  O   UNL     1       4.147  29.096  55.147  1.00  0.00    -0.286 OA
HETATM    8  C   UNL     1       4.578  30.914  56.570  1.00  0.00     0.084 C 
ENDROOT
BRANCH   5   9
HETATM    9  C   UNL     1       5.970  27.244  56.493  1.00  0.00     0.280 C 
HETATM   10  N   UNL     1       7.029  26.970  55.645  1.00  0.00    -0.322 N 
HETATM   11  H   UNL     1       7.696  27.728  55.518  1.00  0.00     0.169 HD
HETATM   12  O   UNL     1       5.202  26.444  57.005  1.00  0.00    -0.265 OA
BRANCH  10  13
HETATM   13  C   UNL     1       7.273  25.741  55.004  1.00  0.00     0.035 A 
HETATM   14  C   UNL     1       8.139  24.777  55.533  1.00  0.00     0.039 A 
HETATM   15  C   UNL     1       8.275  23.562  54.880  1.00  0.00    -0.022 A 
HETATM   16  C   UNL     1       7.576  23.289  53.706  1.00  0.00    -0.025 A 
HETATM   17  C   UNL     1       9.082  22.388  55.312  1.00  0.00     0.274 C 
HETATM   18  C   UNL     1       7.865  21.905  53.236  1.00  0.00     0.273 C 
HETATM   19  C   UNL     1       6.720  24.232  53.160  1.00  0.00     0.012 A 
HETATM   20  N   UNL     1       8.941  21.374  54.182  1.00  0.00    -0.067 N 
HETATM   21  H   UNL     1       9.825  21.404  53.662  1.00  0.00     0.280 HD
HETATM   22  C   UNL     1       8.707  19.979  54.652  1.00  0.00     0.270 C 
HETATM   23  C   UNL     1       6.565  25.458  53.822  1.00  0.00     0.030 A 
ENDBRANCH  10  13
ENDBRANCH   5   9
BRANCH   3  24
HETATM   24  C   UNL     1       7.514  31.047  58.848  1.00  0.00     0.097 A 
HETATM   25  C   UNL     1       8.862  31.021  58.450  1.00  0.00     0.145 A 
HETATM   26  F   UNL     1       9.204  30.539  57.243  1.00  0.00    -0.204 F 
HETATM   27  C   UNL     1       9.874  31.521  59.269  1.00  0.00     0.045 A 
HETATM   28  C   UNL     1       9.558  32.044  60.521  1.00  0.00     0.003 A 
HETATM   29  C   UNL     1       8.232  32.050  60.954  1.00  0.00     0.002 A 
HETATM   30  C   UNL     1       7.221  31.549  60.128  1.00  0.00     0.035 A 
ENDBRANCH   3  24
TORSDOF 3
ENDMDL
MODEL 6
REMARK VINA RESULT:      -9.0      3.153      9.442
REMARK  3 active torsions:
REMARK  status: ('A' for Active; 'I' for Inactive)
REMARK    1  A    between atoms: N_3  and  C_4 
REMARK    2  A    between atoms: C_12  and  C_13 
REMARK       I    between atoms: C_13  and  N_14 
REMARK    3  A    between atoms: N_14  and  C_15 
ROOT
HETATM    1  C   UNL     1       5.007  33.401  59.454  1.00  0.00     0.070 C 
HETATM    2  C   UNL     1       5.688  32.170  58.902  1.00  0.00     0.036 C 
HETATM    3  N   UNL     1       6.664  31.493  59.651  1.00  0.00    -0.235 N 
HETATM    4  N   UNL     1       7.319  30.367  59.204  1.00  0.00    -0.157 NA
HETATM    5  C   UNL     1       7.059  29.947  57.999  1.00  0.00     0.195 C 
HETATM    6  C   UNL     1       6.132  30.689  57.077  1.00  0.00     0.209 C 
HETATM    7  O   UNL     1       6.067  30.412  55.889  1.00  0.00    -0.286 OA
HETATM    8  C   UNL     1       5.377  31.805  57.649  1.00  0.00     0.084 C 
ENDROOT
BRANCH   5   9
HETATM    9  C   UNL     1       7.767  28.693  57.537  1.00  0.00     0.280 C 
HETATM   10  N   UNL     1       6.915  27.737  57.012  1.00  0.00    -0.322 N 
HETATM   11  H   UNL     1       5.977  28.062  56.788  1.00  0.00     0.169 HD
HETATM   12  O   UNL     1       8.983  28.629  57.639  1.00  0.00    -0.265 OA
BRANCH  10  13
HETATM   13  C   UNL     1       7.253  26.401  56.726  1.00  0.00     0.035 A 
HETATM   14  C   UNL     1       6.809  25.745  55.572  1.00  0.00     0.039 A 
HETATM   15  C   UNL     1       7.241  24.451  55.323  1.00  0.00    -0.022 A 
HETATM   16  C   UNL     1       8.097  23.793  56.203  1.00  0.00    -0.025 A 
HETATM   17  C   UNL     1       6.944  23.613  54.130  1.00  0.00     0.274 C 
HETATM   18  C   UNL     1       8.441  22.440  55.682  1.00  0.00     0.273 C 
HETATM   19  C   UNL     1       8.542  24.420  57.355  1.00  0.00     0.012 A 
HETATM   20  N   UNL     1       7.590  22.263  54.425  1.00  0.00    -0.067 N 
HETATM   21  H   UNL     1       6.823  21.631  54.680  1.00  0.00     0.280 HD
HETATM   22  C   UNL     1       8.326  21.683  53.266  1.00  0.00     0.270 C 
HETATM   23  C   UNL     1       8.122  25.734  57.607  1.00  0.00     0.030 A 
ENDBRANCH  10  13
ENDBRANCH   5   9
BRANCH   3  24
HETATM   24  C   UNL     1       7.113  31.921  60.935  1.00  0.00     0.097 A 
HETATM   25  C   UNL     1       6.227  31.989  62.024  1.00  0.00     0.145 A 
HETATM   26  F   UNL     1       4.935  31.653  61.870  1.00  0.00    -0.204 F 
HETATM   27  C   UNL     1       6.660  32.371  63.294  1.00  0.00     0.045 A 
HETATM   28  C   UNL     1       7.994  32.711  63.498  1.00  0.00     0.003 A 
HETATM   29  C   UNL     1       8.887  32.684  62.427  1.00  0.00     0.002 A 
HETATM   30  C   UNL     1       8.449  32.299  61.156  1.00  0.00     0.035 A 
ENDBRANCH   3  24
TORSDOF 3
ENDMDL
MODEL 7
REMARK VINA RESULT:      -8.7      6.934     11.953
REMARK  3 active torsions:
REMARK  status: ('A' for Active; 'I' for Inactive)
REMARK    1  A    between atoms: N_3  and  C_4 
REMARK    2  A    between atoms: C_12  and  C_13 
REMARK       I    between atoms: C_13  and  N_14 
REMARK    3  A    between atoms: N_14  and  C_15 
ROOT
HETATM    1  C   UNL     1       7.997  24.679  55.411  1.00  0.00     0.070 C 
HETATM    2  C   UNL     1       7.049  25.376  54.464  1.00  0.00     0.036 C 
HETATM    3  N   UNL     1       6.800  26.753  54.582  1.00  0.00    -0.235 N 
HETATM    4  N   UNL     1       5.948  27.446  53.752  1.00  0.00    -0.157 NA
HETATM    5  C   UNL     1       5.295  26.773  52.848  1.00  0.00     0.195 C 
HETATM    6  C   UNL     1       5.395  25.277  52.739  1.00  0.00     0.209 C 
HETATM    7  O   UNL     1       4.620  24.641  52.041  1.00  0.00    -0.286 OA
HETATM    8  C   UNL     1       6.404  24.615  53.567  1.00  0.00     0.084 C 
ENDROOT
BRANCH   5   9
HETATM    9  C   UNL     1       4.386  27.555  51.927  1.00  0.00     0.280 C 
HETATM   10  N   UNL     1       4.545  27.235  50.589  1.00  0.00    -0.322 N 
HETATM   11  H   UNL     1       5.064  26.380  50.402  1.00  0.00     0.169 HD
HETATM   12  O   UNL     1       3.603  28.358  52.410  1.00  0.00    -0.265 OA
BRANCH  10  13
HETATM   13  C   UNL     1       4.014  27.955  49.502  1.00  0.00     0.035 A 
HETATM   14  C   UNL     1       2.808  27.602  48.886  1.00  0.00     0.039 A 
HETATM   15  C   UNL     1       2.313  28.400  47.866  1.00  0.00    -0.022 A 
HETATM   16  C   UNL     1       2.999  29.536  47.439  1.00  0.00    -0.025 A 
HETATM   17  C   UNL     1       1.026  28.241  47.137  1.00  0.00     0.274 C 
HETATM   18  C   UNL     1       2.234  30.235  46.369  1.00  0.00     0.273 C 
HETATM   19  C   UNL     1       4.199  29.898  48.029  1.00  0.00     0.012 A 
HETATM   20  N   UNL     1       1.038  29.331  46.069  1.00  0.00    -0.067 N 
HETATM   21  H   UNL     1       1.247  28.858  45.183  1.00  0.00     0.280 HD
HETATM   22  C   UNL     1      -0.257  30.056  45.935  1.00  0.00     0.270 C 
HETATM   23  C   UNL     1       4.698  29.105  49.071  1.00  0.00     0.030 A 
ENDBRANCH  10  13
ENDBRANCH   5   9
BRANCH   3  24
HETATM   24  C   UNL     1       7.368  27.575  55.601  1.00  0.00     0.097 A 
HETATM   25  C   UNL     1       8.369  28.514  55.296  1.00  0.00     0.145 A 
HETATM   26  F   UNL     1       8.810  28.650  54.034  1.00  0.00    -0.204 F 
HETATM   27  C   UNL     1       8.908  29.349  56.274  1.00  0.00     0.045 A 
HETATM   28  C   UNL     1       8.466  29.250  57.590  1.00  0.00     0.003 A 
HETATM   29  C   UNL     1       7.497  28.304  57.926  1.00  0.00     0.002 A 
HETATM   30  C   UNL     1       6.959  27.470  56.941  1.00  0.00     0.035 A 
ENDBRANCH   3  24
TORSDOF 3
ENDMDL
MODEL 8
REMARK VINA RESULT:      -8.6      3.725      9.358
REMARK  3 active torsions:
REMARK  status: ('A' for Active; 'I' for Inactive)
REMARK    1  A    between atoms: N_3  and  C_4 
REMARK    2  A    between atoms: C_12  and  C_13 
REMARK       I    between atoms: C_13  and  N_14 
REMARK    3  A    between atoms: N_14  and  C_15 
ROOT
HETATM    1  C   UNL     1       4.606  35.999  61.399  1.00  0.00     0.070 C 
HETATM    2  C   UNL     1       4.357  34.727  60.622  1.00  0.00     0.036 C 
HETATM    3  N   UNL     1       4.888  33.503  61.060  1.00  0.00    -0.235 N 
HETATM    4  N   UNL     1       4.698  32.311  60.398  1.00  0.00    -0.157 NA
HETATM    5  C   UNL     1       4.039  32.336  59.274  1.00  0.00     0.195 C 
HETATM    6  C   UNL     1       3.553  33.620  58.661  1.00  0.00     0.209 C 
HETATM    7  O   UNL     1       3.136  33.654  57.513  1.00  0.00    -0.286 OA
HETATM    8  C   UNL     1       3.680  34.833  59.469  1.00  0.00     0.084 C 
ENDROOT
BRANCH   5   9
HETATM    9  C   UNL     1       3.815  31.014  58.576  1.00  0.00     0.280 C 
HETATM   10  N   UNL     1       4.957  30.495  57.991  1.00  0.00    -0.322 N 
HETATM   11  H   UNL     1       5.833  30.925  58.282  1.00  0.00     0.169 HD
HETATM   12  O   UNL     1       2.700  30.515  58.597  1.00  0.00    -0.265 OA
BRANCH  10  13
HETATM   13  C   UNL     1       5.003  29.416  57.087  1.00  0.00     0.035 A 
HETATM   14  C   UNL     1       4.334  29.438  55.859  1.00  0.00     0.039 A 
HETATM   15  C   UNL     1       4.483  28.367  54.991  1.00  0.00    -0.022 A 
HETATM   16  C   UNL     1       5.275  27.270  55.325  1.00  0.00    -0.025 A 
HETATM   17  C   UNL     1       3.920  28.229  53.620  1.00  0.00     0.274 C 
HETATM   18  C   UNL     1       5.301  26.286  54.206  1.00  0.00     0.273 C 
HETATM   19  C   UNL     1       5.938  27.224  56.540  1.00  0.00     0.012 A 
HETATM   20  N   UNL     1       4.318  26.827  53.169  1.00  0.00    -0.067 N 
HETATM   21  H   UNL     1       3.471  26.253  53.245  1.00  0.00     0.280 HD
HETATM   22  C   UNL     1       4.817  26.767  51.765  1.00  0.00     0.270 C 
HETATM   23  C   UNL     1       5.806  28.309  57.417  1.00  0.00     0.030 A 
ENDBRANCH  10  13
ENDBRANCH   5   9
BRANCH   3  24
HETATM   24  C   UNL     1       5.718  33.368  62.213  1.00  0.00     0.097 A 
HETATM   25  C   UNL     1       5.174  33.446  63.507  1.00  0.00     0.145 A 
HETATM   26  F   UNL     1       3.857  33.653  63.678  1.00  0.00    -0.204 F 
HETATM   27  C   UNL     1       5.967  33.279  64.642  1.00  0.00     0.045 A 
HETATM   28  C   UNL     1       7.333  33.047  64.506  1.00  0.00     0.003 A 
HETATM   29  C   UNL     1       7.903  32.998  63.234  1.00  0.00     0.002 A 
HETATM   30  C   UNL     1       7.104  33.164  62.099  1.00  0.00     0.035 A 
ENDBRANCH   3  24
TORSDOF 3
ENDMDL
MODEL 9
REMARK VINA RESULT:      -8.5      2.734      9.087
REMARK  3 active torsions:
REMARK  status: ('A' for Active; 'I' for Inactive)
REMARK    1  A    between atoms: N_3  and  C_4 
REMARK    2  A    between atoms: C_12  and  C_13 
REMARK       I    between atoms: C_13  and  N_14 
REMARK    3  A    between atoms: N_14  and  C_15 
ROOT
HETATM    1  C   UNL     1       4.191  34.876  61.027  1.00  0.00     0.070 C 
HETATM    2  C   UNL     1       4.867  33.779  60.238  1.00  0.00     0.036 C 
HETATM    3  N   UNL     1       5.768  32.900  60.859  1.00  0.00    -0.235 N 
HETATM    4  N   UNL     1       6.416  31.882  60.196  1.00  0.00    -0.157 NA
HETATM    5  C   UNL     1       6.225  31.770  58.913  1.00  0.00     0.195 C 
HETATM    6  C   UNL     1       5.386  32.751  58.142  1.00  0.00     0.209 C 
HETATM    7  O   UNL     1       5.393  32.766  56.921  1.00  0.00    -0.286 OA
HETATM    8  C   UNL     1       4.630  33.735  58.919  1.00  0.00     0.084 C 
ENDROOT
BRANCH   5   9
HETATM    9  C   UNL     1       6.922  30.629  58.208  1.00  0.00     0.280 C 
HETATM   10  N   UNL     1       6.058  29.647  57.754  1.00  0.00    -0.322 N 
HETATM   11  H   UNL     1       5.073  29.904  57.738  1.00  0.00     0.169 HD
HETATM   12  O   UNL     1       8.136  30.666  58.079  1.00  0.00    -0.265 OA
BRANCH  10  13
HETATM   13  C   UNL     1       6.432  28.376  57.279  1.00  0.00     0.035 A 
HETATM   14  C   UNL     1       5.703  27.697  56.297  1.00  0.00     0.039 A 
HETATM   15  C   UNL     1       6.172  26.479  55.830  1.00  0.00    -0.022 A 
HETATM   16  C   UNL     1       7.347  25.918  56.326  1.00  0.00    -0.025 A 
HETATM   17  C   UNL     1       5.588  25.640  54.748  1.00  0.00     0.274 C 
HETATM   18  C   UNL     1       7.649  24.637  55.627  1.00  0.00     0.273 C 
HETATM   19  C   UNL     1       8.080  26.569  57.305  1.00  0.00     0.012 A 
HETATM   20  N   UNL     1       6.449  24.381  54.716  1.00  0.00    -0.067 N 
HETATM   21  H   UNL     1       5.894  23.646  55.168  1.00  0.00     0.280 HD
HETATM   22  C   UNL     1       6.811  23.934  53.341  1.00  0.00     0.270 C 
HETATM   23  C   UNL     1       7.621  27.808  57.773  1.00  0.00     0.030 A 
ENDBRANCH  10  13
ENDBRANCH   5   9
BRANCH   3  24
HETATM   24  C   UNL     1       6.144  32.991  62.233  1.00  0.00     0.097 A 
HETATM   25  C   UNL     1       7.496  32.966  62.615  1.00  0.00     0.145 A 
HETATM   26  F   UNL     1       8.461  32.852  61.686  1.00  0.00    -0.204 F 
HETATM   27  C   UNL     1       7.880  33.090  63.950  1.00  0.00     0.045 A 
HETATM   28  C   UNL     1       6.911  33.227  64.940  1.00  0.00     0.003 A 
HETATM   29  C   UNL     1       5.560  33.221  64.591  1.00  0.00     0.002 A 
HETATM   30  C   UNL     1       5.180  33.098  63.251  1.00  0.00     0.035 A 
ENDBRANCH   3  24
TORSDOF 3
ENDMDL
MODEL 10
REMARK VINA RESULT:      -8.5      3.443      9.633
REMARK  3 active torsions:
REMARK  status: ('A' for Active; 'I' for Inactive)
REMARK    1  A    between atoms: N_3  and  C_4 
REMARK    2  A    between atoms: C_12  and  C_13 
REMARK       I    between atoms: C_13  and  N_14 
REMARK    3  A    between atoms: N_14  and  C_15 
ROOT
HETATM    1  C   UNL     1       7.177  32.947  60.936  1.00  0.00     0.070 C 
HETATM    2  C   UNL     1       7.018  31.961  59.802  1.00  0.00     0.036 C 
HETATM    3  N   UNL     1       5.901  32.015  58.954  1.00  0.00    -0.235 N 
HETATM    4  N   UNL     1       5.698  31.146  57.905  1.00  0.00    -0.157 NA
HETATM    5  C   UNL     1       6.563  30.188  57.732  1.00  0.00     0.195 C 
HETATM    6  C   UNL     1       7.714  29.971  58.673  1.00  0.00     0.209 C 
HETATM    7  O   UNL     1       8.384  28.949  58.628  1.00  0.00    -0.286 OA
HETATM    8  C   UNL     1       7.943  30.995  59.694  1.00  0.00     0.084 C 
ENDROOT
BRANCH   5   9
HETATM    9  C   UNL     1       6.341  29.262  56.557  1.00  0.00     0.280 C 
HETATM   10  N   UNL     1       6.475  27.921  56.876  1.00  0.00    -0.322 N 
HETATM   11  H   UNL     1       6.478  27.705  57.870  1.00  0.00     0.169 HD
HETATM   12  O   UNL     1       6.052  29.741  55.471  1.00  0.00    -0.265 OA
BRANCH  10  13
HETATM   13  C   UNL     1       6.556  26.860  55.954  1.00  0.00     0.035 A 
HETATM   14  C   UNL     1       7.578  25.905  55.998  1.00  0.00     0.039 A 
HETATM   15  C   UNL     1       7.552  24.849  55.100  1.00  0.00    -0.022 A 
HETATM   16  C   UNL     1       6.537  24.729  54.153  1.00  0.00    -0.025 A 
HETATM   17  C   UNL     1       8.496  23.700  55.027  1.00  0.00     0.274 C 
HETATM   18  C   UNL     1       6.719  23.489  53.347  1.00  0.00     0.273 C 
HETATM   19  C   UNL     1       5.521  25.668  54.087  1.00  0.00     0.012 A 
HETATM   20  N   UNL     1       8.053  22.901  53.806  1.00  0.00    -0.067 N 
HETATM   21  H   UNL     1       8.733  23.112  53.067  1.00  0.00     0.280 HD
HETATM   22  C   UNL     1       8.026  21.427  54.029  1.00  0.00     0.270 C 
HETATM   23  C   UNL     1       5.530  26.731  55.000  1.00  0.00     0.030 A 
ENDBRANCH  10  13
ENDBRANCH   5   9
BRANCH   3  24
HETATM   24  C   UNL     1       4.832  32.948  59.112  1.00  0.00     0.097 A 
HETATM   25  C   UNL     1       3.845  32.754  60.095  1.00  0.00     0.145 A 
HETATM   26  F   UNL     1       3.893  31.681  60.902  1.00  0.00    -0.204 F 
HETATM   27  C   UNL     1       2.815  33.675  60.285  1.00  0.00     0.045 A 
HETATM   28  C   UNL     1       2.741  34.808  59.479  1.00  0.00     0.003 A 
HETATM   29  C   UNL     1       3.688  35.007  58.475  1.00  0.00     0.002 A 
HETATM   30  C   UNL     1       4.720  34.081  58.289  1.00  0.00     0.035 A 
ENDBRANCH   3  24
TORSDOF 3
ENDMDL
