MODEL 1
REMARK VINA RESULT:      -9.2      0.000      0.000
REMARK  7 active torsions:
REMARK  status: ('A' for Active; 'I' for Inactive)
REMARK    1  A    between atoms: C_2  and  O_3 
REMARK    2  A    between atoms: O_3  and  C_4 
REMARK    3  A    between atoms: C_7  and  N_8 
REMARK    4  A    between atoms: N_8  and  C_9 
REMARK    5  A    between atoms: C_9  and  C_10 
REMARK       I    between atoms: C_10  and  N_11 
REMARK    6  A    between atoms: N_11  and  N_12 
REMARK    7  A    between atoms: C_13  and  C_14 
ROOT
HETATM    1  C   UNL     1       7.362  27.506  57.422  1.00  0.00     0.255 C 
HETATM    2  N   UNL     1       6.879  27.209  56.144  1.00  0.00    -0.246 N 
HETATM    3  O   UNL     1       7.947  26.717  58.162  1.00  0.00    -0.270 OA
HETATM    4  H   UNL     1       6.181  27.832  55.749  1.00  0.00     0.192 HD
ENDROOT
BRANCH   2   5
HETATM    5  N   UNL     1       6.809  25.931  55.634  1.00  0.00    -0.184 NA
HETATM    6  C   UNL     1       7.788  25.529  54.884  1.00  0.00     0.153 C 
BRANCH   6   7
HETATM    7  C   UNL     1       7.824  24.163  54.389  1.00  0.00     0.018 A 
HETATM    8  C   UNL     1       7.994  22.934  55.111  1.00  0.00     0.004 A 
HETATM    9  C   UNL     1       7.985  21.897  54.177  1.00  0.00     0.043 A 
HETATM   10  C   UNL     1       8.166  22.596  56.471  1.00  0.00     0.014 A 
HETATM   11  C   UNL     1       8.139  20.550  54.530  1.00  0.00     0.030 A 
HETATM   12  N   UNL     1       7.810  22.466  52.940  1.00  0.00    -0.358 N 
HETATM   13  C   UNL     1       8.310  20.248  55.884  1.00  0.00     0.002 A 
HETATM   14  C   UNL     1       8.322  21.257  56.844  1.00  0.00     0.001 A 
HETATM   15  H   UNL     1       7.771  21.943  52.077  1.00  0.00     0.166 HD
HETATM   16  C   UNL     1       7.714  23.831  53.044  1.00  0.00     0.018 A 
HETATM   17  C   UNL     1       7.537  24.684  51.839  1.00  0.00     0.069 C 
ENDBRANCH   6   7
ENDBRANCH   2   5
BRANCH   1  18
HETATM   18  C   UNL     1       7.089  28.954  57.836  1.00  0.00     0.224 C 
BRANCH  18  19
HETATM   19  N   UNL     1       8.230  29.517  58.556  1.00  0.00    -0.381 N 
HETATM   20  H   UNL     1       9.099  29.565  58.030  1.00  0.00     0.160 HD
BRANCH  19  21
HETATM   21  C   UNL     1       8.064  30.543  59.482  1.00  0.00     0.028 A 
HETATM   22  C   UNL     1       7.024  31.477  59.429  1.00  0.00     0.032 A 
HETATM   23  C   UNL     1       6.836  32.428  60.443  1.00  0.00     0.039 A 
HETATM   24  C   UNL     1       7.677  32.448  61.552  1.00  0.00     0.068 A 
HETATM   25  C   UNL     1       8.709  31.516  61.627  1.00  0.00     0.039 A 
HETATM   26  C   UNL     1       8.892  30.568  60.613  1.00  0.00     0.032 A 
BRANCH  24  27
HETATM   27  O   UNL     1       7.591  33.305  62.613  1.00  0.00    -0.352 OA
BRANCH  27  28
HETATM   28  C   UNL     1       7.785  32.744  63.911  1.00  0.00     0.171 C 
HETATM   29  C   UNL     1       7.268  33.738  64.937  1.00  0.00     0.034 C 
ENDBRANCH  27  28
ENDBRANCH  24  27
ENDBRANCH  19  21
ENDBRANCH  18  19
ENDBRANCH   1  18
TORSDOF 7
ENDMDL
MODEL 2
REMARK VINA RESULT:      -9.1      5.542     10.204
REMARK  7 active torsions:
REMARK  status: ('A' for Active; 'I' for Inactive)
REMARK    1  A    between atoms: C_2  and  O_3 
REMARK    2  A    between atoms: O_3  and  C_4 
REMARK    3  A    between atoms: C_7  and  N_8 
REMARK    4  A    between atoms: N_8  and  C_9 
REMARK    5  A    between atoms: C_9  and  C_10 
REMARK       I    between atoms: C_10  and  N_11 
REMARK    6  A    between atoms: N_11  and  N_12 
REMARK    7  A    between atoms: C_13  and  C_14 
ROOT
HETATM    1  C   UNL     1       5.400  26.347  51.973  1.00  0.00     0.255 C 
HETATM    2  N   UNL     1       5.866  26.648  53.256  1.00  0.00    -0.246 N 
HETATM    3  O   UNL     1       5.001  25.245  51.602  1.00  0.00    -0.270 OA
HETATM    4  H   UNL     1       6.422  27.490  53.368  1.00  0.00     0.192 HD
ENDROOT
BRANCH   2   5
HETATM    5  N   UNL     1       6.138  25.692  54.211  1.00  0.00    -0.184 NA
HETATM    6  C   UNL     1       7.346  25.223  54.263  1.00  0.00     0.153 C 
BRANCH   6   7
HETATM    7  C   UNL     1       7.727  24.282  55.304  1.00  0.00     0.018 A 
HETATM    8  C   UNL     1       7.901  22.859  55.229  1.00  0.00     0.004 A 
HETATM    9  C   UNL     1       8.242  22.413  56.506  1.00  0.00     0.043 A 
HETATM   10  C   UNL     1       7.791  21.897  54.200  1.00  0.00     0.014 A 
HETATM   11  C   UNL     1       8.476  21.065  56.807  1.00  0.00     0.030 A 
HETATM   12  N   UNL     1       8.282  23.514  57.324  1.00  0.00    -0.358 N 
HETATM   13  C   UNL     1       8.358  20.137  55.768  1.00  0.00     0.002 A 
HETATM   14  C   UNL     1       8.021  20.546  54.481  1.00  0.00     0.001 A 
HETATM   15  H   UNL     1       8.500  23.480  58.310  1.00  0.00     0.166 HD
HETATM   16  C   UNL     1       7.972  24.651  56.621  1.00  0.00     0.018 A 
HETATM   17  C   UNL     1       7.930  25.980  57.286  1.00  0.00     0.069 C 
ENDBRANCH   6   7
ENDBRANCH   2   5
BRANCH   1  18
HETATM   18  C   UNL     1       5.430  27.556  51.034  1.00  0.00     0.224 C 
BRANCH  18  19
HETATM   19  N   UNL     1       5.332  27.136  49.637  1.00  0.00    -0.381 N 
HETATM   20  H   UNL     1       5.966  26.391  49.358  1.00  0.00     0.160 HD
BRANCH  19  21
HETATM   21  C   UNL     1       4.110  27.126  48.971  1.00  0.00     0.028 A 
HETATM   22  C   UNL     1       3.729  26.135  48.061  1.00  0.00     0.032 A 
HETATM   23  C   UNL     1       2.446  26.110  47.493  1.00  0.00     0.039 A 
HETATM   24  C   UNL     1       1.502  27.070  47.848  1.00  0.00     0.068 A 
HETATM   25  C   UNL     1       1.861  28.056  48.764  1.00  0.00     0.039 A 
HETATM   26  C   UNL     1       3.143  28.076  49.327  1.00  0.00     0.032 A 
BRANCH  24  27
HETATM   27  O   UNL     1       0.217  27.147  47.387  1.00  0.00    -0.352 OA
BRANCH  27  28
HETATM   28  C   UNL     1       0.047  27.443  46.001  1.00  0.00     0.171 C 
HETATM   29  C   UNL     1      -1.022  28.514  45.876  1.00  0.00     0.034 C 
ENDBRANCH  27  28
ENDBRANCH  24  27
ENDBRANCH  19  21
ENDBRANCH  18  19
ENDBRANCH   1  18
TORSDOF 7
ENDMDL
MODEL 3
REMARK VINA RESULT:      -8.7      2.175      4.022
REMARK  7 active torsions:
REMARK  status: ('A' for Active; 'I' for Inactive)
REMARK    1  A    between atoms: C_2  and  O_3 
REMARK    2  A    between atoms: O_3  and  C_4 
REMARK    3  A    between atoms: C_7  and  N_8 
REMARK    4  A    between atoms: N_8  and  C_9 
REMARK    5  A    between atoms: C_9  and  C_10 
REMARK       I    between atoms: C_10  and  N_11 
REMARK    6  A    between atoms: N_11  and  N_12 
REMARK    7  A    between atoms: C_13  and  C_14 
ROOT
HETATM    1  C   UNL     1       7.679  30.891  59.246  1.00  0.00     0.255 C 
HETATM    2  N   UNL     1       8.245  29.615  59.184  1.00  0.00    -0.246 N 
HETATM    3  O   UNL     1       6.988  31.407  58.369  1.00  0.00    -0.270 OA
HETATM    4  H   UNL     1       9.009  29.408  59.820  1.00  0.00     0.192 HD
ENDROOT
BRANCH   2   5
HETATM    5  N   UNL     1       8.277  28.852  58.037  1.00  0.00    -0.184 NA
HETATM    6  C   UNL     1       7.394  27.909  57.918  1.00  0.00     0.153 C 
BRANCH   6   7
HETATM    7  C   UNL     1       7.312  27.127  56.696  1.00  0.00     0.018 A 
HETATM    8  C   UNL     1       7.755  25.785  56.439  1.00  0.00     0.004 A 
HETATM    9  C   UNL     1       7.473  25.502  55.102  1.00  0.00     0.043 A 
HETATM   10  C   UNL     1       8.381  24.781  57.209  1.00  0.00     0.014 A 
HETATM   11  C   UNL     1       7.784  24.276  54.500  1.00  0.00     0.030 A 
HETATM   12  N   UNL     1       6.878  26.617  54.567  1.00  0.00    -0.358 N 
HETATM   13  C   UNL     1       8.405  23.303  55.288  1.00  0.00     0.002 A 
HETATM   14  C   UNL     1       8.700  23.550  56.626  1.00  0.00     0.001 A 
HETATM   15  H   UNL     1       6.573  26.690  53.607  1.00  0.00     0.166 HD
HETATM   16  C   UNL     1       6.773  27.609  55.509  1.00  0.00     0.018 A 
HETATM   17  C   UNL     1       6.177  28.929  55.175  1.00  0.00     0.069 C 
ENDBRANCH   6   7
ENDBRANCH   2   5
BRANCH   1  18
HETATM   18  C   UNL     1       8.006  31.621  60.553  1.00  0.00     0.224 C 
BRANCH  18  19
HETATM   19  N   UNL     1       7.203  31.099  61.658  1.00  0.00    -0.381 N 
HETATM   20  H   UNL     1       7.346  30.117  61.879  1.00  0.00     0.160 HD
BRANCH  19  21
HETATM   21  C   UNL     1       6.889  31.893  62.757  1.00  0.00     0.028 A 
HETATM   22  C   UNL     1       7.846  32.526  63.557  1.00  0.00     0.032 A 
HETATM   23  C   UNL     1       7.479  33.401  64.591  1.00  0.00     0.039 A 
HETATM   24  C   UNL     1       6.137  33.682  64.831  1.00  0.00     0.068 A 
HETATM   25  C   UNL     1       5.172  33.071  64.034  1.00  0.00     0.039 A 
HETATM   26  C   UNL     1       5.544  32.199  63.003  1.00  0.00     0.032 A 
BRANCH  24  27
HETATM   27  O   UNL     1       5.649  34.527  65.788  1.00  0.00    -0.352 OA
BRANCH  27  28
HETATM   28  C   UNL     1       4.489  34.094  66.498  1.00  0.00     0.171 C 
HETATM   29  C   UNL     1       3.492  35.240  66.517  1.00  0.00     0.034 C 
ENDBRANCH  27  28
ENDBRANCH  24  27
ENDBRANCH  19  21
ENDBRANCH  18  19
ENDBRANCH   1  18
TORSDOF 7
ENDMDL
MODEL 4
REMARK VINA RESULT:      -8.7      5.307      9.055
REMARK  7 active torsions:
REMARK  status: ('A' for Active; 'I' for Inactive)
REMARK    1  A    between atoms: C_2  and  O_3 
REMARK    2  A    between atoms: O_3  and  C_4 
REMARK    3  A    between atoms: C_7  and  N_8 
REMARK    4  A    between atoms: N_8  and  C_9 
REMARK    5  A    between atoms: C_9  and  C_10 
REMARK       I    between atoms: C_10  and  N_11 
REMARK    6  A    between atoms: N_11  and  N_12 
REMARK    7  A    between atoms: C_13  and  C_14 
ROOT
HETATM    1  C   UNL     1       5.197  27.930  54.246  1.00  0.00     0.255 C 
HETATM    2  N   UNL     1       6.160  27.001  53.843  1.00  0.00    -0.246 N 
HETATM    3  O   UNL     1       4.615  27.926  55.330  1.00  0.00    -0.270 OA
HETATM    4  H   UNL     1       6.361  26.934  52.849  1.00  0.00     0.192 HD
ENDROOT
BRANCH   2   5
HETATM    5  N   UNL     1       6.426  25.834  54.526  1.00  0.00    -0.184 NA
HETATM    6  C   UNL     1       7.587  25.285  54.345  1.00  0.00     0.153 C 
BRANCH   6   7
HETATM    7  C   UNL     1       7.969  24.104  55.103  1.00  0.00     0.018 A 
HETATM    8  C   UNL     1       8.165  22.754  54.654  1.00  0.00     0.004 A 
HETATM    9  C   UNL     1       8.498  21.988  55.771  1.00  0.00     0.043 A 
HETATM   10  C   UNL     1       8.080  22.101  53.404  1.00  0.00     0.014 A 
HETATM   11  C   UNL     1       8.748  20.611  55.704  1.00  0.00     0.030 A 
HETATM   12  N   UNL     1       8.513  22.831  56.853  1.00  0.00    -0.358 N 
HETATM   13  C   UNL     1       8.655  19.993  54.454  1.00  0.00     0.002 A 
HETATM   14  C   UNL     1       8.327  20.726  53.318  1.00  0.00     0.001 A 
HETATM   15  H   UNL     1       8.719  22.538  57.797  1.00  0.00     0.166 HD
HETATM   16  C   UNL     1       8.194  24.111  56.474  1.00  0.00     0.018 A 
HETATM   17  C   UNL     1       8.125  25.215  57.468  1.00  0.00     0.069 C 
ENDBRANCH   6   7
ENDBRANCH   2   5
BRANCH   1  18
HETATM   18  C   UNL     1       4.920  28.996  53.182  1.00  0.00     0.224 C 
BRANCH  18  19
HETATM   19  N   UNL     1       5.813  28.835  52.035  1.00  0.00    -0.381 N 
HETATM   20  H   UNL     1       6.755  28.523  52.254  1.00  0.00     0.160 HD
BRANCH  19  21
HETATM   21  C   UNL     1       5.334  28.391  50.806  1.00  0.00     0.028 A 
HETATM   22  C   UNL     1       5.366  29.157  49.636  1.00  0.00     0.032 A 
HETATM   23  C   UNL     1       4.968  28.629  48.399  1.00  0.00     0.039 A 
HETATM   24  C   UNL     1       4.552  27.305  48.301  1.00  0.00     0.068 A 
HETATM   25  C   UNL     1       4.527  26.524  49.454  1.00  0.00     0.039 A 
HETATM   26  C   UNL     1       4.925  27.056  50.687  1.00  0.00     0.032 A 
BRANCH  24  27
HETATM   27  O   UNL     1       4.160  26.665  47.159  1.00  0.00    -0.352 OA
BRANCH  27  28
HETATM   28  C   UNL     1       2.876  26.040  47.178  1.00  0.00     0.171 C 
HETATM   29  C   UNL     1       1.825  27.116  46.976  1.00  0.00     0.034 C 
ENDBRANCH  27  28
ENDBRANCH  24  27
ENDBRANCH  19  21
ENDBRANCH  18  19
ENDBRANCH   1  18
TORSDOF 7
ENDMDL
MODEL 5
REMARK VINA RESULT:      -8.6      1.718      2.233
REMARK  7 active torsions:
REMARK  status: ('A' for Active; 'I' for Inactive)
REMARK    1  A    between atoms: C_2  and  O_3 
REMARK    2  A    between atoms: O_3  and  C_4 
REMARK    3  A    between atoms: C_7  and  N_8 
REMARK    4  A    between atoms: N_8  and  C_9 
REMARK    5  A    between atoms: C_9  and  C_10 
REMARK       I    between atoms: C_10  and  N_11 
REMARK    6  A    between atoms: N_11  and  N_12 
REMARK    7  A    between atoms: C_13  and  C_14 
ROOT
HETATM    1  C   UNL     1       6.360  28.276  54.875  1.00  0.00     0.255 C 
HETATM    2  N   UNL     1       6.715  27.168  55.650  1.00  0.00    -0.246 N 
HETATM    3  O   UNL     1       6.404  28.329  53.647  1.00  0.00    -0.270 OA
HETATM    4  H   UNL     1       6.907  27.326  56.635  1.00  0.00     0.192 HD
ENDROOT
BRANCH   2   5
HETATM    5  N   UNL     1       7.365  26.063  55.145  1.00  0.00    -0.184 NA
HETATM    6  C   UNL     1       6.639  25.042  54.810  1.00  0.00     0.153 C 
BRANCH   6   7
HETATM    7  C   UNL     1       7.247  23.878  54.186  1.00  0.00     0.018 A 
HETATM    8  C   UNL     1       7.640  22.628  54.772  1.00  0.00     0.004 A 
HETATM    9  C   UNL     1       8.203  21.850  53.759  1.00  0.00     0.043 A 
HETATM   10  C   UNL     1       7.584  22.080  56.073  1.00  0.00     0.014 A 
HETATM   11  C   UNL     1       8.709  20.563  53.977  1.00  0.00     0.030 A 
HETATM   12  N   UNL     1       8.150  22.589  52.603  1.00  0.00    -0.358 N 
HETATM   13  C   UNL     1       8.642  20.048  55.275  1.00  0.00     0.002 A 
HETATM   14  C   UNL     1       8.085  20.795  56.311  1.00  0.00     0.001 A 
HETATM   15  H   UNL     1       8.496  22.268  51.711  1.00  0.00     0.166 HD
HETATM   16  C   UNL     1       7.581  23.815  52.838  1.00  0.00     0.018 A 
HETATM   17  C   UNL     1       7.423  24.813  51.747  1.00  0.00     0.069 C 
ENDBRANCH   6   7
ENDBRANCH   2   5
BRANCH   1  18
HETATM   18  C   UNL     1       5.892  29.464  55.721  1.00  0.00     0.224 C 
BRANCH  18  19
HETATM   19  N   UNL     1       5.998  29.165  57.148  1.00  0.00    -0.381 N 
HETATM   20  H   UNL     1       5.926  28.181  57.396  1.00  0.00     0.160 HD
BRANCH  19  21
HETATM   21  C   UNL     1       6.835  29.904  57.979  1.00  0.00     0.028 A 
HETATM   22  C   UNL     1       8.152  29.541  58.279  1.00  0.00     0.032 A 
HETATM   23  C   UNL     1       8.991  30.371  59.037  1.00  0.00     0.039 A 
HETATM   24  C   UNL     1       8.533  31.604  59.492  1.00  0.00     0.068 A 
HETATM   25  C   UNL     1       7.229  31.988  59.191  1.00  0.00     0.039 A 
HETATM   26  C   UNL     1       6.396  31.155  58.434  1.00  0.00     0.032 A 
BRANCH  24  27
HETATM   27  O   UNL     1       9.251  32.513  60.219  1.00  0.00    -0.352 OA
BRANCH  27  28
HETATM   28  C   UNL     1       9.748  32.077  61.484  1.00  0.00     0.171 C 
HETATM   29  C   UNL     1       8.591  32.069  62.467  1.00  0.00     0.034 C 
ENDBRANCH  27  28
ENDBRANCH  24  27
ENDBRANCH  19  21
ENDBRANCH  18  19
ENDBRANCH   1  18
TORSDOF 7
ENDMDL
MODEL 6
REMARK VINA RESULT:      -8.6      2.005      3.479
REMARK  7 active torsions:
REMARK  status: ('A' for Active; 'I' for Inactive)
REMARK    1  A    between atoms: C_2  and  O_3 
REMARK    2  A    between atoms: O_3  and  C_4 
REMARK    3  A    between atoms: C_7  and  N_8 
REMARK    4  A    between atoms: N_8  and  C_9 
REMARK    5  A    between atoms: C_9  and  C_10 
REMARK       I    between atoms: C_10  and  N_11 
REMARK    6  A    between atoms: N_11  and  N_12 
REMARK    7  A    between atoms: C_13  and  C_14 
ROOT
HETATM    1  C   UNL     1       8.674  29.887  58.340  1.00  0.00     0.255 C 
HETATM    2  N   UNL     1       7.826  28.817  58.043  1.00  0.00    -0.246 N 
HETATM    3  O   UNL     1       9.847  29.984  57.985  1.00  0.00    -0.270 OA
HETATM    4  H   UNL     1       6.990  28.709  58.610  1.00  0.00     0.192 HD
ENDROOT
BRANCH   2   5
HETATM    5  N   UNL     1       8.260  27.630  57.493  1.00  0.00    -0.184 NA
HETATM    6  C   UNL     1       7.390  26.910  56.856  1.00  0.00     0.153 C 
BRANCH   6   7
HETATM    7  C   UNL     1       7.798  25.694  56.173  1.00  0.00     0.018 A 
HETATM    8  C   UNL     1       7.684  25.344  54.785  1.00  0.00     0.004 A 
HETATM    9  C   UNL     1       8.198  24.055  54.637  1.00  0.00     0.043 A 
HETATM   10  C   UNL     1       7.183  25.992  53.635  1.00  0.00     0.014 A 
HETATM   11  C   UNL     1       8.234  23.384  53.407  1.00  0.00     0.030 A 
HETATM   12  N   UNL     1       8.613  23.638  55.877  1.00  0.00    -0.358 N 
HETATM   13  C   UNL     1       7.729  24.051  52.288  1.00  0.00     0.002 A 
HETATM   14  C   UNL     1       7.212  25.338  52.397  1.00  0.00     0.001 A 
HETATM   15  H   UNL     1       9.023  22.734  56.062  1.00  0.00     0.166 HD
HETATM   16  C   UNL     1       8.380  24.609  56.818  1.00  0.00     0.018 A 
HETATM   17  C   UNL     1       8.727  24.396  58.247  1.00  0.00     0.069 C 
ENDBRANCH   6   7
ENDBRANCH   2   5
BRANCH   1  18
HETATM   18  C   UNL     1       7.989  30.971  59.178  1.00  0.00     0.224 C 
BRANCH  18  19
HETATM   19  N   UNL     1       8.013  30.627  60.599  1.00  0.00    -0.381 N 
HETATM   20  H   UNL     1       8.767  30.009  60.888  1.00  0.00     0.160 HD
BRANCH  19  21
HETATM   21  C   UNL     1       7.622  31.546  61.569  1.00  0.00     0.028 A 
HETATM   22  C   UNL     1       8.251  31.679  62.811  1.00  0.00     0.032 A 
HETATM   23  C   UNL     1       7.889  32.689  63.715  1.00  0.00     0.039 A 
HETATM   24  C   UNL     1       6.901  33.610  63.380  1.00  0.00     0.068 A 
HETATM   25  C   UNL     1       6.275  33.501  62.141  1.00  0.00     0.039 A 
HETATM   26  C   UNL     1       6.640  32.490  61.243  1.00  0.00     0.032 A 
BRANCH  24  27
HETATM   27  O   UNL     1       6.471  34.650  64.157  1.00  0.00    -0.352 OA
BRANCH  27  28
HETATM   28  C   UNL     1       5.077  34.692  64.463  1.00  0.00     0.171 C 
HETATM   29  C   UNL     1       4.813  33.712  65.592  1.00  0.00     0.034 C 
ENDBRANCH  27  28
ENDBRANCH  24  27
ENDBRANCH  19  21
ENDBRANCH  18  19
ENDBRANCH   1  18
TORSDOF 7
ENDMDL
MODEL 7
REMARK VINA RESULT:      -8.3      2.433      3.767
REMARK  7 active torsions:
REMARK  status: ('A' for Active; 'I' for Inactive)
REMARK    1  A    between atoms: C_2  and  O_3 
REMARK    2  A    between atoms: O_3  and  C_4 
REMARK    3  A    between atoms: C_7  and  N_8 
REMARK    4  A    between atoms: N_8  and  C_9 
REMARK    5  A    between atoms: C_9  and  C_10 
REMARK       I    between atoms: C_10  and  N_11 
REMARK    6  A    between atoms: N_11  and  N_12 
REMARK    7  A    between atoms: C_13  and  C_14 
ROOT
HETATM    1  C   UNL     1       7.464  29.800  58.278  1.00  0.00     0.255 C 
HETATM    2  N   UNL     1       6.409  29.972  57.378  1.00  0.00    -0.246 N 
HETATM    3  O   UNL     1       8.145  28.782  58.390  1.00  0.00    -0.270 OA
HETATM    4  H   UNL     1       5.752  30.724  57.562  1.00  0.00     0.192 HD
ENDROOT
BRANCH   2   5
HETATM    5  N   UNL     1       5.858  28.943  56.645  1.00  0.00    -0.184 NA
HETATM    6  C   UNL     1       6.093  28.922  55.370  1.00  0.00     0.153 C 
BRANCH   6   7
HETATM    7  C   UNL     1       5.620  27.817  54.552  1.00  0.00     0.018 A 
HETATM    8  C   UNL     1       6.192  26.514  54.359  1.00  0.00     0.004 A 
HETATM    9  C   UNL     1       5.375  25.830  53.458  1.00  0.00     0.043 A 
HETATM   10  C   UNL     1       7.334  25.847  54.853  1.00  0.00     0.014 A 
HETATM   11  C   UNL     1       5.640  24.523  53.027  1.00  0.00     0.030 A 
HETATM   12  N   UNL     1       4.346  26.673  53.120  1.00  0.00    -0.358 N 
HETATM   13  C   UNL     1       6.779  23.890  53.533  1.00  0.00     0.002 A 
HETATM   14  C   UNL     1       7.616  24.541  54.435  1.00  0.00     0.001 A 
HETATM   15  H   UNL     1       3.607  26.435  52.475  1.00  0.00     0.166 HD
HETATM   16  C   UNL     1       4.476  27.878  53.766  1.00  0.00     0.018 A 
HETATM   17  C   UNL     1       3.494  28.974  53.556  1.00  0.00     0.069 C 
ENDBRANCH   6   7
ENDBRANCH   2   5
BRANCH   1  18
HETATM   18  C   UNL     1       7.709  31.038  59.147  1.00  0.00     0.224 C 
BRANCH  18  19
HETATM   19  N   UNL     1       7.973  30.660  60.534  1.00  0.00    -0.381 N 
HETATM   20  H   UNL     1       8.860  30.188  60.698  1.00  0.00     0.160 HD
BRANCH  19  21
HETATM   21  C   UNL     1       7.544  31.455  61.592  1.00  0.00     0.028 A 
HETATM   22  C   UNL     1       8.340  31.776  62.697  1.00  0.00     0.032 A 
HETATM   23  C   UNL     1       7.900  32.666  63.688  1.00  0.00     0.039 A 
HETATM   24  C   UNL     1       6.655  33.279  63.579  1.00  0.00     0.068 A 
HETATM   25  C   UNL     1       5.855  32.981  62.478  1.00  0.00     0.039 A 
HETATM   26  C   UNL     1       6.300  32.092  61.492  1.00  0.00     0.032 A 
BRANCH  24  27
HETATM   27  O   UNL     1       6.118  34.177  64.460  1.00  0.00    -0.352 OA
BRANCH  27  28
HETATM   28  C   UNL     1       4.759  33.969  64.843  1.00  0.00     0.171 C 
HETATM   29  C   UNL     1       4.693  33.961  66.360  1.00  0.00     0.034 C 
ENDBRANCH  27  28
ENDBRANCH  24  27
ENDBRANCH  19  21
ENDBRANCH  18  19
ENDBRANCH   1  18
TORSDOF 7
ENDMDL
MODEL 8
REMARK VINA RESULT:      -8.2      2.490     10.981
REMARK  7 active torsions:
REMARK  status: ('A' for Active; 'I' for Inactive)
REMARK    1  A    between atoms: C_2  and  O_3 
REMARK    2  A    between atoms: O_3  and  C_4 
REMARK    3  A    between atoms: C_7  and  N_8 
REMARK    4  A    between atoms: N_8  and  C_9 
REMARK    5  A    between atoms: C_9  and  C_10 
REMARK       I    between atoms: C_10  and  N_11 
REMARK    6  A    between atoms: N_11  and  N_12 
REMARK    7  A    between atoms: C_13  and  C_14 
ROOT
HETATM    1  C   UNL     1       7.704  30.024  58.254  1.00  0.00     0.255 C 
HETATM    2  N   UNL     1       6.860  31.125  58.095  1.00  0.00    -0.246 N 
HETATM    3  O   UNL     1       8.319  29.742  59.281  1.00  0.00    -0.270 OA
HETATM    4  H   UNL     1       6.635  31.411  57.146  1.00  0.00     0.192 HD
ENDROOT
BRANCH   2   5
HETATM    5  N   UNL     1       6.774  32.158  59.003  1.00  0.00    -0.184 NA
HETATM    6  C   UNL     1       5.791  32.134  59.848  1.00  0.00     0.153 C 
BRANCH   6   7
HETATM    7  C   UNL     1       5.692  33.140  60.892  1.00  0.00     0.018 A 
HETATM    8  C   UNL     1       6.378  33.221  62.152  1.00  0.00     0.004 A 
HETATM    9  C   UNL     1       5.915  34.363  62.806  1.00  0.00     0.043 A 
HETATM   10  C   UNL     1       7.343  32.427  62.810  1.00  0.00     0.014 A 
HETATM   11  C   UNL     1       6.362  34.749  64.076  1.00  0.00     0.030 A 
HETATM   12  N   UNL     1       4.993  34.958  61.982  1.00  0.00    -0.358 N 
HETATM   13  C   UNL     1       7.316  33.942  64.703  1.00  0.00     0.002 A 
HETATM   14  C   UNL     1       7.803  32.797  64.079  1.00  0.00     0.001 A 
HETATM   15  H   UNL     1       4.492  35.804  62.211  1.00  0.00     0.166 HD
HETATM   16  C   UNL     1       4.841  34.237  60.824  1.00  0.00     0.018 A 
HETATM   17  C   UNL     1       3.884  34.664  59.770  1.00  0.00     0.069 C 
ENDBRANCH   6   7
ENDBRANCH   2   5
BRANCH   1  18
HETATM   18  C   UNL     1       7.801  29.163  56.991  1.00  0.00     0.224 C 
BRANCH  18  19
HETATM   19  N   UNL     1       8.498  27.907  57.264  1.00  0.00    -0.381 N 
HETATM   20  H   UNL     1       8.913  27.829  58.190  1.00  0.00     0.160 HD
BRANCH  19  21
HETATM   21  C   UNL     1       8.044  26.702  56.737  1.00  0.00     0.028 A 
HETATM   22  C   UNL     1       7.420  26.584  55.491  1.00  0.00     0.032 A 
HETATM   23  C   UNL     1       7.074  25.334  54.956  1.00  0.00     0.039 A 
HETATM   24  C   UNL     1       7.372  24.166  55.651  1.00  0.00     0.068 A 
HETATM   25  C   UNL     1       8.006  24.264  56.887  1.00  0.00     0.039 A 
HETATM   26  C   UNL     1       8.349  25.515  57.416  1.00  0.00     0.032 A 
BRANCH  24  27
HETATM   27  O   UNL     1       7.109  22.890  55.234  1.00  0.00    -0.352 OA
BRANCH  27  28
HETATM   28  C   UNL     1       8.204  21.975  55.232  1.00  0.00     0.171 C 
HETATM   29  C   UNL     1       7.721  20.662  55.822  1.00  0.00     0.034 C 
ENDBRANCH  27  28
ENDBRANCH  24  27
ENDBRANCH  19  21
ENDBRANCH  18  19
ENDBRANCH   1  18
TORSDOF 7
ENDMDL
MODEL 9
REMARK VINA RESULT:      -8.1      2.412     10.685
REMARK  7 active torsions:
REMARK  status: ('A' for Active; 'I' for Inactive)
REMARK    1  A    between atoms: C_2  and  O_3 
REMARK    2  A    between atoms: O_3  and  C_4 
REMARK    3  A    between atoms: C_7  and  N_8 
REMARK    4  A    between atoms: N_8  and  C_9 
REMARK    5  A    between atoms: C_9  and  C_10 
REMARK       I    between atoms: C_10  and  N_11 
REMARK    6  A    between atoms: N_11  and  N_12 
REMARK    7  A    between atoms: C_13  and  C_14 
ROOT
HETATM    1  C   UNL     1       7.755  28.855  56.795  1.00  0.00     0.255 C 
HETATM    2  N   UNL     1       6.719  29.785  56.916  1.00  0.00    -0.246 N 
HETATM    3  O   UNL     1       8.333  28.309  57.732  1.00  0.00    -0.270 OA
HETATM    4  H   UNL     1       6.515  30.369  56.110  1.00  0.00     0.192 HD
ENDROOT
BRANCH   2   5
HETATM    5  N   UNL     1       6.355  30.369  58.109  1.00  0.00    -0.184 NA
HETATM    6  C   UNL     1       6.800  31.563  58.354  1.00  0.00     0.153 C 
BRANCH   6   7
HETATM    7  C   UNL     1       6.381  32.274  59.550  1.00  0.00     0.018 A 
HETATM    8  C   UNL     1       7.010  32.342  60.839  1.00  0.00     0.004 A 
HETATM    9  C   UNL     1       6.201  33.132  61.657  1.00  0.00     0.043 A 
HETATM   10  C   UNL     1       8.187  31.800  61.400  1.00  0.00     0.014 A 
HETATM   11  C   UNL     1       6.504  33.404  62.997  1.00  0.00     0.030 A 
HETATM   12  N   UNL     1       5.128  33.535  60.900  1.00  0.00    -0.358 N 
HETATM   13  C   UNL     1       7.675  32.852  63.524  1.00  0.00     0.002 A 
HETATM   14  C   UNL     1       8.508  32.061  62.737  1.00  0.00     0.001 A 
HETATM   15  H   UNL     1       4.378  34.115  61.245  1.00  0.00     0.166 HD
HETATM   16  C   UNL     1       5.215  33.027  59.628  1.00  0.00     0.018 A 
HETATM   17  C   UNL     1       4.164  33.304  58.614  1.00  0.00     0.069 C 
ENDBRANCH   6   7
ENDBRANCH   2   5
BRANCH   1  18
HETATM   18  C   UNL     1       8.122  28.564  55.337  1.00  0.00     0.224 C 
BRANCH  18  19
HETATM   19  N   UNL     1       7.023  27.893  54.644  1.00  0.00    -0.381 N 
HETATM   20  H   UNL     1       6.548  28.447  53.936  1.00  0.00     0.160 HD
BRANCH  19  21
HETATM   21  C   UNL     1       7.072  26.530  54.367  1.00  0.00     0.028 A 
HETATM   22  C   UNL     1       7.633  25.992  53.204  1.00  0.00     0.032 A 
HETATM   23  C   UNL     1       7.754  24.607  53.017  1.00  0.00     0.039 A 
HETATM   24  C   UNL     1       7.334  23.725  54.009  1.00  0.00     0.068 A 
HETATM   25  C   UNL     1       6.786  24.244  55.179  1.00  0.00     0.039 A 
HETATM   26  C   UNL     1       6.668  25.628  55.361  1.00  0.00     0.032 A 
BRANCH  24  27
HETATM   27  O   UNL     1       7.414  22.361  53.961  1.00  0.00    -0.352 OA
BRANCH  27  28
HETATM   28  C   UNL     1       8.095  21.794  52.842  1.00  0.00     0.171 C 
HETATM   29  C   UNL     1       8.363  20.331  53.145  1.00  0.00     0.034 C 
ENDBRANCH  27  28
ENDBRANCH  24  27
ENDBRANCH  19  21
ENDBRANCH  18  19
ENDBRANCH   1  18
TORSDOF 7
ENDMDL
MODEL 10
REMARK VINA RESULT:      -8.0      3.376      9.973
REMARK  7 active torsions:
REMARK  status: ('A' for Active; 'I' for Inactive)
REMARK    1  A    between atoms: C_2  and  O_3 
REMARK    2  A    between atoms: O_3  and  C_4 
REMARK    3  A    between atoms: C_7  and  N_8 
REMARK    4  A    between atoms: N_8  and  C_9 
REMARK    5  A    between atoms: C_9  and  C_10 
REMARK       I    between atoms: C_10  and  N_11 
REMARK    6  A    between atoms: N_11  and  N_12 
REMARK    7  A    between atoms: C_13  and  C_14 
ROOT
HETATM    1  C   UNL     1       5.446  28.070  53.618  1.00  0.00     0.255 C 
HETATM    2  N   UNL     1       4.974  28.327  54.908  1.00  0.00    -0.246 N 
HETATM    3  O   UNL     1       6.396  28.637  53.082  1.00  0.00    -0.270 OA
HETATM    4  H   UNL     1       4.035  28.012  55.136  1.00  0.00     0.192 HD
ENDROOT
BRANCH   2   5
HETATM    5  N   UNL     1       5.382  29.401  55.668  1.00  0.00    -0.184 NA
HETATM    6  C   UNL     1       5.507  29.219  56.946  1.00  0.00     0.153 C 
BRANCH   6   7
HETATM    7  C   UNL     1       6.021  30.281  57.795  1.00  0.00     0.018 A 
HETATM    8  C   UNL     1       7.372  30.558  58.195  1.00  0.00     0.004 A 
HETATM    9  C   UNL     1       7.339  31.671  59.035  1.00  0.00     0.043 A 
HETATM   10  C   UNL     1       8.627  29.965  57.934  1.00  0.00     0.014 A 
HETATM   11  C   UNL     1       8.486  32.217  59.626  1.00  0.00     0.030 A 
HETATM   12  N   UNL     1       6.027  32.062  59.140  1.00  0.00    -0.358 N 
HETATM   13  C   UNL     1       9.712  31.606  59.350  1.00  0.00     0.002 A 
HETATM   14  C   UNL     1       9.785  30.496  58.514  1.00  0.00     0.001 A 
HETATM   15  H   UNL     1       5.712  32.844  59.696  1.00  0.00     0.166 HD
HETATM   16  C   UNL     1       5.215  31.236  58.403  1.00  0.00     0.018 A 
HETATM   17  C   UNL     1       3.743  31.438  58.363  1.00  0.00     0.069 C 
ENDBRANCH   6   7
ENDBRANCH   2   5
BRANCH   1  18
HETATM   18  C   UNL     1       4.646  26.977  52.902  1.00  0.00     0.224 C 
BRANCH  18  19
HETATM   19  N   UNL     1       4.631  25.742  53.684  1.00  0.00    -0.381 N 
HETATM   20  H   UNL     1       3.769  25.204  53.637  1.00  0.00     0.160 HD
BRANCH  19  21
HETATM   21  C   UNL     1       5.779  24.970  53.834  1.00  0.00     0.028 A 
HETATM   22  C   UNL     1       6.202  24.435  55.055  1.00  0.00     0.032 A 
HETATM   23  C   UNL     1       7.308  23.576  55.140  1.00  0.00     0.039 A 
HETATM   24  C   UNL     1       8.004  23.212  53.991  1.00  0.00     0.068 A 
HETATM   25  C   UNL     1       7.588  23.725  52.764  1.00  0.00     0.039 A 
HETATM   26  C   UNL     1       6.483  24.582  52.686  1.00  0.00     0.032 A 
BRANCH  24  27
HETATM   27  O   UNL     1       9.081  22.372  53.932  1.00  0.00    -0.352 OA
BRANCH  27  28
HETATM   28  C   UNL     1       8.835  20.991  54.196  1.00  0.00     0.171 C 
HETATM   29  C   UNL     1       8.415  20.329  52.896  1.00  0.00     0.034 C 
ENDBRANCH  27  28
ENDBRANCH  24  27
ENDBRANCH  19  21
ENDBRANCH  18  19
ENDBRANCH   1  18
TORSDOF 7
ENDMDL
