MODEL 1
REMARK VINA RESULT:      -9.3      0.000      0.000
REMARK  8 active torsions:
REMARK  status: ('A' for Active; 'I' for Inactive)
REMARK    1  A    between atoms: C_4  and  N_5 
REMARK    2  A    between atoms: N_5  and  S_6 
REMARK    3  A    between atoms: S_6  and  C_7 
REMARK    4  A    between atoms: C_13  and  C_14 
REMARK       I    between atoms: C_14  and  N_15 
REMARK    5  A    between atoms: N_15  and  C_16 
REMARK    6  A    between atoms: C_16  and  C_17 
REMARK    7  A    between atoms: C_17  and  C_18 
REMARK    8  A    between atoms: C_18  and  O_19 
ROOT
HETATM    1  C   UNL     1       6.574  28.108  54.727  1.00  0.00     0.081 A 
HETATM    2  C   UNL     1       6.622  28.770  55.957  1.00  0.00     0.043 A 
HETATM    3  C   UNL     1       7.837  29.306  56.394  1.00  0.00     0.043 A 
HETATM    4  C   UNL     1       8.998  29.203  55.607  1.00  0.00     0.046 A 
HETATM    5  N   UNL     1      10.210  29.705  56.090  1.00  0.00    -0.364 N 
HETATM    6  C   UNL     1      10.271  30.363  57.293  1.00  0.00     0.109 A 
HETATM    7  C   UNL     1       9.239  30.546  58.133  1.00  0.00     0.098 A 
HETATM    8  C   UNL     1       7.919  29.997  57.709  1.00  0.00     0.201 A 
HETATM    9  O   UNL     1       6.919  30.100  58.415  1.00  0.00    -0.286 OA
HETATM   10  C   UNL     1       8.929  28.540  54.377  1.00  0.00     0.032 A 
HETATM   11  C   UNL     1       7.718  28.004  53.928  1.00  0.00     0.027 A 
HETATM   12  H   UNL     1      11.016  29.748  55.474  1.00  0.00     0.165 HD
ENDROOT
BRANCH   1  13
HETATM   13  S   UNL     1       5.025  27.444  54.154  1.00  0.00     0.263 S 
HETATM   14  O   UNL     1       5.147  27.192  52.735  1.00  0.00    -0.200 OA
HETATM   15  O   UNL     1       3.977  28.295  54.678  1.00  0.00    -0.200 OA
BRANCH  13  16
HETATM   16  N   UNL     1       4.910  25.983  54.994  1.00  0.00    -0.281 N 
HETATM   17  H   UNL     1       4.310  26.051  55.815  1.00  0.00     0.179 HD
BRANCH  16  18
HETATM   18  C   UNL     1       6.054  25.143  55.075  1.00  0.00     0.043 A 
HETATM   19  C   UNL     1       6.846  25.160  56.225  1.00  0.00     0.037 A 
HETATM   20  C   UNL     1       7.996  24.365  56.295  1.00  0.00    -0.059 A 
HETATM   21  C   UNL     1       8.859  24.361  57.523  1.00  0.00     0.048 C 
HETATM   22  C   UNL     1       8.327  23.541  55.210  1.00  0.00     0.013 A 
HETATM   23  C   UNL     1       7.537  23.522  54.053  1.00  0.00    -0.059 A 
HETATM   24  C   UNL     1       6.400  24.335  53.993  1.00  0.00     0.037 A 
HETATM   25  C   UNL     1       7.894  22.615  52.912  1.00  0.00     0.048 C 
ENDBRANCH  16  18
ENDBRANCH  13  16
ENDBRANCH   1  13
BRANCH   7  26
HETATM   26  C   UNL     1       9.487  31.265  59.417  1.00  0.00     0.257 C 
HETATM   27  N   UNL     1       9.129  30.583  60.552  1.00  0.00    -0.357 N 
HETATM   28  H   UNL     1       8.727  29.649  60.451  1.00  0.00     0.162 HD
HETATM   29  O   UNL     1       9.987  32.387  59.440  1.00  0.00    -0.267 OA
BRANCH  27  30
HETATM   30  C   UNL     1       9.343  31.111  61.880  1.00  0.00     0.125 C 
BRANCH  30  31
HETATM   31  C   UNL     1       8.048  31.240  62.673  1.00  0.00     0.046 C 
BRANCH  31  32
HETATM   32  C   UNL     1       7.551  32.680  62.675  1.00  0.00     0.168 C 
BRANCH  32  33
HETATM   33  O   UNL     1       7.259  33.066  61.333  1.00  0.00    -0.396 OA
HETATM   34  C   UNL     1       6.014  32.538  60.894  1.00  0.00     0.201 C 
ENDBRANCH  32  33
ENDBRANCH  31  32
ENDBRANCH  30  31
ENDBRANCH  27  30
ENDBRANCH   7  26
TORSDOF 8
ENDMDL
MODEL 2
REMARK VINA RESULT:      -9.1      1.966      2.422
REMARK  8 active torsions:
REMARK  status: ('A' for Active; 'I' for Inactive)
REMARK    1  A    between atoms: C_4  and  N_5 
REMARK    2  A    between atoms: N_5  and  S_6 
REMARK    3  A    between atoms: S_6  and  C_7 
REMARK    4  A    between atoms: C_13  and  C_14 
REMARK       I    between atoms: C_14  and  N_15 
REMARK    5  A    between atoms: N_15  and  C_16 
REMARK    6  A    between atoms: C_16  and  C_17 
REMARK    7  A    between atoms: C_17  and  C_18 
REMARK    8  A    between atoms: C_18  and  O_19 
ROOT
HETATM    1  C   UNL     1       6.045  27.239  54.729  1.00  0.00     0.081 A 
HETATM    2  C   UNL     1       6.945  27.617  55.729  1.00  0.00     0.043 A 
HETATM    3  C   UNL     1       6.730  28.813  56.420  1.00  0.00     0.043 A 
HETATM    4  C   UNL     1       5.617  29.623  56.135  1.00  0.00     0.046 A 
HETATM    5  N   UNL     1       5.452  30.838  56.808  1.00  0.00    -0.364 N 
HETATM    6  C   UNL     1       6.324  31.219  57.797  1.00  0.00     0.109 A 
HETATM    7  C   UNL     1       7.415  30.534  58.180  1.00  0.00     0.098 A 
HETATM    8  C   UNL     1       7.685  29.248  57.476  1.00  0.00     0.201 A 
HETATM    9  O   UNL     1       8.664  28.557  57.743  1.00  0.00    -0.286 OA
HETATM   10  C   UNL     1       4.725  29.226  55.133  1.00  0.00     0.032 A 
HETATM   11  C   UNL     1       4.928  28.030  54.438  1.00  0.00     0.027 A 
HETATM   12  H   UNL     1       4.588  31.359  56.698  1.00  0.00     0.165 HD
ENDROOT
BRANCH   1  13
HETATM   13  S   UNL     1       6.300  25.706  53.860  1.00  0.00     0.263 S 
HETATM   14  O   UNL     1       6.480  26.014  52.459  1.00  0.00    -0.200 OA
HETATM   15  O   UNL     1       5.268  24.790  54.301  1.00  0.00    -0.200 OA
BRANCH  13  16
HETATM   16  N   UNL     1       7.748  25.139  54.520  1.00  0.00    -0.281 N 
HETATM   17  H   UNL     1       8.556  25.668  54.198  1.00  0.00     0.179 HD
BRANCH  16  18
HETATM   18  C   UNL     1       7.909  23.743  54.731  1.00  0.00     0.043 A 
HETATM   19  C   UNL     1       8.007  23.246  56.032  1.00  0.00     0.037 A 
HETATM   20  C   UNL     1       8.207  21.877  56.246  1.00  0.00    -0.059 A 
HETATM   21  C   UNL     1       8.308  21.318  57.635  1.00  0.00     0.048 C 
HETATM   22  C   UNL     1       8.286  21.015  55.143  1.00  0.00     0.013 A 
HETATM   23  C   UNL     1       8.191  21.509  53.835  1.00  0.00    -0.059 A 
HETATM   24  C   UNL     1       8.008  22.882  53.639  1.00  0.00     0.037 A 
HETATM   25  C   UNL     1       8.253  20.567  52.669  1.00  0.00     0.048 C 
ENDBRANCH  16  18
ENDBRANCH  13  16
ENDBRANCH   1  13
BRANCH   7  26
HETATM   26  C   UNL     1       8.271  31.107  59.259  1.00  0.00     0.257 C 
HETATM   27  N   UNL     1       8.270  30.414  60.442  1.00  0.00    -0.357 N 
HETATM   28  H   UNL     1       7.700  29.568  60.510  1.00  0.00     0.162 HD
HETATM   29  O   UNL     1       8.933  32.127  59.081  1.00  0.00    -0.267 OA
BRANCH  27  30
HETATM   30  C   UNL     1       9.080  30.802  61.576  1.00  0.00     0.125 C 
BRANCH  30  31
HETATM   31  C   UNL     1       8.365  31.787  62.493  1.00  0.00     0.046 C 
BRANCH  31  32
HETATM   32  C   UNL     1       6.885  31.449  62.609  1.00  0.00     0.168 C 
BRANCH  32  33
HETATM   33  O   UNL     1       6.152  32.280  61.711  1.00  0.00    -0.396 OA
HETATM   34  C   UNL     1       6.461  33.655  61.898  1.00  0.00     0.201 C 
ENDBRANCH  32  33
ENDBRANCH  31  32
ENDBRANCH  30  31
ENDBRANCH  27  30
ENDBRANCH   7  26
TORSDOF 8
ENDMDL
MODEL 3
REMARK VINA RESULT:      -9.1      1.930      2.885
REMARK  8 active torsions:
REMARK  status: ('A' for Active; 'I' for Inactive)
REMARK    1  A    between atoms: C_4  and  N_5 
REMARK    2  A    between atoms: N_5  and  S_6 
REMARK    3  A    between atoms: S_6  and  C_7 
REMARK    4  A    between atoms: C_13  and  C_14 
REMARK       I    between atoms: C_14  and  N_15 
REMARK    5  A    between atoms: N_15  and  C_16 
REMARK    6  A    between atoms: C_16  and  C_17 
REMARK    7  A    between atoms: C_17  and  C_18 
REMARK    8  A    between atoms: C_18  and  O_19 
ROOT
HETATM    1  C   UNL     1       5.924  27.208  54.523  1.00  0.00     0.081 A 
HETATM    2  C   UNL     1       6.834  27.596  55.510  1.00  0.00     0.043 A 
HETATM    3  C   UNL     1       6.588  28.762  56.241  1.00  0.00     0.043 A 
HETATM    4  C   UNL     1       5.434  29.531  56.009  1.00  0.00     0.046 A 
HETATM    5  N   UNL     1       5.237  30.719  56.721  1.00  0.00    -0.364 N 
HETATM    6  C   UNL     1       6.119  31.108  57.698  1.00  0.00     0.109 A 
HETATM    7  C   UNL     1       7.247  30.460  58.033  1.00  0.00     0.098 A 
HETATM    8  C   UNL     1       7.552  29.208  57.284  1.00  0.00     0.201 A 
HETATM    9  O   UNL     1       8.566  28.552  57.506  1.00  0.00    -0.286 OA
HETATM   10  C   UNL     1       4.533  29.125  55.019  1.00  0.00     0.032 A 
HETATM   11  C   UNL     1       4.768  27.958  54.284  1.00  0.00     0.027 A 
HETATM   12  H   UNL     1       4.349  31.205  56.649  1.00  0.00     0.165 HD
ENDROOT
BRANCH   1  13
HETATM   13  S   UNL     1       6.220  25.712  53.604  1.00  0.00     0.263 S 
HETATM   14  O   UNL     1       6.339  26.066  52.206  1.00  0.00    -0.200 OA
HETATM   15  O   UNL     1       5.247  24.738  54.051  1.00  0.00    -0.200 OA
BRANCH  13  16
HETATM   16  N   UNL     1       7.714  25.196  54.200  1.00  0.00    -0.281 N 
HETATM   17  H   UNL     1       8.494  25.709  53.793  1.00  0.00     0.179 HD
BRANCH  16  18
HETATM   18  C   UNL     1       7.903  23.817  54.487  1.00  0.00     0.043 A 
HETATM   19  C   UNL     1       7.982  22.896  53.441  1.00  0.00     0.037 A 
HETATM   20  C   UNL     1       8.128  21.531  53.718  1.00  0.00    -0.059 A 
HETATM   21  C   UNL     1       8.223  20.524  52.610  1.00  0.00     0.048 C 
HETATM   22  C   UNL     1       8.212  21.108  55.052  1.00  0.00     0.013 A 
HETATM   23  C   UNL     1       8.131  22.028  56.106  1.00  0.00    -0.059 A 
HETATM   24  C   UNL     1       7.968  23.386  55.812  1.00  0.00     0.037 A 
HETATM   25  C   UNL     1       8.249  21.557  57.526  1.00  0.00     0.048 C 
ENDBRANCH  16  18
ENDBRANCH  13  16
ENDBRANCH   1  13
BRANCH   7  26
HETATM   26  C   UNL     1       8.107  31.039  59.105  1.00  0.00     0.257 C 
HETATM   27  N   UNL     1       8.271  30.253  60.217  1.00  0.00    -0.357 N 
HETATM   28  H   UNL     1       7.808  29.343  60.241  1.00  0.00     0.162 HD
HETATM   29  O   UNL     1       8.634  32.143  58.982  1.00  0.00    -0.267 OA
BRANCH  27  30
HETATM   30  C   UNL     1       9.110  30.639  61.329  1.00  0.00     0.125 C 
BRANCH  30  31
HETATM   31  C   UNL     1       8.313  30.875  62.607  1.00  0.00     0.046 C 
BRANCH  31  32
HETATM   32  C   UNL     1       7.544  32.189  62.534  1.00  0.00     0.168 C 
BRANCH  32  33
HETATM   33  O   UNL     1       6.219  31.920  62.080  1.00  0.00    -0.396 OA
HETATM   34  C   UNL     1       5.769  32.908  61.162  1.00  0.00     0.201 C 
ENDBRANCH  32  33
ENDBRANCH  31  32
ENDBRANCH  30  31
ENDBRANCH  27  30
ENDBRANCH   7  26
TORSDOF 8
ENDMDL
MODEL 4
REMARK VINA RESULT:      -9.0      0.655      1.760
REMARK  8 active torsions:
REMARK  status: ('A' for Active; 'I' for Inactive)
REMARK    1  A    between atoms: C_4  and  N_5 
REMARK    2  A    between atoms: N_5  and  S_6 
REMARK    3  A    between atoms: S_6  and  C_7 
REMARK    4  A    between atoms: C_13  and  C_14 
REMARK       I    between atoms: C_14  and  N_15 
REMARK    5  A    between atoms: N_15  and  C_16 
REMARK    6  A    between atoms: C_16  and  C_17 
REMARK    7  A    between atoms: C_17  and  C_18 
REMARK    8  A    between atoms: C_18  and  O_19 
ROOT
HETATM    1  C   UNL     1       6.518  28.067  54.744  1.00  0.00     0.081 A 
HETATM    2  C   UNL     1       6.593  28.769  55.950  1.00  0.00     0.043 A 
HETATM    3  C   UNL     1       7.821  29.307  56.348  1.00  0.00     0.043 A 
HETATM    4  C   UNL     1       8.967  29.166  55.546  1.00  0.00     0.046 A 
HETATM    5  N   UNL     1      10.192  29.672  55.990  1.00  0.00    -0.364 N 
HETATM    6  C   UNL     1      10.279  30.370  57.169  1.00  0.00     0.109 A 
HETATM    7  C   UNL     1       9.264  30.592  58.020  1.00  0.00     0.098 A 
HETATM    8  C   UNL     1       7.932  30.042  57.638  1.00  0.00     0.201 A 
HETATM    9  O   UNL     1       6.945  30.179  58.356  1.00  0.00    -0.286 OA
HETATM   10  C   UNL     1       8.871  28.463  54.340  1.00  0.00     0.032 A 
HETATM   11  C   UNL     1       7.647  27.924  53.930  1.00  0.00     0.027 A 
HETATM   12  H   UNL     1      10.987  29.686  55.360  1.00  0.00     0.165 HD
ENDROOT
BRANCH   1  13
HETATM   13  S   UNL     1       4.953  27.399  54.221  1.00  0.00     0.263 S 
HETATM   14  O   UNL     1       5.026  27.161  52.796  1.00  0.00    -0.200 OA
HETATM   15  O   UNL     1       3.920  28.240  54.789  1.00  0.00    -0.200 OA
BRANCH  13  16
HETATM   16  N   UNL     1       4.876  25.930  55.050  1.00  0.00    -0.281 N 
HETATM   17  H   UNL     1       4.287  25.981  55.880  1.00  0.00     0.179 HD
BRANCH  16  18
HETATM   18  C   UNL     1       6.035  25.109  55.108  1.00  0.00     0.043 A 
HETATM   19  C   UNL     1       6.382  24.321  54.010  1.00  0.00     0.037 A 
HETATM   20  C   UNL     1       7.499  23.479  54.075  1.00  0.00    -0.059 A 
HETATM   21  C   UNL     1       7.895  22.628  52.904  1.00  0.00     0.048 C 
HETATM   22  C   UNL     1       8.271  23.456  55.245  1.00  0.00     0.013 A 
HETATM   23  C   UNL     1       7.927  24.243  56.351  1.00  0.00    -0.059 A 
HETATM   24  C   UNL     1       6.797  25.066  56.275  1.00  0.00     0.037 A 
HETATM   25  C   UNL     1       8.781  24.222  57.585  1.00  0.00     0.048 C 
ENDBRANCH  16  18
ENDBRANCH  13  16
ENDBRANCH   1  13
BRANCH   7  26
HETATM   26  C   UNL     1       9.541  31.351  59.274  1.00  0.00     0.257 C 
HETATM   27  N   UNL     1       8.929  30.867  60.402  1.00  0.00    -0.357 N 
HETATM   28  H   UNL     1       8.339  30.037  60.317  1.00  0.00     0.162 HD
HETATM   29  O   UNL     1      10.276  32.335  59.281  1.00  0.00    -0.267 OA
BRANCH  27  30
HETATM   30  C   UNL     1       9.126  31.452  61.710  1.00  0.00     0.125 C 
BRANCH  30  31
HETATM   31  C   UNL     1       7.825  31.583  62.493  1.00  0.00     0.046 C 
BRANCH  31  32
HETATM   32  C   UNL     1       7.964  32.606  63.613  1.00  0.00     0.168 C 
BRANCH  32  33
HETATM   33  O   UNL     1       7.056  33.679  63.369  1.00  0.00    -0.396 OA
HETATM   34  C   UNL     1       6.300  34.001  64.529  1.00  0.00     0.201 C 
ENDBRANCH  32  33
ENDBRANCH  31  32
ENDBRANCH  30  31
ENDBRANCH  27  30
ENDBRANCH   7  26
TORSDOF 8
ENDMDL
MODEL 5
REMARK VINA RESULT:      -8.7      2.186      3.868
REMARK  8 active torsions:
REMARK  status: ('A' for Active; 'I' for Inactive)
REMARK    1  A    between atoms: C_4  and  N_5 
REMARK    2  A    between atoms: N_5  and  S_6 
REMARK    3  A    between atoms: S_6  and  C_7 
REMARK    4  A    between atoms: C_13  and  C_14 
REMARK       I    between atoms: C_14  and  N_15 
REMARK    5  A    between atoms: N_15  and  C_16 
REMARK    6  A    between atoms: C_16  and  C_17 
REMARK    7  A    between atoms: C_17  and  C_18 
REMARK    8  A    between atoms: C_18  and  O_19 
ROOT
HETATM    1  C   UNL     1       5.739  27.310  53.415  1.00  0.00     0.081 A 
HETATM    2  C   UNL     1       6.402  27.997  54.435  1.00  0.00     0.043 A 
HETATM    3  C   UNL     1       5.717  28.988  55.144  1.00  0.00     0.043 A 
HETATM    4  C   UNL     1       4.373  29.285  54.857  1.00  0.00     0.046 A 
HETATM    5  N   UNL     1       3.726  30.313  55.549  1.00  0.00    -0.364 N 
HETATM    6  C   UNL     1       4.363  30.992  56.558  1.00  0.00     0.109 A 
HETATM    7  C   UNL     1       5.635  30.799  56.945  1.00  0.00     0.098 A 
HETATM    8  C   UNL     1       6.407  29.749  56.221  1.00  0.00     0.201 A 
HETATM    9  O   UNL     1       7.581  29.507  56.491  1.00  0.00    -0.286 OA
HETATM   10  C   UNL     1       3.724  28.583  53.835  1.00  0.00     0.032 A 
HETATM   11  C   UNL     1       4.399  27.587  53.122  1.00  0.00     0.027 A 
HETATM   12  H   UNL     1       2.726  30.442  55.436  1.00  0.00     0.165 HD
ENDROOT
BRANCH   1  13
HETATM   13  S   UNL     1       6.599  26.031  52.523  1.00  0.00     0.263 S 
HETATM   14  O   UNL     1       8.006  26.139  52.840  1.00  0.00    -0.200 OA
HETATM   15  O   UNL     1       6.132  26.079  51.154  1.00  0.00    -0.200 OA
BRANCH  13  16
HETATM   16  N   UNL     1       5.962  24.616  53.190  1.00  0.00    -0.281 N 
HETATM   17  H   UNL     1       5.047  24.763  53.614  1.00  0.00     0.179 HD
BRANCH  16  18
HETATM   18  C   UNL     1       6.841  23.690  53.813  1.00  0.00     0.043 A 
HETATM   19  C   UNL     1       7.332  22.604  53.087  1.00  0.00     0.037 A 
HETATM   20  C   UNL     1       8.167  21.666  53.707  1.00  0.00    -0.059 A 
HETATM   21  C   UNL     1       8.712  20.494  52.944  1.00  0.00     0.048 C 
HETATM   22  C   UNL     1       8.517  21.844  55.053  1.00  0.00     0.013 A 
HETATM   23  C   UNL     1       8.025  22.931  55.787  1.00  0.00    -0.059 A 
HETATM   24  C   UNL     1       7.179  23.850  55.157  1.00  0.00     0.037 A 
HETATM   25  C   UNL     1       8.432  23.118  57.219  1.00  0.00     0.048 C 
ENDBRANCH  16  18
ENDBRANCH  13  16
ENDBRANCH   1  13
BRANCH   7  26
HETATM   26  C   UNL     1       6.179  31.645  58.046  1.00  0.00     0.257 C 
HETATM   27  N   UNL     1       6.962  30.989  58.961  1.00  0.00    -0.357 N 
HETATM   28  H   UNL     1       7.121  29.988  58.835  1.00  0.00     0.162 HD
HETATM   29  O   UNL     1       5.940  32.849  58.110  1.00  0.00    -0.267 OA
BRANCH  27  30
HETATM   30  C   UNL     1       7.607  31.665  60.064  1.00  0.00     0.125 C 
BRANCH  30  31
HETATM   31  C   UNL     1       9.117  31.456  60.074  1.00  0.00     0.046 C 
BRANCH  31  32
HETATM   32  C   UNL     1       9.675  31.453  58.656  1.00  0.00     0.168 C 
BRANCH  32  33
HETATM   33  O   UNL     1      10.050  30.120  58.314  1.00  0.00    -0.396 OA
HETATM   34  C   UNL     1      10.991  30.097  57.248  1.00  0.00     0.201 C 
ENDBRANCH  32  33
ENDBRANCH  31  32
ENDBRANCH  30  31
ENDBRANCH  27  30
ENDBRANCH   7  26
TORSDOF 8
ENDMDL
MODEL 6
REMARK VINA RESULT:      -8.5      2.379      9.261
REMARK  8 active torsions:
REMARK  status: ('A' for Active; 'I' for Inactive)
REMARK    1  A    between atoms: C_4  and  N_5 
REMARK    2  A    between atoms: N_5  and  S_6 
REMARK    3  A    between atoms: S_6  and  C_7 
REMARK    4  A    between atoms: C_13  and  C_14 
REMARK       I    between atoms: C_14  and  N_15 
REMARK    5  A    between atoms: N_15  and  C_16 
REMARK    6  A    between atoms: C_16  and  C_17 
REMARK    7  A    between atoms: C_17  and  C_18 
REMARK    8  A    between atoms: C_18  and  O_19 
ROOT
HETATM    1  C   UNL     1       9.074  30.489  59.094  1.00  0.00     0.081 A 
HETATM    2  C   UNL     1       7.968  29.779  58.618  1.00  0.00     0.043 A 
HETATM    3  C   UNL     1       7.973  29.320  57.298  1.00  0.00     0.043 A 
HETATM    4  C   UNL     1       9.077  29.547  56.457  1.00  0.00     0.046 A 
HETATM    5  N   UNL     1       9.035  29.119  55.126  1.00  0.00    -0.364 N 
HETATM    6  C   UNL     1       7.959  28.415  54.647  1.00  0.00     0.109 A 
HETATM    7  C   UNL     1       6.850  28.116  55.344  1.00  0.00     0.098 A 
HETATM    8  C   UNL     1       6.799  28.580  56.760  1.00  0.00     0.201 A 
HETATM    9  O   UNL     1       5.823  28.368  57.475  1.00  0.00    -0.286 OA
HETATM   10  C   UNL     1      10.176  30.256  56.953  1.00  0.00     0.032 A 
HETATM   11  C   UNL     1      10.184  30.716  58.274  1.00  0.00     0.027 A 
HETATM   12  H   UNL     1       9.874  29.166  54.558  1.00  0.00     0.165 HD
ENDROOT
BRANCH   1  13
HETATM   13  S   UNL     1       9.084  31.056  60.782  1.00  0.00     0.263 S 
HETATM   14  O   UNL     1       9.668  32.380  60.802  1.00  0.00    -0.200 OA
HETATM   15  O   UNL     1       9.628  29.984  61.589  1.00  0.00    -0.200 OA
BRANCH  13  16
HETATM   16  N   UNL     1       7.440  31.142  61.158  1.00  0.00    -0.281 N 
HETATM   17  H   UNL     1       6.850  30.768  60.416  1.00  0.00     0.179 HD
BRANCH  16  18
HETATM   18  C   UNL     1       6.957  32.262  61.889  1.00  0.00     0.043 A 
HETATM   19  C   UNL     1       7.311  32.418  63.231  1.00  0.00     0.037 A 
HETATM   20  C   UNL     1       6.806  33.497  63.967  1.00  0.00    -0.059 A 
HETATM   21  C   UNL     1       7.178  33.690  65.408  1.00  0.00     0.048 C 
HETATM   22  C   UNL     1       5.962  34.422  63.337  1.00  0.00     0.013 A 
HETATM   23  C   UNL     1       5.602  34.268  61.992  1.00  0.00    -0.059 A 
HETATM   24  C   UNL     1       6.102  33.176  61.275  1.00  0.00     0.037 A 
HETATM   25  C   UNL     1       4.717  35.283  61.329  1.00  0.00     0.048 C 
ENDBRANCH  16  18
ENDBRANCH  13  16
ENDBRANCH   1  13
BRANCH   7  26
HETATM   26  C   UNL     1       5.761  27.362  54.658  1.00  0.00     0.257 C 
HETATM   27  N   UNL     1       6.056  26.062  54.338  1.00  0.00    -0.357 N 
HETATM   28  H   UNL     1       6.978  25.698  54.585  1.00  0.00     0.162 HD
HETATM   29  O   UNL     1       4.676  27.883  54.411  1.00  0.00    -0.267 OA
BRANCH  27  30
HETATM   30  C   UNL     1       5.100  25.175  53.713  1.00  0.00     0.125 C 
BRANCH  30  31
HETATM   31  C   UNL     1       5.658  24.499  52.467  1.00  0.00     0.046 C 
BRANCH  31  32
HETATM   32  C   UNL     1       6.866  25.257  51.930  1.00  0.00     0.168 C 
BRANCH  32  33
HETATM   33  O   UNL     1       8.050  24.676  52.471  1.00  0.00    -0.396 OA
HETATM   34  C   UNL     1       7.875  23.293  52.750  1.00  0.00     0.201 C 
ENDBRANCH  32  33
ENDBRANCH  31  32
ENDBRANCH  30  31
ENDBRANCH  27  30
ENDBRANCH   7  26
TORSDOF 8
ENDMDL
MODEL 7
REMARK VINA RESULT:      -8.5      2.898      9.628
REMARK  8 active torsions:
REMARK  status: ('A' for Active; 'I' for Inactive)
REMARK    1  A    between atoms: C_4  and  N_5 
REMARK    2  A    between atoms: N_5  and  S_6 
REMARK    3  A    between atoms: S_6  and  C_7 
REMARK    4  A    between atoms: C_13  and  C_14 
REMARK       I    between atoms: C_14  and  N_15 
REMARK    5  A    between atoms: N_15  and  C_16 
REMARK    6  A    between atoms: C_16  and  C_17 
REMARK    7  A    between atoms: C_17  and  C_18 
REMARK    8  A    between atoms: C_18  and  O_19 
ROOT
HETATM    1  C   UNL     1       7.693  30.724  59.111  1.00  0.00     0.081 A 
HETATM    2  C   UNL     1       8.049  29.498  58.542  1.00  0.00     0.043 A 
HETATM    3  C   UNL     1       7.465  29.117  57.330  1.00  0.00     0.043 A 
HETATM    4  C   UNL     1       6.547  29.956  56.674  1.00  0.00     0.046 A 
HETATM    5  N   UNL     1       5.942  29.529  55.487  1.00  0.00    -0.364 N 
HETATM    6  C   UNL     1       6.286  28.331  54.913  1.00  0.00     0.109 A 
HETATM    7  C   UNL     1       7.158  27.445  55.422  1.00  0.00     0.098 A 
HETATM    8  C   UNL     1       7.811  27.808  56.712  1.00  0.00     0.201 A 
HETATM    9  O   UNL     1       8.611  27.058  57.266  1.00  0.00    -0.286 OA
HETATM   10  C   UNL     1       6.207  31.181  57.258  1.00  0.00     0.032 A 
HETATM   11  C   UNL     1       6.787  31.574  58.468  1.00  0.00     0.027 A 
HETATM   12  H   UNL     1       5.381  30.181  54.948  1.00  0.00     0.165 HD
ENDROOT
BRANCH   1  13
HETATM   13  S   UNL     1       8.450  31.225  60.643  1.00  0.00     0.263 S 
HETATM   14  O   UNL     1       8.909  32.588  60.487  1.00  0.00    -0.200 OA
HETATM   15  O   UNL     1       9.359  30.168  61.035  1.00  0.00    -0.200 OA
BRANCH  13  16
HETATM   16  N   UNL     1       7.162  31.168  61.733  1.00  0.00    -0.281 N 
HETATM   17  H   UNL     1       6.425  30.532  61.433  1.00  0.00     0.179 HD
BRANCH  16  18
HETATM   18  C   UNL     1       6.777  32.358  62.409  1.00  0.00     0.043 A 
HETATM   19  C   UNL     1       6.061  33.343  61.726  1.00  0.00     0.037 A 
HETATM   20  C   UNL     1       5.714  34.534  62.374  1.00  0.00    -0.059 A 
HETATM   21  C   UNL     1       4.938  35.604  61.663  1.00  0.00     0.048 C 
HETATM   22  C   UNL     1       6.077  34.714  63.717  1.00  0.00     0.013 A 
HETATM   23  C   UNL     1       6.798  33.731  64.406  1.00  0.00    -0.059 A 
HETATM   24  C   UNL     1       7.151  32.553  63.739  1.00  0.00     0.037 A 
HETATM   25  C   UNL     1       7.155  33.932  65.850  1.00  0.00     0.048 C 
ENDBRANCH  16  18
ENDBRANCH  13  16
ENDBRANCH   1  13
BRANCH   7  26
HETATM   26  C   UNL     1       7.397  26.175  54.677  1.00  0.00     0.257 C 
HETATM   27  N   UNL     1       7.206  25.024  55.398  1.00  0.00    -0.357 N 
HETATM   28  H   UNL     1       6.917  25.106  56.375  1.00  0.00     0.162 HD
HETATM   29  O   UNL     1       7.733  26.176  53.495  1.00  0.00    -0.267 OA
BRANCH  27  30
HETATM   30  C   UNL     1       7.347  23.707  54.820  1.00  0.00     0.125 C 
BRANCH  30  31
HETATM   31  C   UNL     1       8.694  23.070  55.142  1.00  0.00     0.046 C 
BRANCH  31  32
HETATM   32  C   UNL     1       8.861  21.747  54.405  1.00  0.00     0.168 C 
BRANCH  32  33
HETATM   33  O   UNL     1       7.818  20.862  54.809  1.00  0.00    -0.396 OA
HETATM   34  C   UNL     1       8.057  20.325  56.103  1.00  0.00     0.201 C 
ENDBRANCH  32  33
ENDBRANCH  31  32
ENDBRANCH  30  31
ENDBRANCH  27  30
ENDBRANCH   7  26
TORSDOF 8
ENDMDL
MODEL 8
REMARK VINA RESULT:      -8.2      2.975      9.315
REMARK  8 active torsions:
REMARK  status: ('A' for Active; 'I' for Inactive)
REMARK    1  A    between atoms: C_4  and  N_5 
REMARK    2  A    between atoms: N_5  and  S_6 
REMARK    3  A    between atoms: S_6  and  C_7 
REMARK    4  A    between atoms: C_13  and  C_14 
REMARK       I    between atoms: C_14  and  N_15 
REMARK    5  A    between atoms: N_15  and  C_16 
REMARK    6  A    between atoms: C_16  and  C_17 
REMARK    7  A    between atoms: C_17  and  C_18 
REMARK    8  A    between atoms: C_18  and  O_19 
ROOT
HETATM    1  C   UNL     1       9.042  30.456  58.949  1.00  0.00     0.081 A 
HETATM    2  C   UNL     1       7.872  29.867  58.463  1.00  0.00     0.043 A 
HETATM    3  C   UNL     1       7.854  29.365  57.158  1.00  0.00     0.043 A 
HETATM    4  C   UNL     1       8.999  29.430  56.343  1.00  0.00     0.046 A 
HETATM    5  N   UNL     1       8.940  28.964  55.026  1.00  0.00    -0.364 N 
HETATM    6  C   UNL     1       7.800  28.377  54.537  1.00  0.00     0.109 A 
HETATM    7  C   UNL     1       6.646  28.236  55.211  1.00  0.00     0.098 A 
HETATM    8  C   UNL     1       6.615  28.751  56.609  1.00  0.00     0.201 A 
HETATM    9  O   UNL     1       5.603  28.682  57.302  1.00  0.00    -0.286 OA
HETATM   10  C   UNL     1      10.162  30.020  56.849  1.00  0.00     0.032 A 
HETATM   11  C   UNL     1      10.191  30.522  58.154  1.00  0.00     0.027 A 
HETATM   12  H   UNL     1       9.793  28.892  54.482  1.00  0.00     0.165 HD
ENDROOT
BRANCH   1  13
HETATM   13  S   UNL     1       9.077  31.076  60.618  1.00  0.00     0.263 S 
HETATM   14  O   UNL     1       9.598  32.425  60.580  1.00  0.00    -0.200 OA
HETATM   15  O   UNL     1       9.695  30.056  61.438  1.00  0.00    -0.200 OA
BRANCH  13  16
HETATM   16  N   UNL     1       7.443  31.099  61.043  1.00  0.00    -0.281 N 
HETATM   17  H   UNL     1       6.846  30.698  60.321  1.00  0.00     0.179 HD
BRANCH  16  18
HETATM   18  C   UNL     1       6.938  32.202  61.784  1.00  0.00     0.043 A 
HETATM   19  C   UNL     1       6.065  33.105  61.174  1.00  0.00     0.037 A 
HETATM   20  C   UNL     1       5.596  34.216  61.886  1.00  0.00    -0.059 A 
HETATM   21  C   UNL     1       4.652  35.197  61.254  1.00  0.00     0.048 C 
HETATM   22  C   UNL     1       5.997  34.395  63.218  1.00  0.00     0.013 A 
HETATM   23  C   UNL     1       6.874  33.493  63.834  1.00  0.00    -0.059 A 
HETATM   24  C   UNL     1       7.347  32.398  63.103  1.00  0.00     0.037 A 
HETATM   25  C   UNL     1       7.271  33.689  65.268  1.00  0.00     0.048 C 
ENDBRANCH  16  18
ENDBRANCH  13  16
ENDBRANCH   1  13
BRANCH   7  26
HETATM   26  C   UNL     1       5.492  27.594  54.517  1.00  0.00     0.257 C 
HETATM   27  N   UNL     1       4.684  28.446  53.807  1.00  0.00    -0.357 N 
HETATM   28  H   UNL     1       4.918  29.440  53.796  1.00  0.00     0.162 HD
HETATM   29  O   UNL     1       5.297  26.383  54.578  1.00  0.00    -0.267 OA
BRANCH  27  30
HETATM   30  C   UNL     1       3.550  27.986  53.036  1.00  0.00     0.125 C 
BRANCH  30  31
HETATM   31  C   UNL     1       3.107  29.001  51.989  1.00  0.00     0.046 C 
BRANCH  31  32
HETATM   32  C   UNL     1       3.790  28.738  50.653  1.00  0.00     0.168 C 
BRANCH  32  33
HETATM   33  O   UNL     1       4.642  27.603  50.788  1.00  0.00    -0.396 OA
HETATM   34  C   UNL     1       4.581  26.761  49.644  1.00  0.00     0.201 C 
ENDBRANCH  32  33
ENDBRANCH  31  32
ENDBRANCH  30  31
ENDBRANCH  27  30
ENDBRANCH   7  26
TORSDOF 8
ENDMDL
MODEL 9
REMARK VINA RESULT:      -8.2      2.698      3.350
REMARK  8 active torsions:
REMARK  status: ('A' for Active; 'I' for Inactive)
REMARK    1  A    between atoms: C_4  and  N_5 
REMARK    2  A    between atoms: N_5  and  S_6 
REMARK    3  A    between atoms: S_6  and  C_7 
REMARK    4  A    between atoms: C_13  and  C_14 
REMARK       I    between atoms: C_14  and  N_15 
REMARK    5  A    between atoms: N_15  and  C_16 
REMARK    6  A    between atoms: C_16  and  C_17 
REMARK    7  A    between atoms: C_17  and  C_18 
REMARK    8  A    between atoms: C_18  and  O_19 
ROOT
HETATM    1  C   UNL     1       6.577  27.547  54.279  1.00  0.00     0.081 A 
HETATM    2  C   UNL     1       5.524  28.179  54.946  1.00  0.00     0.043 A 
HETATM    3  C   UNL     1       5.814  29.138  55.920  1.00  0.00     0.043 A 
HETATM    4  C   UNL     1       7.144  29.486  56.220  1.00  0.00     0.046 A 
HETATM    5  N   UNL     1       7.408  30.414  57.232  1.00  0.00    -0.364 N 
HETATM    6  C   UNL     1       6.384  31.047  57.891  1.00  0.00     0.109 A 
HETATM    7  C   UNL     1       5.074  30.823  57.693  1.00  0.00     0.098 A 
HETATM    8  C   UNL     1       4.712  29.811  56.660  1.00  0.00     0.201 A 
HETATM    9  O   UNL     1       3.542  29.525  56.416  1.00  0.00    -0.286 OA
HETATM   10  C   UNL     1       8.184  28.845  55.538  1.00  0.00     0.032 A 
HETATM   11  C   UNL     1       7.905  27.887  54.559  1.00  0.00     0.027 A 
HETATM   12  H   UNL     1       8.353  30.760  57.360  1.00  0.00     0.165 HD
ENDROOT
BRANCH   1  13
HETATM   13  S   UNL     1       6.212  26.341  53.021  1.00  0.00     0.263 S 
HETATM   14  O   UNL     1       5.921  27.051  51.796  1.00  0.00    -0.200 OA
HETATM   15  O   UNL     1       5.264  25.406  53.590  1.00  0.00    -0.200 OA
BRANCH  13  16
HETATM   16  N   UNL     1       7.671  25.503  52.873  1.00  0.00    -0.281 N 
HETATM   17  H   UNL     1       8.070  25.577  51.938  1.00  0.00     0.179 HD
BRANCH  16  18
HETATM   18  C   UNL     1       7.835  24.275  53.569  1.00  0.00     0.043 A 
HETATM   19  C   UNL     1       8.004  24.281  54.955  1.00  0.00     0.037 A 
HETATM   20  C   UNL     1       8.207  23.078  55.642  1.00  0.00    -0.059 A 
HETATM   21  C   UNL     1       8.383  23.059  57.132  1.00  0.00     0.048 C 
HETATM   22  C   UNL     1       8.217  21.873  54.925  1.00  0.00     0.013 A 
HETATM   23  C   UNL     1       8.051  21.861  53.534  1.00  0.00    -0.059 A 
HETATM   24  C   UNL     1       7.866  23.074  52.861  1.00  0.00     0.037 A 
HETATM   25  C   UNL     1       8.040  20.559  52.788  1.00  0.00     0.048 C 
ENDBRANCH  16  18
ENDBRANCH  13  16
ENDBRANCH   1  13
BRANCH   7  26
HETATM   26  C   UNL     1       4.091  31.584  58.517  1.00  0.00     0.257 C 
HETATM   27  N   UNL     1       4.249  31.472  59.875  1.00  0.00    -0.357 N 
HETATM   28  H   UNL     1       5.012  30.892  60.229  1.00  0.00     0.162 HD
HETATM   29  O   UNL     1       3.209  32.267  58.001  1.00  0.00    -0.267 OA
BRANCH  27  30
HETATM   30  C   UNL     1       3.415  32.180  60.820  1.00  0.00     0.125 C 
BRANCH  30  31
HETATM   31  C   UNL     1       4.212  33.133  61.703  1.00  0.00     0.046 C 
BRANCH  31  32
HETATM   32  C   UNL     1       3.374  33.616  62.879  1.00  0.00     0.168 C 
BRANCH  32  33
HETATM   33  O   UNL     1       4.052  33.290  64.091  1.00  0.00    -0.396 OA
HETATM   34  C   UNL     1       5.377  32.836  63.845  1.00  0.00     0.201 C 
ENDBRANCH  32  33
ENDBRANCH  31  32
ENDBRANCH  30  31
ENDBRANCH  27  30
ENDBRANCH   7  26
TORSDOF 8
ENDMDL
MODEL 10
REMARK VINA RESULT:      -8.1      2.578      3.889
REMARK  8 active torsions:
REMARK  status: ('A' for Active; 'I' for Inactive)
REMARK    1  A    between atoms: C_4  and  N_5 
REMARK    2  A    between atoms: N_5  and  S_6 
REMARK    3  A    between atoms: S_6  and  C_7 
REMARK    4  A    between atoms: C_13  and  C_14 
REMARK       I    between atoms: C_14  and  N_15 
REMARK    5  A    between atoms: N_15  and  C_16 
REMARK    6  A    between atoms: C_16  and  C_17 
REMARK    7  A    between atoms: C_17  and  C_18 
REMARK    8  A    between atoms: C_18  and  O_19 
ROOT
HETATM    1  C   UNL     1       4.675  27.321  52.974  1.00  0.00     0.081 A 
HETATM    2  C   UNL     1       4.993  27.670  54.289  1.00  0.00     0.043 A 
HETATM    3  C   UNL     1       4.536  28.889  54.799  1.00  0.00     0.043 A 
HETATM    4  C   UNL     1       3.749  29.751  54.015  1.00  0.00     0.046 A 
HETATM    5  N   UNL     1       3.346  30.986  54.533  1.00  0.00    -0.364 N 
HETATM    6  C   UNL     1       3.645  31.339  55.825  1.00  0.00     0.109 A 
HETATM    7  C   UNL     1       4.371  30.605  56.684  1.00  0.00     0.098 A 
HETATM    8  C   UNL     1       4.878  29.293  56.189  1.00  0.00     0.201 A 
HETATM    9  O   UNL     1       5.563  28.556  56.894  1.00  0.00    -0.286 OA
HETATM   10  C   UNL     1       3.437  29.382  52.701  1.00  0.00     0.032 A 
HETATM   11  C   UNL     1       3.886  28.164  52.183  1.00  0.00     0.027 A 
HETATM   12  H   UNL     1       2.675  31.549  54.021  1.00  0.00     0.165 HD
ENDROOT
BRANCH   1  13
HETATM   13  S   UNL     1       5.235  25.760  52.327  1.00  0.00     0.263 S 
HETATM   14  O   UNL     1       5.113  25.807  50.886  1.00  0.00    -0.200 OA
HETATM   15  O   UNL     1       4.587  24.721  53.101  1.00  0.00    -0.200 OA
BRANCH  13  16
HETATM   16  N   UNL     1       6.864  25.733  52.770  1.00  0.00    -0.281 N 
HETATM   17  H   UNL     1       7.469  26.128  52.052  1.00  0.00     0.179 HD
BRANCH  16  18
HETATM   18  C   UNL     1       7.356  24.633  53.522  1.00  0.00     0.043 A 
HETATM   19  C   UNL     1       7.687  24.806  54.868  1.00  0.00     0.037 A 
HETATM   20  C   UNL     1       8.211  23.736  55.604  1.00  0.00    -0.059 A 
HETATM   21  C   UNL     1       8.566  23.896  57.053  1.00  0.00     0.048 C 
HETATM   22  C   UNL     1       8.378  22.492  54.979  1.00  0.00     0.013 A 
HETATM   23  C   UNL     1       8.050  22.313  53.629  1.00  0.00    -0.059 A 
HETATM   24  C   UNL     1       7.544  23.397  52.904  1.00  0.00     0.037 A 
HETATM   25  C   UNL     1       8.213  20.967  52.987  1.00  0.00     0.048 C 
ENDBRANCH  16  18
ENDBRANCH  13  16
ENDBRANCH   1  13
BRANCH   7  26
HETATM   26  C   UNL     1       4.625  31.153  58.049  1.00  0.00     0.257 C 
HETATM   27  N   UNL     1       5.931  31.466  58.324  1.00  0.00    -0.357 N 
HETATM   28  H   UNL     1       6.632  31.310  57.597  1.00  0.00     0.162 HD
HETATM   29  O   UNL     1       3.713  31.315  58.856  1.00  0.00    -0.267 OA
BRANCH  27  30
HETATM   30  C   UNL     1       6.346  32.051  59.580  1.00  0.00     0.125 C 
BRANCH  30  31
HETATM   31  C   UNL     1       7.858  32.012  59.770  1.00  0.00     0.046 C 
BRANCH  31  32
HETATM   32  C   UNL     1       8.355  30.577  59.886  1.00  0.00     0.168 C 
BRANCH  32  33
HETATM   33  O   UNL     1       9.488  30.413  59.035  1.00  0.00    -0.396 OA
HETATM   34  C   UNL     1       9.123  29.863  57.776  1.00  0.00     0.201 C 
ENDBRANCH  32  33
ENDBRANCH  31  32
ENDBRANCH  30  31
ENDBRANCH  27  30
ENDBRANCH   7  26
TORSDOF 8
ENDMDL
