MODEL 1
REMARK VINA RESULT:     -10.8      0.000      0.000
REMARK  8 active torsions:
REMARK  status: ('A' for Active; 'I' for Inactive)
REMARK    1  A    between atoms: N_9  and  N_10 
REMARK    2  A    between atoms: C_11  and  C_12 
REMARK    3  A    between atoms: C_14  and  O_15 
REMARK    4  A    between atoms: C_19  and  N_20 
REMARK    5  A    between atoms: C_21  and  C_22 
REMARK       I    between atoms: C_22  and  N_23 
REMARK    6  A    between atoms: N_23  and  C_24 
REMARK    7  A    between atoms: C_24  and  C_25 
REMARK    8  A    between atoms: C_25  and  C_26 
ROOT
HETATM    1  C   UNL     1       8.748  20.208  55.012  1.00  0.00     0.002 A 
HETATM    2  C   UNL     1       8.270  21.356  55.647  1.00  0.00     0.034 A 
HETATM    3  C   UNL     1       7.706  22.406  54.929  1.00  0.00     0.086 A 
HETATM    4  C   UNL     1       7.626  22.305  53.514  1.00  0.00     0.088 A 
HETATM    5  N   UNL     1       7.098  23.271  52.745  1.00  0.00    -0.225 NA
HETATM    6  C   UNL     1       6.622  24.320  53.458  1.00  0.00     0.183 A 
HETATM    7  C   UNL     1       6.678  24.431  54.844  1.00  0.00     0.125 A 
HETATM    8  N   UNL     1       7.259  23.473  55.611  1.00  0.00    -0.242 NA
HETATM    9  N   UNL     1       6.027  25.467  52.964  1.00  0.00    -0.197 N 
HETATM   10  C   UNL     1       5.645  26.264  54.047  1.00  0.00     0.143 A 
HETATM   11  C   UNL     1       6.089  25.660  55.212  1.00  0.00     0.110 A 
HETATM   12  C   UNL     1       8.110  21.158  52.897  1.00  0.00     0.034 A 
HETATM   13  C   UNL     1       8.668  20.109  53.630  1.00  0.00     0.002 A 
ENDROOT
BRANCH  11  14
HETATM   14  C   UNL     1       6.053  26.317  56.500  1.00  0.00     0.257 C 
HETATM   15  N   UNL     1       7.259  26.244  57.171  1.00  0.00    -0.356 N 
HETATM   16  H   UNL     1       7.995  25.694  56.745  1.00  0.00     0.162 HD
HETATM   17  O   UNL     1       5.127  27.038  56.853  1.00  0.00    -0.267 OA
BRANCH  15  18
HETATM   18  C   UNL     1       7.651  27.329  58.052  1.00  0.00     0.127 C 
BRANCH  18  19
HETATM   19  C   UNL     1       8.392  28.451  57.283  1.00  0.00     0.053 C 
BRANCH  19  20
HETATM   20  C   UNL     1       8.734  29.758  57.983  1.00  0.00    -0.082 C 
HETATM   21  C   UNL     1       7.631  30.290  58.880  1.00  0.00     0.034 C 
HETATM   22  C   UNL     1       7.821  31.748  59.308  1.00  0.00     0.005 C 
HETATM   23  C   UNL     1       9.256  32.011  59.739  1.00  0.00     0.004 C 
HETATM   24  C   UNL     1      10.233  31.686  58.611  1.00  0.00     0.027 C 
HETATM   25  C   UNL     1       9.905  30.414  57.881  1.00  0.00    -0.024 C 
ENDBRANCH  19  20
ENDBRANCH  18  19
ENDBRANCH  15  18
ENDBRANCH  11  14
BRANCH  10  26
HETATM   26  N   UNL     1       5.053  27.481  53.888  1.00  0.00    -0.383 N 
HETATM   27  H   UNL     1       5.127  27.976  53.002  1.00  0.00     0.157 HD
HETATM   28  H   UNL     1       4.996  28.115  54.690  1.00  0.00     0.157 HD
ENDBRANCH  10  26
BRANCH   9  29
HETATM   29  N   UNL     1       6.062  25.887  51.659  1.00  0.00    -0.176 NA
HETATM   30  C   UNL     1       4.923  25.792  51.050  1.00  0.00     0.150 C 
BRANCH  30  31
HETATM   31  C   UNL     1       4.678  26.517  49.787  1.00  0.00    -0.014 A 
HETATM   32  C   UNL     1       3.895  25.925  48.790  1.00  0.00     0.049 A 
HETATM   33  C   UNL     1       3.810  26.536  47.545  1.00  0.00     0.066 A 
HETATM   34  C   UNL     1       4.476  27.730  47.291  1.00  0.00     0.036 A 
HETATM   35  C   UNL     1       5.242  28.326  48.294  1.00  0.00     0.004 A 
HETATM   36  C   UNL     1       5.354  27.715  49.545  1.00  0.00     0.013 A 
BRANCH  33  37
HETATM   37  O   UNL     1       3.099  25.974  46.527  1.00  0.00    -0.361 OA
HETATM   38  H   UNL     1       2.668  25.167  46.856  1.00  0.00     0.217 HD
ENDBRANCH  33  37
ENDBRANCH  30  31
ENDBRANCH   9  29
TORSDOF 8
ENDMDL
MODEL 2
REMARK VINA RESULT:     -10.3      2.317      8.658
REMARK  8 active torsions:
REMARK  status: ('A' for Active; 'I' for Inactive)
REMARK    1  A    between atoms: N_9  and  N_10 
REMARK    2  A    between atoms: C_11  and  C_12 
REMARK    3  A    between atoms: C_14  and  O_15 
REMARK    4  A    between atoms: C_19  and  N_20 
REMARK    5  A    between atoms: C_21  and  C_22 
REMARK       I    between atoms: C_22  and  N_23 
REMARK    6  A    between atoms: N_23  and  C_24 
REMARK    7  A    between atoms: C_24  and  C_25 
REMARK    8  A    between atoms: C_25  and  C_26 
ROOT
HETATM    1  C   UNL     1       7.223  30.836  58.334  1.00  0.00     0.002 A 
HETATM    2  C   UNL     1       6.570  30.672  57.110  1.00  0.00     0.034 A 
HETATM    3  C   UNL     1       6.645  29.479  56.398  1.00  0.00     0.086 A 
HETATM    4  C   UNL     1       7.412  28.408  56.929  1.00  0.00     0.088 A 
HETATM    5  N   UNL     1       7.538  27.225  56.308  1.00  0.00    -0.225 NA
HETATM    6  C   UNL     1       6.832  27.151  55.154  1.00  0.00     0.183 A 
HETATM    7  C   UNL     1       6.063  28.182  54.624  1.00  0.00     0.125 A 
HETATM    8  N   UNL     1       5.981  29.393  55.232  1.00  0.00    -0.242 NA
HETATM    9  N   UNL     1       6.757  26.077  54.285  1.00  0.00    -0.197 N 
HETATM   10  C   UNL     1       5.882  26.411  53.248  1.00  0.00     0.143 A 
HETATM   11  C   UNL     1       5.488  27.729  53.416  1.00  0.00     0.110 A 
HETATM   12  C   UNL     1       8.058  28.588  58.146  1.00  0.00     0.034 A 
HETATM   13  C   UNL     1       7.971  29.789  58.853  1.00  0.00     0.002 A 
ENDROOT
BRANCH  11  14
HETATM   14  C   UNL     1       4.755  28.465  52.410  1.00  0.00     0.257 C 
HETATM   15  N   UNL     1       5.571  29.261  51.629  1.00  0.00    -0.356 N 
HETATM   16  H   UNL     1       6.551  29.307  51.880  1.00  0.00     0.162 HD
HETATM   17  O   UNL     1       3.580  28.238  52.145  1.00  0.00    -0.267 OA
BRANCH  15  18
HETATM   18  C   UNL     1       5.216  29.502  50.243  1.00  0.00     0.127 C 
BRANCH  18  19
HETATM   19  C   UNL     1       5.461  28.251  49.363  1.00  0.00     0.053 C 
BRANCH  19  20
HETATM   20  C   UNL     1       4.290  27.548  48.693  1.00  0.00    -0.082 C 
HETATM   21  C   UNL     1       2.985  28.321  48.752  1.00  0.00     0.034 C 
HETATM   22  C   UNL     1       1.749  27.491  48.397  1.00  0.00     0.005 C 
HETATM   23  C   UNL     1       1.998  26.636  47.163  1.00  0.00     0.004 C 
HETATM   24  C   UNL     1       3.187  25.704  47.375  1.00  0.00     0.027 C 
HETATM   25  C   UNL     1       4.351  26.361  48.061  1.00  0.00    -0.024 C 
ENDBRANCH  19  20
ENDBRANCH  18  19
ENDBRANCH  15  18
ENDBRANCH  11  14
BRANCH  10  26
HETATM   26  N   UNL     1       5.617  25.567  52.211  1.00  0.00    -0.383 N 
HETATM   27  H   UNL     1       5.881  25.822  51.262  1.00  0.00     0.157 HD
HETATM   28  H   UNL     1       4.773  24.989  52.244  1.00  0.00     0.157 HD
ENDBRANCH  10  26
BRANCH   9  29
HETATM   29  N   UNL     1       7.599  24.994  54.278  1.00  0.00    -0.176 NA
HETATM   30  C   UNL     1       7.250  24.055  55.097  1.00  0.00     0.150 C 
BRANCH  30  31
HETATM   31  C   UNL     1       7.808  22.694  54.971  1.00  0.00    -0.014 A 
HETATM   32  C   UNL     1       7.788  22.051  53.728  1.00  0.00     0.049 A 
HETATM   33  C   UNL     1       8.158  20.714  53.654  1.00  0.00     0.066 A 
HETATM   34  C   UNL     1       8.561  20.022  54.791  1.00  0.00     0.036 A 
HETATM   35  C   UNL     1       8.595  20.673  56.025  1.00  0.00     0.004 A 
HETATM   36  C   UNL     1       8.209  22.011  56.121  1.00  0.00     0.013 A 
BRANCH  33  37
HETATM   37  O   UNL     1       8.109  20.029  52.476  1.00  0.00    -0.361 OA
HETATM   38  H   UNL     1       7.911  19.097  52.664  1.00  0.00     0.217 HD
ENDBRANCH  33  37
ENDBRANCH  30  31
ENDBRANCH   9  29
TORSDOF 8
ENDMDL
MODEL 3
REMARK VINA RESULT:     -10.3      1.676      2.196
REMARK  8 active torsions:
REMARK  status: ('A' for Active; 'I' for Inactive)
REMARK    1  A    between atoms: N_9  and  N_10 
REMARK    2  A    between atoms: C_11  and  C_12 
REMARK    3  A    between atoms: C_14  and  O_15 
REMARK    4  A    between atoms: C_19  and  N_20 
REMARK    5  A    between atoms: C_21  and  C_22 
REMARK       I    between atoms: C_22  and  N_23 
REMARK    6  A    between atoms: N_23  and  C_24 
REMARK    7  A    between atoms: C_24  and  C_25 
REMARK    8  A    between atoms: C_25  and  C_26 
ROOT
HETATM    1  C   UNL     1       8.420  21.762  56.647  1.00  0.00     0.002 A 
HETATM    2  C   UNL     1       8.377  23.151  56.786  1.00  0.00     0.034 A 
HETATM    3  C   UNL     1       7.909  23.972  55.766  1.00  0.00     0.086 A 
HETATM    4  C   UNL     1       7.473  23.378  54.551  1.00  0.00     0.088 A 
HETATM    5  N   UNL     1       7.008  24.095  53.516  1.00  0.00    -0.225 NA
HETATM    6  C   UNL     1       6.964  25.426  53.767  1.00  0.00     0.183 A 
HETATM    7  C   UNL     1       7.371  26.026  54.954  1.00  0.00     0.125 A 
HETATM    8  N   UNL     1       7.888  25.299  55.977  1.00  0.00    -0.242 NA
HETATM    9  N   UNL     1       6.541  26.427  52.909  1.00  0.00    -0.197 N 
HETATM   10  C   UNL     1       6.616  27.646  53.587  1.00  0.00     0.143 A 
HETATM   11  C   UNL     1       7.178  27.420  54.833  1.00  0.00     0.110 A 
HETATM   12  C   UNL     1       7.526  21.995  54.427  1.00  0.00     0.034 A 
HETATM   13  C   UNL     1       7.993  21.182  55.461  1.00  0.00     0.002 A 
ENDROOT
BRANCH  11  14
HETATM   14  C   UNL     1       7.599  28.489  55.712  1.00  0.00     0.257 C 
HETATM   15  N   UNL     1       7.021  28.409  56.965  1.00  0.00    -0.356 N 
HETATM   16  H   UNL     1       6.330  27.685  57.112  1.00  0.00     0.162 HD
HETATM   17  O   UNL     1       8.524  29.246  55.442  1.00  0.00    -0.267 OA
BRANCH  15  18
HETATM   18  C   UNL     1       7.760  28.884  58.121  1.00  0.00     0.127 C 
BRANCH  18  19
HETATM   19  C   UNL     1       7.456  30.372  58.422  1.00  0.00     0.053 C 
BRANCH  19  20
HETATM   20  C   UNL     1       7.946  31.005  59.716  1.00  0.00    -0.082 C 
HETATM   21  C   UNL     1       6.933  31.916  60.385  1.00  0.00     0.034 C 
HETATM   22  C   UNL     1       7.522  32.812  61.478  1.00  0.00     0.005 C 
HETATM   23  C   UNL     1       8.458  32.027  62.385  1.00  0.00     0.004 C 
HETATM   24  C   UNL     1       9.594  31.398  61.583  1.00  0.00     0.027 C 
HETATM   25  C   UNL     1       9.147  30.789  60.284  1.00  0.00    -0.024 C 
ENDBRANCH  19  20
ENDBRANCH  18  19
ENDBRANCH  15  18
ENDBRANCH  11  14
BRANCH  10  26
HETATM   26  N   UNL     1       6.292  28.833  53.000  1.00  0.00    -0.383 N 
HETATM   27  H   UNL     1       6.682  29.079  52.092  1.00  0.00     0.157 HD
HETATM   28  H   UNL     1       6.122  29.650  53.592  1.00  0.00     0.157 HD
ENDBRANCH  10  26
BRANCH   9  29
HETATM   29  N   UNL     1       6.356  26.294  51.556  1.00  0.00    -0.176 NA
HETATM   30  C   UNL     1       5.113  26.230  51.203  1.00  0.00     0.150 C 
BRANCH  30  31
HETATM   31  C   UNL     1       4.713  26.450  49.799  1.00  0.00    -0.014 A 
HETATM   32  C   UNL     1       4.997  27.674  49.182  1.00  0.00     0.049 A 
HETATM   33  C   UNL     1       4.470  27.934  47.923  1.00  0.00     0.066 A 
HETATM   34  C   UNL     1       3.687  26.989  47.269  1.00  0.00     0.036 A 
HETATM   35  C   UNL     1       3.421  25.763  47.881  1.00  0.00     0.004 A 
HETATM   36  C   UNL     1       3.927  25.493  49.155  1.00  0.00     0.013 A 
BRANCH  33  37
HETATM   37  O   UNL     1       4.677  29.130  47.301  1.00  0.00    -0.361 OA
HETATM   38  H   UNL     1       5.630  29.237  47.141  1.00  0.00     0.217 HD
ENDBRANCH  33  37
ENDBRANCH  30  31
ENDBRANCH   9  29
TORSDOF 8
ENDMDL
MODEL 4
REMARK VINA RESULT:     -10.3      2.004      8.619
REMARK  8 active torsions:
REMARK  status: ('A' for Active; 'I' for Inactive)
REMARK    1  A    between atoms: N_9  and  N_10 
REMARK    2  A    between atoms: C_11  and  C_12 
REMARK    3  A    between atoms: C_14  and  O_15 
REMARK    4  A    between atoms: C_19  and  N_20 
REMARK    5  A    between atoms: C_21  and  C_22 
REMARK       I    between atoms: C_22  and  N_23 
REMARK    6  A    between atoms: N_23  and  C_24 
REMARK    7  A    between atoms: C_24  and  C_25 
REMARK    8  A    between atoms: C_25  and  C_26 
ROOT
HETATM    1  C   UNL     1       8.340  21.139  53.880  1.00  0.00     0.002 A 
HETATM    2  C   UNL     1       7.616  22.144  53.235  1.00  0.00     0.034 A 
HETATM    3  C   UNL     1       7.550  23.437  53.742  1.00  0.00     0.086 A 
HETATM    4  C   UNL     1       8.233  23.736  54.952  1.00  0.00     0.088 A 
HETATM    5  N   UNL     1       8.222  24.956  55.512  1.00  0.00    -0.225 NA
HETATM    6  C   UNL     1       7.530  25.868  54.787  1.00  0.00     0.183 A 
HETATM    7  C   UNL     1       6.868  25.600  53.594  1.00  0.00     0.125 A 
HETATM    8  N   UNL     1       6.841  24.352  53.061  1.00  0.00    -0.242 NA
HETATM    9  N   UNL     1       7.330  27.203  55.093  1.00  0.00    -0.197 N 
HETATM   10  C   UNL     1       6.602  27.787  54.053  1.00  0.00     0.143 A 
HETATM   11  C   UNL     1       6.263  26.796  53.146  1.00  0.00     0.110 A 
HETATM   12  C   UNL     1       8.947  22.725  55.584  1.00  0.00     0.034 A 
HETATM   13  C   UNL     1       9.008  21.432  55.060  1.00  0.00     0.002 A 
ENDROOT
BRANCH  11  14
HETATM   14  C   UNL     1       5.331  27.008  52.062  1.00  0.00     0.257 C 
HETATM   15  N   UNL     1       5.709  26.366  50.898  1.00  0.00    -0.356 N 
HETATM   16  H   UNL     1       6.605  25.895  50.898  1.00  0.00     0.162 HD
HETATM   17  O   UNL     1       4.227  27.516  52.224  1.00  0.00    -0.267 OA
BRANCH  15  18
HETATM   18  C   UNL     1       4.688  25.876  49.990  1.00  0.00     0.127 C 
BRANCH  18  19
HETATM   19  C   UNL     1       4.623  26.721  48.693  1.00  0.00     0.053 C 
BRANCH  19  20
HETATM   20  C   UNL     1       3.284  27.228  48.179  1.00  0.00    -0.082 C 
HETATM   21  C   UNL     1       2.907  28.608  48.686  1.00  0.00     0.034 C 
HETATM   22  C   UNL     1       1.437  28.978  48.462  1.00  0.00     0.005 C 
HETATM   23  C   UNL     1       0.986  28.604  47.058  1.00  0.00     0.004 C 
HETATM   24  C   UNL     1       1.175  27.111  46.804  1.00  0.00     0.027 C 
HETATM   25  C   UNL     1       2.477  26.572  47.325  1.00  0.00    -0.024 C 
ENDBRANCH  19  20
ENDBRANCH  18  19
ENDBRANCH  15  18
ENDBRANCH  11  14
BRANCH  10  26
HETATM   26  N   UNL     1       6.218  29.095  54.070  1.00  0.00    -0.383 N 
HETATM   27  H   UNL     1       6.498  29.701  54.839  1.00  0.00     0.157 HD
HETATM   28  H   UNL     1       5.310  29.352  53.675  1.00  0.00     0.157 HD
ENDBRANCH  10  26
BRANCH   9  29
HETATM   29  N   UNL     1       7.549  27.784  56.316  1.00  0.00    -0.176 NA
HETATM   30  C   UNL     1       8.689  28.390  56.410  1.00  0.00     0.150 C 
BRANCH  30  31
HETATM   31  C   UNL     1       8.943  29.360  57.493  1.00  0.00    -0.014 A 
HETATM   32  C   UNL     1       7.994  29.530  58.507  1.00  0.00     0.049 A 
HETATM   33  C   UNL     1       8.161  30.561  59.424  1.00  0.00     0.066 A 
HETATM   34  C   UNL     1       9.264  31.404  59.353  1.00  0.00     0.036 A 
HETATM   35  C   UNL     1      10.217  31.221  58.349  1.00  0.00     0.004 A 
HETATM   36  C   UNL     1      10.054  30.202  57.409  1.00  0.00     0.013 A 
BRANCH  33  37
HETATM   37  O   UNL     1       7.240  30.797  60.400  1.00  0.00    -0.361 OA
HETATM   38  H   UNL     1       7.043  29.960  60.853  1.00  0.00     0.217 HD
ENDBRANCH  33  37
ENDBRANCH  30  31
ENDBRANCH   9  29
TORSDOF 8
ENDMDL
MODEL 5
REMARK VINA RESULT:     -10.3      1.434      1.987
REMARK  8 active torsions:
REMARK  status: ('A' for Active; 'I' for Inactive)
REMARK    1  A    between atoms: N_9  and  N_10 
REMARK    2  A    between atoms: C_11  and  C_12 
REMARK    3  A    between atoms: C_14  and  O_15 
REMARK    4  A    between atoms: C_19  and  N_20 
REMARK    5  A    between atoms: C_21  and  C_22 
REMARK       I    between atoms: C_22  and  N_23 
REMARK    6  A    between atoms: N_23  and  C_24 
REMARK    7  A    between atoms: C_24  and  C_25 
REMARK    8  A    between atoms: C_25  and  C_26 
ROOT
HETATM    1  C   UNL     1       9.291  22.165  54.865  1.00  0.00     0.002 A 
HETATM    2  C   UNL     1       8.910  23.334  55.527  1.00  0.00     0.034 A 
HETATM    3  C   UNL     1       7.940  24.185  55.006  1.00  0.00     0.086 A 
HETATM    4  C   UNL     1       7.330  23.853  53.767  1.00  0.00     0.088 A 
HETATM    5  N   UNL     1       6.386  24.617  53.193  1.00  0.00    -0.225 NA
HETATM    6  C   UNL     1       6.056  25.702  53.935  1.00  0.00     0.183 A 
HETATM    7  C   UNL     1       6.630  26.036  55.157  1.00  0.00     0.125 A 
HETATM    8  N   UNL     1       7.620  25.286  55.706  1.00  0.00    -0.242 NA
HETATM    9  N   UNL     1       5.128  26.680  53.621  1.00  0.00    -0.197 N 
HETATM   10  C   UNL     1       5.070  27.586  54.683  1.00  0.00     0.143 A 
HETATM   11  C   UNL     1       6.032  27.230  55.615  1.00  0.00     0.110 A 
HETATM   12  C   UNL     1       7.722  22.688  53.119  1.00  0.00     0.034 A 
HETATM   13  C   UNL     1       8.694  21.841  53.654  1.00  0.00     0.002 A 
ENDROOT
BRANCH  11  14
HETATM   14  C   UNL     1       6.392  28.073  56.734  1.00  0.00     0.257 C 
HETATM   15  N   UNL     1       7.693  28.531  56.661  1.00  0.00    -0.356 N 
HETATM   16  H   UNL     1       8.266  28.181  55.902  1.00  0.00     0.162 HD
HETATM   17  O   UNL     1       5.569  28.503  57.534  1.00  0.00    -0.267 OA
BRANCH  15  18
HETATM   18  C   UNL     1       8.023  29.832  57.213  1.00  0.00     0.127 C 
BRANCH  18  19
HETATM   19  C   UNL     1       8.645  29.712  58.627  1.00  0.00     0.053 C 
BRANCH  19  20
HETATM   20  C   UNL     1       8.204  30.654  59.737  1.00  0.00    -0.082 C 
HETATM   21  C   UNL     1       9.054  30.576  60.992  1.00  0.00     0.034 C 
HETATM   22  C   UNL     1       8.427  31.250  62.216  1.00  0.00     0.005 C 
HETATM   23  C   UNL     1       7.841  32.607  61.855  1.00  0.00     0.004 C 
HETATM   24  C   UNL     1       6.788  32.472  60.759  1.00  0.00     0.027 C 
HETATM   25  C   UNL     1       7.181  31.525  59.660  1.00  0.00    -0.024 C 
ENDBRANCH  19  20
ENDBRANCH  18  19
ENDBRANCH  15  18
ENDBRANCH  11  14
BRANCH  10  26
HETATM   26  N   UNL     1       4.264  28.685  54.666  1.00  0.00    -0.383 N 
HETATM   27  H   UNL     1       4.670  29.618  54.630  1.00  0.00     0.157 HD
HETATM   28  H   UNL     1       3.377  28.660  55.176  1.00  0.00     0.157 HD
ENDBRANCH  10  26
BRANCH   9  29
HETATM   29  N   UNL     1       4.575  26.889  52.383  1.00  0.00    -0.176 NA
HETATM   30  C   UNL     1       5.276  27.667  51.623  1.00  0.00     0.150 C 
BRANCH  30  31
HETATM   31  C   UNL     1       5.039  27.716  50.167  1.00  0.00    -0.014 A 
HETATM   32  C   UNL     1       4.479  26.609  49.519  1.00  0.00     0.049 A 
HETATM   33  C   UNL     1       4.417  26.599  48.131  1.00  0.00     0.066 A 
HETATM   34  C   UNL     1       4.884  27.679  47.389  1.00  0.00     0.036 A 
HETATM   35  C   UNL     1       5.426  28.788  48.041  1.00  0.00     0.004 A 
HETATM   36  C   UNL     1       5.514  28.806  49.434  1.00  0.00     0.013 A 
BRANCH  33  37
HETATM   37  O   UNL     1       3.926  25.524  47.451  1.00  0.00    -0.361 OA
HETATM   38  H   UNL     1       4.522  25.325  46.710  1.00  0.00     0.217 HD
ENDBRANCH  33  37
ENDBRANCH  30  31
ENDBRANCH   9  29
TORSDOF 8
ENDMDL
MODEL 6
REMARK VINA RESULT:     -10.1      2.851      6.607
REMARK  8 active torsions:
REMARK  status: ('A' for Active; 'I' for Inactive)
REMARK    1  A    between atoms: N_9  and  N_10 
REMARK    2  A    between atoms: C_11  and  C_12 
REMARK    3  A    between atoms: C_14  and  O_15 
REMARK    4  A    between atoms: C_19  and  N_20 
REMARK    5  A    between atoms: C_21  and  C_22 
REMARK       I    between atoms: C_22  and  N_23 
REMARK    6  A    between atoms: N_23  and  C_24 
REMARK    7  A    between atoms: C_24  and  C_25 
REMARK    8  A    between atoms: C_25  and  C_26 
ROOT
HETATM    1  C   UNL     1       3.196  30.270  52.460  1.00  0.00     0.002 A 
HETATM    2  C   UNL     1       4.021  30.362  53.583  1.00  0.00     0.034 A 
HETATM    3  C   UNL     1       4.753  29.271  54.042  1.00  0.00     0.086 A 
HETATM    4  C   UNL     1       4.648  28.034  53.352  1.00  0.00     0.088 A 
HETATM    5  N   UNL     1       5.319  26.932  53.727  1.00  0.00    -0.225 NA
HETATM    6  C   UNL     1       6.124  27.138  54.797  1.00  0.00     0.183 A 
HETATM    7  C   UNL     1       6.252  28.344  55.477  1.00  0.00     0.125 A 
HETATM    8  N   UNL     1       5.533  29.440  55.123  1.00  0.00    -0.242 NA
HETATM    9  N   UNL     1       6.936  26.209  55.424  1.00  0.00    -0.197 N 
HETATM   10  C   UNL     1       7.628  26.855  56.452  1.00  0.00     0.143 A 
HETATM   11  C   UNL     1       7.175  28.162  56.531  1.00  0.00     0.110 A 
HETATM   12  C   UNL     1       3.821  27.957  52.238  1.00  0.00     0.034 A 
HETATM   13  C   UNL     1       3.095  29.061  51.785  1.00  0.00     0.002 A 
ENDROOT
BRANCH  11  14
HETATM   14  C   UNL     1       7.520  29.049  57.619  1.00  0.00     0.257 C 
HETATM   15  N   UNL     1       7.122  30.353  57.392  1.00  0.00    -0.356 N 
HETATM   16  H   UNL     1       6.715  30.563  56.489  1.00  0.00     0.162 HD
HETATM   17  O   UNL     1       7.922  28.645  58.704  1.00  0.00    -0.267 OA
BRANCH  15  18
HETATM   18  C   UNL     1       6.741  31.188  58.517  1.00  0.00     0.127 C 
BRANCH  18  19
HETATM   19  C   UNL     1       7.924  31.406  59.493  1.00  0.00     0.053 C 
BRANCH  19  20
HETATM   20  C   UNL     1       7.681  32.033  60.858  1.00  0.00    -0.082 C 
HETATM   21  C   UNL     1       6.367  32.786  60.970  1.00  0.00     0.034 C 
HETATM   22  C   UNL     1       6.270  33.696  62.198  1.00  0.00     0.005 C 
HETATM   23  C   UNL     1       6.777  32.988  63.447  1.00  0.00     0.004 C 
HETATM   24  C   UNL     1       8.223  32.535  63.268  1.00  0.00     0.027 C 
HETATM   25  C   UNL     1       8.504  31.937  61.918  1.00  0.00    -0.024 C 
ENDBRANCH  19  20
ENDBRANCH  18  19
ENDBRANCH  15  18
ENDBRANCH  11  14
BRANCH  10  26
HETATM   26  N   UNL     1       8.492  26.200  57.278  1.00  0.00    -0.383 N 
HETATM   27  H   UNL     1       8.794  26.630  58.150  1.00  0.00     0.157 HD
HETATM   28  H   UNL     1       9.208  25.594  56.869  1.00  0.00     0.157 HD
ENDBRANCH  10  26
BRANCH   9  29
HETATM   29  N   UNL     1       6.867  24.849  55.262  1.00  0.00    -0.176 NA
HETATM   30  C   UNL     1       7.845  24.354  54.572  1.00  0.00     0.150 C 
BRANCH  30  31
HETATM   31  C   UNL     1       8.135  22.907  54.601  1.00  0.00    -0.014 A 
HETATM   32  C   UNL     1       8.126  22.176  53.407  1.00  0.00     0.049 A 
HETATM   33  C   UNL     1       8.232  20.792  53.463  1.00  0.00     0.066 A 
HETATM   34  C   UNL     1       8.365  20.136  54.681  1.00  0.00     0.036 A 
HETATM   35  C   UNL     1       8.391  20.871  55.868  1.00  0.00     0.004 A 
HETATM   36  C   UNL     1       8.266  22.261  55.831  1.00  0.00     0.013 A 
BRANCH  33  37
HETATM   37  O   UNL     1       8.180  20.031  52.332  1.00  0.00    -0.361 OA
HETATM   38  H   UNL     1       9.010  20.147  51.840  1.00  0.00     0.217 HD
ENDBRANCH  33  37
ENDBRANCH  30  31
ENDBRANCH   9  29
TORSDOF 8
ENDMDL
MODEL 7
REMARK VINA RESULT:      -9.7      3.182      4.659
REMARK  8 active torsions:
REMARK  status: ('A' for Active; 'I' for Inactive)
REMARK    1  A    between atoms: N_9  and  N_10 
REMARK    2  A    between atoms: C_11  and  C_12 
REMARK    3  A    between atoms: C_14  and  O_15 
REMARK    4  A    between atoms: C_19  and  N_20 
REMARK    5  A    between atoms: C_21  and  C_22 
REMARK       I    between atoms: C_22  and  N_23 
REMARK    6  A    between atoms: N_23  and  C_24 
REMARK    7  A    between atoms: C_24  and  C_25 
REMARK    8  A    between atoms: C_25  and  C_26 
ROOT
HETATM    1  C   UNL     1       8.641  23.492  57.018  1.00  0.00     0.002 A 
HETATM    2  C   UNL     1       8.806  24.785  57.518  1.00  0.00     0.034 A 
HETATM    3  C   UNL     1       7.973  25.830  57.129  1.00  0.00     0.086 A 
HETATM    4  C   UNL     1       6.936  25.569  56.194  1.00  0.00     0.088 A 
HETATM    5  N   UNL     1       6.088  26.518  55.765  1.00  0.00    -0.225 NA
HETATM    6  C   UNL     1       6.302  27.725  56.343  1.00  0.00     0.183 A 
HETATM    7  C   UNL     1       7.302  27.997  57.271  1.00  0.00     0.125 A 
HETATM    8  N   UNL     1       8.188  27.045  57.661  1.00  0.00    -0.242 NA
HETATM    9  N   UNL     1       5.607  28.899  56.112  1.00  0.00    -0.197 N 
HETATM   10  C   UNL     1       6.126  29.888  56.952  1.00  0.00     0.143 A 
HETATM   11  C   UNL     1       7.210  29.358  57.634  1.00  0.00     0.110 A 
HETATM   12  C   UNL     1       6.787  24.278  55.703  1.00  0.00     0.034 A 
HETATM   13  C   UNL     1       7.627  23.238  56.105  1.00  0.00     0.002 A 
ENDROOT
BRANCH  11  14
HETATM   14  C   UNL     1       8.112  30.166  58.424  1.00  0.00     0.257 C 
HETATM   15  N   UNL     1       7.665  30.357  59.718  1.00  0.00    -0.356 N 
HETATM   16  H   UNL     1       6.749  29.992  59.950  1.00  0.00     0.162 HD
HETATM   17  O   UNL     1       9.242  30.459  58.050  1.00  0.00    -0.267 OA
BRANCH  15  18
HETATM   18  C   UNL     1       8.631  30.496  60.792  1.00  0.00     0.127 C 
BRANCH  18  19
HETATM   19  C   UNL     1       8.832  31.979  61.191  1.00  0.00     0.053 C 
BRANCH  19  20
HETATM   20  C   UNL     1       7.924  32.619  62.230  1.00  0.00    -0.082 C 
HETATM   21  C   UNL     1       6.662  33.236  61.656  1.00  0.00     0.034 C 
HETATM   22  C   UNL     1       5.925  34.168  62.622  1.00  0.00     0.005 C 
HETATM   23  C   UNL     1       5.831  33.556  64.012  1.00  0.00     0.004 C 
HETATM   24  C   UNL     1       7.220  33.249  64.568  1.00  0.00     0.027 C 
HETATM   25  C   UNL     1       8.151  32.641  63.557  1.00  0.00    -0.024 C 
ENDBRANCH  19  20
ENDBRANCH  18  19
ENDBRANCH  15  18
ENDBRANCH  11  14
BRANCH  10  26
HETATM   26  N   UNL     1       5.668  31.172  56.942  1.00  0.00    -0.383 N 
HETATM   27  H   UNL     1       5.501  31.663  57.818  1.00  0.00     0.157 HD
HETATM   28  H   UNL     1       5.032  31.468  56.197  1.00  0.00     0.157 HD
ENDBRANCH  10  26
BRANCH   9  29
HETATM   29  N   UNL     1       4.761  29.133  55.058  1.00  0.00    -0.176 NA
HETATM   30  C   UNL     1       5.371  29.380  53.943  1.00  0.00     0.150 C 
BRANCH  30  31
HETATM   31  C   UNL     1       4.657  29.297  52.655  1.00  0.00    -0.014 A 
HETATM   32  C   UNL     1       3.271  29.097  52.643  1.00  0.00     0.049 A 
HETATM   33  C   UNL     1       2.635  28.851  51.433  1.00  0.00     0.066 A 
HETATM   34  C   UNL     1       3.353  28.821  50.243  1.00  0.00     0.036 A 
HETATM   35  C   UNL     1       4.732  29.038  50.257  1.00  0.00     0.004 A 
HETATM   36  C   UNL     1       5.390  29.268  51.467  1.00  0.00     0.013 A 
BRANCH  33  37
HETATM   37  O   UNL     1       1.295  28.602  51.375  1.00  0.00    -0.361 OA
HETATM   38  H   UNL     1       1.069  27.948  52.059  1.00  0.00     0.217 HD
ENDBRANCH  33  37
ENDBRANCH  30  31
ENDBRANCH   9  29
TORSDOF 8
ENDMDL
MODEL 8
REMARK VINA RESULT:      -9.6      2.468      8.308
REMARK  8 active torsions:
REMARK  status: ('A' for Active; 'I' for Inactive)
REMARK    1  A    between atoms: N_9  and  N_10 
REMARK    2  A    between atoms: C_11  and  C_12 
REMARK    3  A    between atoms: C_14  and  O_15 
REMARK    4  A    between atoms: C_19  and  N_20 
REMARK    5  A    between atoms: C_21  and  C_22 
REMARK       I    between atoms: C_22  and  N_23 
REMARK    6  A    between atoms: N_23  and  C_24 
REMARK    7  A    between atoms: C_24  and  C_25 
REMARK    8  A    between atoms: C_25  and  C_26 
ROOT
HETATM    1  C   UNL     1       7.251  31.132  58.656  1.00  0.00     0.002 A 
HETATM    2  C   UNL     1       6.381  31.029  57.569  1.00  0.00     0.034 A 
HETATM    3  C   UNL     1       6.338  29.887  56.775  1.00  0.00     0.086 A 
HETATM    4  C   UNL     1       7.209  28.806  57.079  1.00  0.00     0.088 A 
HETATM    5  N   UNL     1       7.232  27.668  56.366  1.00  0.00    -0.225 NA
HETATM    6  C   UNL     1       6.322  27.650  55.363  1.00  0.00     0.183 A 
HETATM    7  C   UNL     1       5.451  28.691  55.058  1.00  0.00     0.125 A 
HETATM    8  N   UNL     1       5.468  29.857  55.752  1.00  0.00    -0.242 NA
HETATM    9  N   UNL     1       6.100  26.631  54.452  1.00  0.00    -0.197 N 
HETATM   10  C   UNL     1       5.040  27.007  53.623  1.00  0.00     0.143 A 
HETATM   11  C   UNL     1       4.665  28.300  53.952  1.00  0.00     0.110 A 
HETATM   12  C   UNL     1       8.071  28.925  58.162  1.00  0.00     0.034 A 
HETATM   13  C   UNL     1       8.100  30.075  58.953  1.00  0.00     0.002 A 
ENDROOT
BRANCH  11  14
HETATM   14  C   UNL     1       3.744  29.078  53.154  1.00  0.00     0.257 C 
HETATM   15  N   UNL     1       4.155  30.387  52.986  1.00  0.00    -0.356 N 
HETATM   16  H   UNL     1       4.987  30.678  53.484  1.00  0.00     0.162 HD
HETATM   17  O   UNL     1       2.822  28.574  52.522  1.00  0.00    -0.267 OA
BRANCH  15  18
HETATM   18  C   UNL     1       3.819  31.088  51.760  1.00  0.00     0.127 C 
BRANCH  18  19
HETATM   19  C   UNL     1       4.976  31.027  50.732  1.00  0.00     0.053 C 
BRANCH  19  20
HETATM   20  C   UNL     1       4.869  30.121  49.515  1.00  0.00    -0.082 C 
HETATM   21  C   UNL     1       5.125  28.654  49.809  1.00  0.00     0.034 C 
HETATM   22  C   UNL     1       5.359  27.797  48.561  1.00  0.00     0.005 C 
HETATM   23  C   UNL     1       4.345  28.123  47.475  1.00  0.00     0.004 C 
HETATM   24  C   UNL     1       4.411  29.599  47.092  1.00  0.00     0.027 C 
HETATM   25  C   UNL     1       4.546  30.520  48.271  1.00  0.00    -0.024 C 
ENDBRANCH  19  20
ENDBRANCH  18  19
ENDBRANCH  15  18
ENDBRANCH  11  14
BRANCH  10  26
HETATM   26  N   UNL     1       4.596  26.224  52.599  1.00  0.00    -0.383 N 
HETATM   27  H   UNL     1       4.325  25.258  52.773  1.00  0.00     0.157 HD
HETATM   28  H   UNL     1       4.985  26.363  51.663  1.00  0.00     0.157 HD
ENDBRANCH  10  26
BRANCH   9  29
HETATM   29  N   UNL     1       6.943  25.575  54.213  1.00  0.00    -0.176 NA
HETATM   30  C   UNL     1       6.688  24.531  54.934  1.00  0.00     0.150 C 
BRANCH  30  31
HETATM   31  C   UNL     1       7.236  23.209  54.571  1.00  0.00    -0.014 A 
HETATM   32  C   UNL     1       7.610  22.314  55.580  1.00  0.00     0.049 A 
HETATM   33  C   UNL     1       8.279  21.147  55.233  1.00  0.00     0.066 A 
HETATM   34  C   UNL     1       8.559  20.855  53.904  1.00  0.00     0.036 A 
HETATM   35  C   UNL     1       8.169  21.742  52.899  1.00  0.00     0.004 A 
HETATM   36  C   UNL     1       7.513  22.929  53.232  1.00  0.00     0.013 A 
BRANCH  33  37
HETATM   37  O   UNL     1       8.707  20.267  56.183  1.00  0.00    -0.361 OA
HETATM   38  H   UNL     1       8.189  20.406  56.994  1.00  0.00     0.217 HD
ENDBRANCH  33  37
ENDBRANCH  30  31
ENDBRANCH   9  29
TORSDOF 8
ENDMDL
MODEL 9
REMARK VINA RESULT:      -9.5      2.896      8.000
REMARK  8 active torsions:
REMARK  status: ('A' for Active; 'I' for Inactive)
REMARK    1  A    between atoms: N_9  and  N_10 
REMARK    2  A    between atoms: C_11  and  C_12 
REMARK    3  A    between atoms: C_14  and  O_15 
REMARK    4  A    between atoms: C_19  and  N_20 
REMARK    5  A    between atoms: C_21  and  C_22 
REMARK       I    between atoms: C_22  and  N_23 
REMARK    6  A    between atoms: N_23  and  C_24 
REMARK    7  A    between atoms: C_24  and  C_25 
REMARK    8  A    between atoms: C_25  and  C_26 
ROOT
HETATM    1  C   UNL     1       6.989  30.470  57.911  1.00  0.00     0.002 A 
HETATM    2  C   UNL     1       6.229  30.314  56.750  1.00  0.00     0.034 A 
HETATM    3  C   UNL     1       6.270  29.141  56.002  1.00  0.00     0.086 A 
HETATM    4  C   UNL     1       7.115  28.083  56.432  1.00  0.00     0.088 A 
HETATM    5  N   UNL     1       7.215  26.918  55.770  1.00  0.00    -0.225 NA
HETATM    6  C   UNL     1       6.406  26.850  54.686  1.00  0.00     0.183 A 
HETATM    7  C   UNL     1       5.562  27.869  54.257  1.00  0.00     0.125 A 
HETATM    8  N   UNL     1       5.503  29.062  54.902  1.00  0.00    -0.242 NA
HETATM    9  N   UNL     1       6.281  25.795  53.799  1.00  0.00    -0.197 N 
HETATM   10  C   UNL     1       5.303  26.126  52.858  1.00  0.00     0.143 A 
HETATM   11  C   UNL     1       4.889  27.427  53.097  1.00  0.00     0.110 A 
HETATM   12  C   UNL     1       7.867  28.254  57.587  1.00  0.00     0.034 A 
HETATM   13  C   UNL     1       7.812  29.434  58.331  1.00  0.00     0.002 A 
ENDROOT
BRANCH  11  14
HETATM   14  C   UNL     1       4.044  28.163  52.183  1.00  0.00     0.257 C 
HETATM   15  N   UNL     1       3.426  29.245  52.781  1.00  0.00    -0.356 N 
HETATM   16  H   UNL     1       3.559  29.363  53.778  1.00  0.00     0.162 HD
HETATM   17  O   UNL     1       4.051  27.974  50.972  1.00  0.00    -0.267 OA
BRANCH  15  18
HETATM   18  C   UNL     1       3.142  30.429  51.991  1.00  0.00     0.127 C 
BRANCH  18  19
HETATM   19  C   UNL     1       4.393  31.330  51.842  1.00  0.00     0.053 C 
BRANCH  19  20
HETATM   20  C   UNL     1       4.880  31.736  50.459  1.00  0.00    -0.082 C 
HETATM   21  C   UNL     1       4.184  31.016  49.318  1.00  0.00     0.034 C 
HETATM   22  C   UNL     1       4.888  31.156  47.966  1.00  0.00     0.005 C 
HETATM   23  C   UNL     1       5.323  32.593  47.720  1.00  0.00     0.004 C 
HETATM   24  C   UNL     1       6.255  33.078  48.827  1.00  0.00     0.027 C 
HETATM   25  C   UNL     1       5.817  32.668  50.205  1.00  0.00    -0.024 C 
ENDBRANCH  19  20
ENDBRANCH  18  19
ENDBRANCH  15  18
ENDBRANCH  11  14
BRANCH  10  26
HETATM   26  N   UNL     1       4.966  25.299  51.828  1.00  0.00    -0.383 N 
HETATM   27  H   UNL     1       4.022  25.311  51.448  1.00  0.00     0.157 HD
HETATM   28  H   UNL     1       5.403  24.375  51.769  1.00  0.00     0.157 HD
ENDBRANCH  10  26
BRANCH   9  29
HETATM   29  N   UNL     1       7.150  24.739  53.686  1.00  0.00    -0.176 NA
HETATM   30  C   UNL     1       6.953  23.804  54.558  1.00  0.00     0.150 C 
BRANCH  30  31
HETATM   31  C   UNL     1       7.532  22.460  54.370  1.00  0.00    -0.014 A 
HETATM   32  C   UNL     1       8.136  21.808  55.453  1.00  0.00     0.049 A 
HETATM   33  C   UNL     1       8.825  20.623  55.228  1.00  0.00     0.066 A 
HETATM   34  C   UNL     1       8.903  20.075  53.953  1.00  0.00     0.036 A 
HETATM   35  C   UNL     1       8.285  20.719  52.880  1.00  0.00     0.004 A 
HETATM   36  C   UNL     1       7.605  21.920  53.085  1.00  0.00     0.013 A 
BRANCH  33  37
HETATM   37  O   UNL     1       9.471  19.977  56.241  1.00  0.00    -0.361 OA
HETATM   38  H   UNL     1       8.928  19.222  56.525  1.00  0.00     0.217 HD
ENDBRANCH  33  37
ENDBRANCH  30  31
ENDBRANCH   9  29
TORSDOF 8
ENDMDL
MODEL 10
REMARK VINA RESULT:      -9.4      3.450      8.175
REMARK  8 active torsions:
REMARK  status: ('A' for Active; 'I' for Inactive)
REMARK    1  A    between atoms: N_9  and  N_10 
REMARK    2  A    between atoms: C_11  and  C_12 
REMARK    3  A    between atoms: C_14  and  O_15 
REMARK    4  A    between atoms: C_19  and  N_20 
REMARK    5  A    between atoms: C_21  and  C_22 
REMARK       I    between atoms: C_22  and  N_23 
REMARK    6  A    between atoms: N_23  and  C_24 
REMARK    7  A    between atoms: C_24  and  C_25 
REMARK    8  A    between atoms: C_25  and  C_26 
ROOT
HETATM    1  C   UNL     1       5.304  25.979  50.688  1.00  0.00     0.002 A 
HETATM    2  C   UNL     1       5.841  25.832  51.969  1.00  0.00     0.034 A 
HETATM    3  C   UNL     1       5.725  26.834  52.928  1.00  0.00     0.086 A 
HETATM    4  C   UNL     1       5.049  28.036  52.587  1.00  0.00     0.088 A 
HETATM    5  N   UNL     1       4.892  29.052  53.450  1.00  0.00    -0.225 NA
HETATM    6  C   UNL     1       5.408  28.794  54.677  1.00  0.00     0.183 A 
HETATM    7  C   UNL     1       6.059  27.618  55.035  1.00  0.00     0.125 A 
HETATM    8  N   UNL     1       6.258  26.616  54.141  1.00  0.00    -0.242 NA
HETATM    9  N   UNL     1       5.411  29.633  55.777  1.00  0.00    -0.197 N 
HETATM   10  C   UNL     1       6.001  28.952  56.846  1.00  0.00     0.143 A 
HETATM   11  C   UNL     1       6.455  27.726  56.386  1.00  0.00     0.110 A 
HETATM   12  C   UNL     1       4.524  28.168  51.307  1.00  0.00     0.034 A 
HETATM   13  C   UNL     1       4.643  27.154  50.356  1.00  0.00     0.002 A 
ENDROOT
BRANCH  11  14
HETATM   14  C   UNL     1       7.302  26.857  57.171  1.00  0.00     0.257 C 
HETATM   15  N   UNL     1       7.277  25.547  56.733  1.00  0.00    -0.356 N 
HETATM   16  H   UNL     1       6.633  25.320  55.985  1.00  0.00     0.162 HD
HETATM   17  O   UNL     1       8.112  27.280  57.989  1.00  0.00    -0.267 OA
BRANCH  15  18
HETATM   18  C   UNL     1       8.465  24.724  56.875  1.00  0.00     0.127 C 
BRANCH  18  19
HETATM   19  C   UNL     1       8.123  23.214  56.837  1.00  0.00     0.053 C 
BRANCH  19  20
HETATM   20  C   UNL     1       8.136  22.462  55.515  1.00  0.00    -0.082 C 
HETATM   21  C   UNL     1       8.299  20.960  55.657  1.00  0.00     0.034 C 
HETATM   22  C   UNL     1       8.656  20.242  54.352  1.00  0.00     0.005 C 
HETATM   23  C   UNL     1       7.800  20.744  53.198  1.00  0.00     0.004 C 
HETATM   24  C   UNL     1       7.968  22.250  53.009  1.00  0.00     0.027 C 
HETATM   25  C   UNL     1       7.988  23.020  54.299  1.00  0.00    -0.024 C 
ENDBRANCH  19  20
ENDBRANCH  18  19
ENDBRANCH  15  18
ENDBRANCH  11  14
BRANCH  10  26
HETATM   26  N   UNL     1       6.179  29.523  58.070  1.00  0.00    -0.383 N 
HETATM   27  H   UNL     1       7.117  29.709  58.419  1.00  0.00     0.157 HD
HETATM   28  H   UNL     1       5.514  29.310  58.819  1.00  0.00     0.157 HD
ENDBRANCH  10  26
BRANCH   9  29
HETATM   29  N   UNL     1       5.151  30.980  55.757  1.00  0.00    -0.176 NA
HETATM   30  C   UNL     1       3.920  31.278  56.026  1.00  0.00     0.150 C 
BRANCH  30  31
HETATM   31  C   UNL     1       3.541  32.654  56.402  1.00  0.00    -0.014 A 
HETATM   32  C   UNL     1       4.071  33.225  57.565  1.00  0.00     0.049 A 
HETATM   33  C   UNL     1       3.580  34.449  58.000  1.00  0.00     0.066 A 
HETATM   34  C   UNL     1       2.590  35.114  57.286  1.00  0.00     0.036 A 
HETATM   35  C   UNL     1       2.076  34.549  56.118  1.00  0.00     0.004 A 
HETATM   36  C   UNL     1       2.544  33.310  55.677  1.00  0.00     0.013 A 
BRANCH  33  37
HETATM   37  O   UNL     1       4.029  35.024  59.153  1.00  0.00    -0.361 OA
HETATM   38  H   UNL     1       4.319  35.931  58.957  1.00  0.00     0.217 HD
ENDBRANCH  33  37
ENDBRANCH  30  31
ENDBRANCH   9  29
TORSDOF 8
ENDMDL
