MODEL 1
REMARK VINA RESULT:      -8.4      0.000      0.000
REMARK  8 active torsions:
REMARK  status: ('A' for Active; 'I' for Inactive)
REMARK    1  A    between atoms: C_2  and  N_3 
REMARK    2  A    between atoms: C_2  and  C_17 
REMARK    3  A    between atoms: N_3  and  C_6 
REMARK    4  A    between atoms: C_6  and  C_7 
REMARK    5  A    between atoms: C_7  and  O_8 
REMARK    6  A    between atoms: C_7  and  C_9 
REMARK    7  A    between atoms: C_11  and  O_12 
REMARK    8  A    between atoms: C_17  and  C_18 
ROOT
HETATM    1  N   UNL     1       5.889  27.730  55.631  1.00  0.00    -0.068 N 
HETATM    2  H   UNL     1       5.746  28.662  55.218  1.00  0.00     0.277 HD
HETATM    3  H   UNL     1       4.940  27.315  55.677  1.00  0.00     0.277 HD
ENDROOT
BRANCH   1   4
HETATM    4  C   UNL     1       6.823  26.930  54.757  1.00  0.00     0.188 C 
HETATM    5  C   UNL     1       7.488  27.924  53.800  1.00  0.00     0.040 C 
BRANCH   4   6
HETATM    6  C   UNL     1       6.054  25.833  53.998  1.00  0.00     0.099 C 
BRANCH   6   7
HETATM    7  C   UNL     1       6.659  24.482  54.228  1.00  0.00     0.078 A 
HETATM    8  S   UNL     1       7.035  23.962  55.816  1.00  0.00    -0.073 SA
HETATM    9  C   UNL     1       7.642  22.478  55.187  1.00  0.00     0.035 A 
HETATM   10  C   UNL     1       7.513  22.488  53.796  1.00  0.00     0.074 A 
HETATM   11  C   UNL     1       8.192  21.383  55.873  1.00  0.00     0.021 A 
HETATM   12  N   UNL     1       6.957  23.645  53.262  1.00  0.00    -0.245 NA
HETATM   13  C   UNL     1       7.944  21.364  53.064  1.00  0.00     0.033 A 
HETATM   14  C   UNL     1       8.491  20.266  53.739  1.00  0.00     0.002 A 
HETATM   15  C   UNL     1       8.613  20.278  55.124  1.00  0.00     0.002 A 
ENDBRANCH   6   7
ENDBRANCH   4   6
ENDBRANCH   1   4
BRANCH   1  16
HETATM   16  C   UNL     1       6.314  27.950  57.067  1.00  0.00     0.269 C 
BRANCH  16  17
HETATM   17  C   UNL     1       7.810  27.578  57.191  1.00  0.00     0.177 C 
BRANCH  17  18
HETATM   18  O   UNL     1       7.920  26.659  58.289  1.00  0.00    -0.389 OA
HETATM   19  H   UNL     1       8.699  26.096  58.097  1.00  0.00     0.210 HD
ENDBRANCH  17  18
BRANCH  17  20
HETATM   20  C   UNL     1       8.675  28.797  57.425  1.00  0.00    -0.025 A 
HETATM   21  C   UNL     1       8.169  29.859  58.200  1.00  0.00     0.046 A 
HETATM   22  C   UNL     1       8.953  30.982  58.473  1.00  0.00     0.068 A 
HETATM   23  C   UNL     1      10.258  31.040  57.984  1.00  0.00     0.037 A 
HETATM   24  C   UNL     1      10.771  30.005  57.206  1.00  0.00     0.003 A 
HETATM   25  C   UNL     1       9.984  28.890  56.922  1.00  0.00     0.010 A 
BRANCH  22  26
HETATM   26  O   UNL     1       8.572  32.063  59.216  1.00  0.00    -0.356 OA
HETATM   27  C   UNL     1       9.238  32.269  60.456  1.00  0.00     0.210 C 
ENDBRANCH  22  26
ENDBRANCH  17  20
ENDBRANCH  16  17
ENDBRANCH   1  16
TORSDOF 8
ENDMDL
MODEL 2
REMARK VINA RESULT:      -8.3      1.130      1.609
REMARK  8 active torsions:
REMARK  status: ('A' for Active; 'I' for Inactive)
REMARK    1  A    between atoms: C_2  and  N_3 
REMARK    2  A    between atoms: C_2  and  C_17 
REMARK    3  A    between atoms: N_3  and  C_6 
REMARK    4  A    between atoms: C_6  and  C_7 
REMARK    5  A    between atoms: C_7  and  O_8 
REMARK    6  A    between atoms: C_7  and  C_9 
REMARK    7  A    between atoms: C_11  and  O_12 
REMARK    8  A    between atoms: C_17  and  C_18 
ROOT
HETATM    1  N   UNL     1       6.019  27.015  55.744  1.00  0.00    -0.068 N 
HETATM    2  H   UNL     1       5.024  26.858  55.958  1.00  0.00     0.277 HD
HETATM    3  H   UNL     1       6.485  26.126  56.002  1.00  0.00     0.277 HD
ENDROOT
BRANCH   1   4
HETATM    4  C   UNL     1       6.173  27.338  54.279  1.00  0.00     0.188 C 
HETATM    5  C   UNL     1       4.994  26.680  53.557  1.00  0.00     0.040 C 
BRANCH   4   6
HETATM    6  C   UNL     1       7.526  26.828  53.747  1.00  0.00     0.099 C 
BRANCH   6   7
HETATM    7  C   UNL     1       7.629  25.338  53.857  1.00  0.00     0.078 A 
HETATM    8  S   UNL     1       7.795  24.378  52.448  1.00  0.00    -0.073 SA
HETATM    9  C   UNL     1       7.813  22.955  53.420  1.00  0.00     0.035 A 
HETATM   10  C   UNL     1       7.687  23.321  54.762  1.00  0.00     0.074 A 
HETATM   11  C   UNL     1       7.929  21.613  53.024  1.00  0.00     0.021 A 
HETATM   12  N   UNL     1       7.575  24.686  54.995  1.00  0.00    -0.245 NA
HETATM   13  C   UNL     1       7.684  22.311  55.744  1.00  0.00     0.033 A 
HETATM   14  C   UNL     1       7.802  20.970  55.361  1.00  0.00     0.002 A 
HETATM   15  C   UNL     1       7.922  20.629  54.018  1.00  0.00     0.002 A 
ENDBRANCH   6   7
ENDBRANCH   4   6
ENDBRANCH   1   4
BRANCH   1  16
HETATM   16  C   UNL     1       6.520  28.048  56.730  1.00  0.00     0.269 C 
BRANCH  16  17
HETATM   17  C   UNL     1       7.980  27.699  57.098  1.00  0.00     0.177 C 
BRANCH  17  18
HETATM   18  O   UNL     1       7.925  26.838  58.247  1.00  0.00    -0.389 OA
HETATM   19  H   UNL     1       7.353  26.083  57.995  1.00  0.00     0.210 HD
ENDBRANCH  17  18
BRANCH  17  20
HETATM   20  C   UNL     1       8.797  28.937  57.395  1.00  0.00    -0.025 A 
HETATM   21  C   UNL     1       8.214  29.981  58.138  1.00  0.00     0.046 A 
HETATM   22  C   UNL     1       8.950  31.122  58.468  1.00  0.00     0.068 A 
HETATM   23  C   UNL     1      10.283  31.214  58.070  1.00  0.00     0.037 A 
HETATM   24  C   UNL     1      10.873  30.196  57.325  1.00  0.00     0.003 A 
HETATM   25  C   UNL     1      10.135  29.064  56.983  1.00  0.00     0.010 A 
BRANCH  22  26
HETATM   26  O   UNL     1       8.492  32.189  59.187  1.00  0.00    -0.356 OA
HETATM   27  C   UNL     1       7.321  31.993  59.971  1.00  0.00     0.210 C 
ENDBRANCH  22  26
ENDBRANCH  17  20
ENDBRANCH  16  17
ENDBRANCH   1  16
TORSDOF 8
ENDMDL
MODEL 3
REMARK VINA RESULT:      -8.3      4.470      7.309
REMARK  8 active torsions:
REMARK  status: ('A' for Active; 'I' for Inactive)
REMARK    1  A    between atoms: C_2  and  N_3 
REMARK    2  A    between atoms: C_2  and  C_17 
REMARK    3  A    between atoms: N_3  and  C_6 
REMARK    4  A    between atoms: C_6  and  C_7 
REMARK    5  A    between atoms: C_7  and  O_8 
REMARK    6  A    between atoms: C_7  and  C_9 
REMARK    7  A    between atoms: C_11  and  O_12 
REMARK    8  A    between atoms: C_17  and  C_18 
ROOT
HETATM    1  N   UNL     1       4.941  26.045  53.824  1.00  0.00    -0.068 N 
HETATM    2  H   UNL     1       5.459  25.204  53.532  1.00  0.00     0.277 HD
HETATM    3  H   UNL     1       3.977  25.709  54.004  1.00  0.00     0.277 HD
ENDROOT
BRANCH   1   4
HETATM    4  C   UNL     1       5.584  26.629  55.058  1.00  0.00     0.188 C 
HETATM    5  C   UNL     1       5.314  28.136  55.023  1.00  0.00     0.040 C 
BRANCH   4   6
HETATM    6  C   UNL     1       7.092  26.318  55.084  1.00  0.00     0.099 C 
BRANCH   6   7
HETATM    7  C   UNL     1       7.351  24.849  54.944  1.00  0.00     0.078 A 
HETATM    8  S   UNL     1       7.523  23.866  56.336  1.00  0.00    -0.073 SA
HETATM    9  C   UNL     1       7.790  22.492  55.332  1.00  0.00     0.035 A 
HETATM   10  C   UNL     1       7.729  22.889  53.994  1.00  0.00     0.074 A 
HETATM   11  C   UNL     1       8.034  21.159  55.699  1.00  0.00     0.021 A 
HETATM   12  N   UNL     1       7.486  24.242  53.789  1.00  0.00    -0.245 NA
HETATM   13  C   UNL     1       7.914  21.920  52.988  1.00  0.00     0.033 A 
HETATM   14  C   UNL     1       8.155  20.588  53.344  1.00  0.00     0.002 A 
HETATM   15  C   UNL     1       8.215  20.216  54.683  1.00  0.00     0.002 A 
ENDBRANCH   6   7
ENDBRANCH   4   6
ENDBRANCH   1   4
BRANCH   1  16
HETATM   16  C   UNL     1       4.848  26.944  52.610  1.00  0.00     0.269 C 
BRANCH  16  17
HETATM   17  C   UNL     1       5.248  26.120  51.365  1.00  0.00     0.177 C 
BRANCH  17  18
HETATM   18  O   UNL     1       6.637  25.789  51.514  1.00  0.00    -0.389 OA
HETATM   19  H   UNL     1       7.101  26.632  51.700  1.00  0.00     0.210 HD
ENDBRANCH  17  18
BRANCH  17  20
HETATM   20  C   UNL     1       5.014  26.889  50.083  1.00  0.00    -0.025 A 
HETATM   21  C   UNL     1       4.354  26.253  49.013  1.00  0.00     0.046 A 
HETATM   22  C   UNL     1       4.082  26.943  47.829  1.00  0.00     0.068 A 
HETATM   23  C   UNL     1       4.454  28.282  47.718  1.00  0.00     0.037 A 
HETATM   24  C   UNL     1       5.118  28.923  48.761  1.00  0.00     0.003 A 
HETATM   25  C   UNL     1       5.402  28.231  49.936  1.00  0.00     0.010 A 
BRANCH  22  26
HETATM   26  O   UNL     1       3.445  26.433  46.734  1.00  0.00    -0.356 OA
HETATM   27  C   UNL     1       2.637  25.278  46.929  1.00  0.00     0.210 C 
ENDBRANCH  22  26
ENDBRANCH  17  20
ENDBRANCH  16  17
ENDBRANCH   1  16
TORSDOF 8
ENDMDL
MODEL 4
REMARK VINA RESULT:      -8.2      2.764      7.868
REMARK  8 active torsions:
REMARK  status: ('A' for Active; 'I' for Inactive)
REMARK    1  A    between atoms: C_2  and  N_3 
REMARK    2  A    between atoms: C_2  and  C_17 
REMARK    3  A    between atoms: N_3  and  C_6 
REMARK    4  A    between atoms: C_6  and  C_7 
REMARK    5  A    between atoms: C_7  and  O_8 
REMARK    6  A    between atoms: C_7  and  C_9 
REMARK    7  A    between atoms: C_11  and  O_12 
REMARK    8  A    between atoms: C_17  and  C_18 
ROOT
HETATM    1  N   UNL     1       4.994  25.366  54.379  1.00  0.00    -0.068 N 
HETATM    2  H   UNL     1       4.353  24.639  54.728  1.00  0.00     0.277 HD
HETATM    3  H   UNL     1       4.378  26.061  53.920  1.00  0.00     0.277 HD
ENDROOT
BRANCH   1   4
HETATM    4  C   UNL     1       5.762  25.955  55.536  1.00  0.00     0.188 C 
HETATM    5  C   UNL     1       5.300  25.214  56.793  1.00  0.00     0.040 C 
BRANCH   4   6
HETATM    6  C   UNL     1       5.510  27.471  55.641  1.00  0.00     0.099 C 
BRANCH   6   7
HETATM    7  C   UNL     1       6.743  28.203  56.075  1.00  0.00     0.078 A 
HETATM    8  S   UNL     1       8.069  28.371  55.004  1.00  0.00    -0.073 SA
HETATM    9  C   UNL     1       8.942  29.225  56.218  1.00  0.00     0.035 A 
HETATM   10  C   UNL     1       8.150  29.319  57.365  1.00  0.00     0.074 A 
HETATM   11  C   UNL     1      10.233  29.774  56.162  1.00  0.00     0.021 A 
HETATM   12  N   UNL     1       6.898  28.722  57.270  1.00  0.00    -0.245 NA
HETATM   13  C   UNL     1       8.663  29.989  58.493  1.00  0.00     0.033 A 
HETATM   14  C   UNL     1       9.948  30.542  58.446  1.00  0.00     0.002 A 
HETATM   15  C   UNL     1      10.721  30.433  57.295  1.00  0.00     0.002 A 
ENDBRANCH   6   7
ENDBRANCH   4   6
ENDBRANCH   1   4
BRANCH   1  16
HETATM   16  C   UNL     1       5.807  24.735  53.269  1.00  0.00     0.269 C 
BRANCH  16  17
HETATM   17  C   UNL     1       7.282  24.669  53.725  1.00  0.00     0.177 C 
BRANCH  17  18
HETATM   18  O   UNL     1       8.056  25.356  52.729  1.00  0.00    -0.389 OA
HETATM   19  H   UNL     1       8.481  24.661  52.185  1.00  0.00     0.210 HD
ENDBRANCH  17  18
BRANCH  17  20
HETATM   20  C   UNL     1       7.759  23.242  53.884  1.00  0.00    -0.025 A 
HETATM   21  C   UNL     1       8.184  22.798  55.152  1.00  0.00     0.046 A 
HETATM   22  C   UNL     1       8.591  21.477  55.348  1.00  0.00     0.068 A 
HETATM   23  C   UNL     1       8.557  20.585  54.276  1.00  0.00     0.037 A 
HETATM   24  C   UNL     1       8.150  21.009  53.013  1.00  0.00     0.003 A 
HETATM   25  C   UNL     1       7.758  22.331  52.814  1.00  0.00     0.010 A 
BRANCH  22  26
HETATM   26  O   UNL     1       9.014  20.936  56.528  1.00  0.00    -0.356 OA
HETATM   27  C   UNL     1       8.281  21.276  57.700  1.00  0.00     0.210 C 
ENDBRANCH  22  26
ENDBRANCH  17  20
ENDBRANCH  16  17
ENDBRANCH   1  16
TORSDOF 8
ENDMDL
MODEL 5
REMARK VINA RESULT:      -8.2      4.670      7.631
REMARK  8 active torsions:
REMARK  status: ('A' for Active; 'I' for Inactive)
REMARK    1  A    between atoms: C_2  and  N_3 
REMARK    2  A    between atoms: C_2  and  C_17 
REMARK    3  A    between atoms: N_3  and  C_6 
REMARK    4  A    between atoms: C_6  and  C_7 
REMARK    5  A    between atoms: C_7  and  O_8 
REMARK    6  A    between atoms: C_7  and  C_9 
REMARK    7  A    between atoms: C_11  and  O_12 
REMARK    8  A    between atoms: C_17  and  C_18 
ROOT
HETATM    1  N   UNL     1       4.299  26.385  52.823  1.00  0.00    -0.068 N 
HETATM    2  H   UNL     1       3.460  26.292  53.414  1.00  0.00     0.277 HD
HETATM    3  H   UNL     1       3.932  26.453  51.856  1.00  0.00     0.277 HD
ENDROOT
BRANCH   1   4
HETATM    4  C   UNL     1       5.068  27.617  53.233  1.00  0.00     0.188 C 
HETATM    5  C   UNL     1       4.253  28.296  54.338  1.00  0.00     0.040 C 
BRANCH   4   6
HETATM    6  C   UNL     1       5.285  28.550  52.027  1.00  0.00     0.099 C 
BRANCH   6   7
HETATM    7  C   UNL     1       4.461  28.124  50.851  1.00  0.00     0.078 A 
HETATM    8  S   UNL     1       2.969  28.897  50.516  1.00  0.00    -0.073 SA
HETATM    9  C   UNL     1       2.737  27.861  49.160  1.00  0.00     0.035 A 
HETATM   10  C   UNL     1       3.825  26.991  49.062  1.00  0.00     0.074 A 
HETATM   11  C   UNL     1       1.669  27.820  48.248  1.00  0.00     0.021 A 
HETATM   12  N   UNL     1       4.799  27.148  50.041  1.00  0.00    -0.245 NA
HETATM   13  C   UNL     1       3.851  26.051  48.013  1.00  0.00     0.033 A 
HETATM   14  C   UNL     1       2.794  26.004  47.097  1.00  0.00     0.002 A 
HETATM   15  C   UNL     1       1.718  26.877  47.216  1.00  0.00     0.002 A 
ENDBRANCH   6   7
ENDBRANCH   4   6
ENDBRANCH   1   4
BRANCH   1  16
HETATM   16  C   UNL     1       5.033  25.064  52.896  1.00  0.00     0.269 C 
BRANCH  16  17
HETATM   17  C   UNL     1       6.549  25.344  52.780  1.00  0.00     0.177 C 
BRANCH  17  18
HETATM   18  O   UNL     1       6.857  25.390  51.378  1.00  0.00    -0.389 OA
HETATM   19  H   UNL     1       7.833  25.342  51.311  1.00  0.00     0.210 HD
ENDBRANCH  17  18
BRANCH  17  20
HETATM   20  C   UNL     1       7.372  24.282  53.476  1.00  0.00    -0.025 A 
HETATM   21  C   UNL     1       7.687  24.443  54.839  1.00  0.00     0.046 A 
HETATM   22  C   UNL     1       8.409  23.465  55.527  1.00  0.00     0.068 A 
HETATM   23  C   UNL     1       8.804  22.308  54.855  1.00  0.00     0.037 A 
HETATM   24  C   UNL     1       8.510  22.137  53.504  1.00  0.00     0.003 A 
HETATM   25  C   UNL     1       7.802  23.120  52.815  1.00  0.00     0.010 A 
BRANCH  22  26
HETATM   26  O   UNL     1       8.764  23.510  56.844  1.00  0.00    -0.356 OA
HETATM   27  C   UNL     1       8.709  24.777  57.491  1.00  0.00     0.210 C 
ENDBRANCH  22  26
ENDBRANCH  17  20
ENDBRANCH  16  17
ENDBRANCH   1  16
TORSDOF 8
ENDMDL
MODEL 6
REMARK VINA RESULT:      -8.2      3.086      9.241
REMARK  8 active torsions:
REMARK  status: ('A' for Active; 'I' for Inactive)
REMARK    1  A    between atoms: C_2  and  N_3 
REMARK    2  A    between atoms: C_2  and  C_17 
REMARK    3  A    between atoms: N_3  and  C_6 
REMARK    4  A    between atoms: C_6  and  C_7 
REMARK    5  A    between atoms: C_7  and  O_8 
REMARK    6  A    between atoms: C_7  and  C_9 
REMARK    7  A    between atoms: C_11  and  O_12 
REMARK    8  A    between atoms: C_17  and  C_18 
ROOT
HETATM    1  N   UNL     1       7.577  26.952  57.913  1.00  0.00    -0.068 N 
HETATM    2  H   UNL     1       8.062  27.003  58.820  1.00  0.00     0.277 HD
HETATM    3  H   UNL     1       6.698  26.443  58.114  1.00  0.00     0.277 HD
ENDROOT
BRANCH   1   4
HETATM    4  C   UNL     1       7.326  28.349  57.399  1.00  0.00     0.188 C 
HETATM    5  C   UNL     1       7.111  28.228  55.888  1.00  0.00     0.040 C 
BRANCH   4   6
HETATM    6  C   UNL     1       8.510  29.274  57.736  1.00  0.00     0.099 C 
BRANCH   6   7
HETATM    7  C   UNL     1       8.195  30.165  58.899  1.00  0.00     0.078 A 
HETATM    8  S   UNL     1       6.973  31.357  58.767  1.00  0.00    -0.073 SA
HETATM    9  C   UNL     1       7.287  31.858  60.385  1.00  0.00     0.035 A 
HETATM   10  C   UNL     1       8.314  31.071  60.912  1.00  0.00     0.074 A 
HETATM   11  C   UNL     1       6.670  32.872  61.135  1.00  0.00     0.021 A 
HETATM   12  N   UNL     1       8.828  30.113  60.047  1.00  0.00    -0.245 NA
HETATM   13  C   UNL     1       8.736  31.302  62.237  1.00  0.00     0.033 A 
HETATM   14  C   UNL     1       8.125  32.308  62.993  1.00  0.00     0.002 A 
HETATM   15  C   UNL     1       7.107  33.083  62.447  1.00  0.00     0.002 A 
ENDBRANCH   6   7
ENDBRANCH   4   6
ENDBRANCH   1   4
BRANCH   1  16
HETATM   16  C   UNL     1       8.395  26.035  57.030  1.00  0.00     0.269 C 
BRANCH  16  17
HETATM   17  C   UNL     1       7.677  24.668  56.953  1.00  0.00     0.177 C 
BRANCH  17  18
HETATM   18  O   UNL     1       8.373  23.783  57.846  1.00  0.00    -0.389 OA
HETATM   19  H   UNL     1       8.024  23.969  58.742  1.00  0.00     0.210 HD
ENDBRANCH  17  18
BRANCH  17  20
HETATM   20  C   UNL     1       7.671  24.114  55.546  1.00  0.00    -0.025 A 
HETATM   21  C   UNL     1       8.426  22.960  55.259  1.00  0.00     0.046 A 
HETATM   22  C   UNL     1       8.411  22.395  53.982  1.00  0.00     0.068 A 
HETATM   23  C   UNL     1       7.623  22.973  52.988  1.00  0.00     0.037 A 
HETATM   24  C   UNL     1       6.879  24.121  53.250  1.00  0.00     0.003 A 
HETATM   25  C   UNL     1       6.904  24.694  54.520  1.00  0.00     0.010 A 
BRANCH  22  26
HETATM   26  O   UNL     1       9.095  21.279  53.593  1.00  0.00    -0.356 OA
HETATM   27  C   UNL     1       8.400  20.339  52.781  1.00  0.00     0.210 C 
ENDBRANCH  22  26
ENDBRANCH  17  20
ENDBRANCH  16  17
ENDBRANCH   1  16
TORSDOF 8
ENDMDL
MODEL 7
REMARK VINA RESULT:      -8.1      2.621      4.643
REMARK  8 active torsions:
REMARK  status: ('A' for Active; 'I' for Inactive)
REMARK    1  A    between atoms: C_2  and  N_3 
REMARK    2  A    between atoms: C_2  and  C_17 
REMARK    3  A    between atoms: N_3  and  C_6 
REMARK    4  A    between atoms: C_6  and  C_7 
REMARK    5  A    between atoms: C_7  and  O_8 
REMARK    6  A    between atoms: C_7  and  C_9 
REMARK    7  A    between atoms: C_11  and  O_12 
REMARK    8  A    between atoms: C_17  and  C_18 
ROOT
HETATM    1  N   UNL     1       7.477  29.667  58.592  1.00  0.00    -0.068 N 
HETATM    2  H   UNL     1       7.015  30.428  58.075  1.00  0.00     0.277 HD
HETATM    3  H   UNL     1       6.793  29.390  59.319  1.00  0.00     0.277 HD
ENDROOT
BRANCH   1   4
HETATM    4  C   UNL     1       7.794  28.536  57.644  1.00  0.00     0.188 C 
HETATM    5  C   UNL     1       9.227  28.763  57.154  1.00  0.00     0.040 C 
BRANCH   4   6
HETATM    6  C   UNL     1       6.789  28.506  56.477  1.00  0.00     0.099 C 
BRANCH   6   7
HETATM    7  C   UNL     1       7.051  27.352  55.559  1.00  0.00     0.078 A 
HETATM    8  S   UNL     1       7.478  27.629  53.924  1.00  0.00    -0.073 SA
HETATM    9  C   UNL     1       7.554  25.930  53.655  1.00  0.00     0.035 A 
HETATM   10  C   UNL     1       7.243  25.268  54.845  1.00  0.00     0.074 A 
HETATM   11  C   UNL     1       7.866  25.231  52.478  1.00  0.00     0.021 A 
HETATM   12  N   UNL     1       6.950  26.095  55.923  1.00  0.00    -0.245 NA
HETATM   13  C   UNL     1       7.250  23.859  54.862  1.00  0.00     0.033 A 
HETATM   14  C   UNL     1       7.562  23.153  53.694  1.00  0.00     0.002 A 
HETATM   15  C   UNL     1       7.865  23.833  52.519  1.00  0.00     0.002 A 
ENDBRANCH   6   7
ENDBRANCH   4   6
ENDBRANCH   1   4
BRANCH   1  16
HETATM   16  C   UNL     1       8.642  30.286  59.333  1.00  0.00     0.269 C 
BRANCH  16  17
HETATM   17  C   UNL     1       8.408  31.812  59.416  1.00  0.00     0.177 C 
BRANCH  17  18
HETATM   18  O   UNL     1       9.659  32.442  59.098  1.00  0.00    -0.389 OA
HETATM   19  H   UNL     1      10.205  31.759  58.656  1.00  0.00     0.210 HD
ENDBRANCH  17  18
BRANCH  17  20
HETATM   20  C   UNL     1       7.929  32.233  60.788  1.00  0.00    -0.025 A 
HETATM   21  C   UNL     1       6.660  32.832  60.916  1.00  0.00     0.046 A 
HETATM   22  C   UNL     1       6.165  33.196  62.170  1.00  0.00     0.068 A 
HETATM   23  C   UNL     1       6.932  32.944  63.307  1.00  0.00     0.037 A 
HETATM   24  C   UNL     1       8.193  32.363  63.198  1.00  0.00     0.003 A 
HETATM   25  C   UNL     1       8.693  32.013  61.946  1.00  0.00     0.010 A 
BRANCH  22  26
HETATM   26  O   UNL     1       4.952  33.775  62.415  1.00  0.00    -0.356 OA
HETATM   27  C   UNL     1       3.804  32.937  62.343  1.00  0.00     0.210 C 
ENDBRANCH  22  26
ENDBRANCH  17  20
ENDBRANCH  16  17
ENDBRANCH   1  16
TORSDOF 8
ENDMDL
MODEL 8
REMARK VINA RESULT:      -8.0      3.273      5.409
REMARK  8 active torsions:
REMARK  status: ('A' for Active; 'I' for Inactive)
REMARK    1  A    between atoms: C_2  and  N_3 
REMARK    2  A    between atoms: C_2  and  C_17 
REMARK    3  A    between atoms: N_3  and  C_6 
REMARK    4  A    between atoms: C_6  and  C_7 
REMARK    5  A    between atoms: C_7  and  O_8 
REMARK    6  A    between atoms: C_7  and  C_9 
REMARK    7  A    between atoms: C_11  and  O_12 
REMARK    8  A    between atoms: C_17  and  C_18 
ROOT
HETATM    1  N   UNL     1       9.389  30.721  59.092  1.00  0.00    -0.068 N 
HETATM    2  H   UNL     1      10.289  30.773  59.590  1.00  0.00     0.277 HD
HETATM    3  H   UNL     1       9.242  31.675  58.715  1.00  0.00     0.277 HD
ENDROOT
BRANCH   1   4
HETATM    4  C   UNL     1       9.476  29.681  58.002  1.00  0.00     0.188 C 
HETATM    5  C   UNL     1      10.469  30.214  56.965  1.00  0.00     0.040 C 
BRANCH   4   6
HETATM    6  C   UNL     1       8.089  29.421  57.385  1.00  0.00     0.099 C 
BRANCH   6   7
HETATM    7  C   UNL     1       7.949  28.000  56.931  1.00  0.00     0.078 A 
HETATM    8  S   UNL     1       7.118  27.635  55.479  1.00  0.00    -0.073 SA
HETATM    9  C   UNL     1       7.400  25.956  55.739  1.00  0.00     0.035 A 
HETATM   10  C   UNL     1       8.115  25.795  56.929  1.00  0.00     0.074 A 
HETATM   11  C   UNL     1       7.019  24.860  54.949  1.00  0.00     0.021 A 
HETATM   12  N   UNL     1       8.414  26.973  57.603  1.00  0.00    -0.245 NA
HETATM   13  C   UNL     1       8.465  24.494  57.341  1.00  0.00     0.033 A 
HETATM   14  C   UNL     1       8.093  23.395  56.559  1.00  0.00     0.002 A 
HETATM   15  C   UNL     1       7.378  23.578  55.380  1.00  0.00     0.002 A 
ENDBRANCH   6   7
ENDBRANCH   4   6
ENDBRANCH   1   4
BRANCH   1  16
HETATM   16  C   UNL     1       8.320  30.522  60.144  1.00  0.00     0.269 C 
BRANCH  16  17
HETATM   17  C   UNL     1       8.915  30.901  61.519  1.00  0.00     0.177 C 
BRANCH  17  18
HETATM   18  O   UNL     1       9.306  29.674  62.156  1.00  0.00    -0.389 OA
HETATM   19  H   UNL     1       9.701  29.116  61.454  1.00  0.00     0.210 HD
ENDBRANCH  17  18
BRANCH  17  20
HETATM   20  C   UNL     1       7.922  31.656  62.374  1.00  0.00    -0.025 A 
HETATM   21  C   UNL     1       6.544  31.467  62.153  1.00  0.00     0.046 A 
HETATM   22  C   UNL     1       5.596  32.114  62.950  1.00  0.00     0.068 A 
HETATM   23  C   UNL     1       6.025  32.941  63.987  1.00  0.00     0.037 A 
HETATM   24  C   UNL     1       7.383  33.149  64.213  1.00  0.00     0.003 A 
HETATM   25  C   UNL     1       8.329  32.515  63.409  1.00  0.00     0.010 A 
BRANCH  22  26
HETATM   26  O   UNL     1       4.240  32.000  62.832  1.00  0.00    -0.356 OA
HETATM   27  C   UNL     1       3.550  33.068  62.192  1.00  0.00     0.210 C 
ENDBRANCH  22  26
ENDBRANCH  17  20
ENDBRANCH  16  17
ENDBRANCH   1  16
TORSDOF 8
ENDMDL
MODEL 9
REMARK VINA RESULT:      -8.0      4.447      7.078
REMARK  8 active torsions:
REMARK  status: ('A' for Active; 'I' for Inactive)
REMARK    1  A    between atoms: C_2  and  N_3 
REMARK    2  A    between atoms: C_2  and  C_17 
REMARK    3  A    between atoms: N_3  and  C_6 
REMARK    4  A    between atoms: C_6  and  C_7 
REMARK    5  A    between atoms: C_7  and  O_8 
REMARK    6  A    between atoms: C_7  and  C_9 
REMARK    7  A    between atoms: C_11  and  O_12 
REMARK    8  A    between atoms: C_17  and  C_18 
ROOT
HETATM    1  N   UNL     1       4.949  26.258  53.733  1.00  0.00    -0.068 N 
HETATM    2  H   UNL     1       5.372  25.341  53.526  1.00  0.00     0.277 HD
HETATM    3  H   UNL     1       3.953  26.050  53.925  1.00  0.00     0.277 HD
ENDROOT
BRANCH   1   4
HETATM    4  C   UNL     1       5.645  26.876  54.920  1.00  0.00     0.188 C 
HETATM    5  C   UNL     1       5.428  28.388  54.820  1.00  0.00     0.040 C 
BRANCH   4   6
HETATM    6  C   UNL     1       7.142  26.512  54.924  1.00  0.00     0.099 C 
BRANCH   6   7
HETATM    7  C   UNL     1       7.346  25.032  54.806  1.00  0.00     0.078 A 
HETATM    8  S   UNL     1       7.380  24.051  56.209  1.00  0.00    -0.073 SA
HETATM    9  C   UNL     1       7.655  22.661  55.230  1.00  0.00     0.035 A 
HETATM   10  C   UNL     1       7.703  23.052  53.890  1.00  0.00     0.074 A 
HETATM   11  C   UNL     1       7.816  21.321  55.618  1.00  0.00     0.021 A 
HETATM   12  N   UNL     1       7.533  24.413  53.665  1.00  0.00    -0.245 NA
HETATM   13  C   UNL     1       7.914  22.070  52.902  1.00  0.00     0.033 A 
HETATM   14  C   UNL     1       8.073  20.731  53.278  1.00  0.00     0.002 A 
HETATM   15  C   UNL     1       8.025  20.365  54.619  1.00  0.00     0.002 A 
ENDBRANCH   6   7
ENDBRANCH   4   6
ENDBRANCH   1   4
BRANCH   1  16
HETATM   16  C   UNL     1       4.967  27.048  52.442  1.00  0.00     0.269 C 
BRANCH  16  17
HETATM   17  C   UNL     1       5.164  26.058  51.271  1.00  0.00     0.177 C 
BRANCH  17  18
HETATM   18  O   UNL     1       6.564  25.744  51.223  1.00  0.00    -0.389 OA
HETATM   19  H   UNL     1       6.627  24.766  51.264  1.00  0.00     0.210 HD
ENDBRANCH  17  18
BRANCH  17  20
HETATM   20  C   UNL     1       4.701  26.644  49.955  1.00  0.00    -0.025 A 
HETATM   21  C   UNL     1       4.831  28.030  49.738  1.00  0.00     0.046 A 
HETATM   22  C   UNL     1       4.454  28.602  48.521  1.00  0.00     0.068 A 
HETATM   23  C   UNL     1       3.961  27.784  47.505  1.00  0.00     0.037 A 
HETATM   24  C   UNL     1       3.814  26.414  47.706  1.00  0.00     0.003 A 
HETATM   25  C   UNL     1       4.177  25.845  48.925  1.00  0.00     0.010 A 
BRANCH  22  26
HETATM   26  O   UNL     1       4.542  29.926  48.198  1.00  0.00    -0.356 OA
HETATM   27  C   UNL     1       4.529  30.261  46.815  1.00  0.00     0.210 C 
ENDBRANCH  22  26
ENDBRANCH  17  20
ENDBRANCH  16  17
ENDBRANCH   1  16
TORSDOF 8
ENDMDL
MODEL 10
REMARK VINA RESULT:      -7.9      3.039      8.909
REMARK  8 active torsions:
REMARK  status: ('A' for Active; 'I' for Inactive)
REMARK    1  A    between atoms: C_2  and  N_3 
REMARK    2  A    between atoms: C_2  and  C_17 
REMARK    3  A    between atoms: N_3  and  C_6 
REMARK    4  A    between atoms: C_6  and  C_7 
REMARK    5  A    between atoms: C_7  and  O_8 
REMARK    6  A    between atoms: C_7  and  C_9 
REMARK    7  A    between atoms: C_11  and  O_12 
REMARK    8  A    between atoms: C_17  and  C_18 
ROOT
HETATM    1  N   UNL     1       6.295  27.019  56.653  1.00  0.00    -0.068 N 
HETATM    2  H   UNL     1       6.397  26.640  57.605  1.00  0.00     0.277 HD
HETATM    3  H   UNL     1       5.366  26.686  56.337  1.00  0.00     0.277 HD
ENDROOT
BRANCH   1   4
HETATM    4  C   UNL     1       6.379  28.525  56.700  1.00  0.00     0.188 C 
HETATM    5  C   UNL     1       5.973  29.030  55.312  1.00  0.00     0.040 C 
BRANCH   4   6
HETATM    6  C   UNL     1       7.800  28.980  57.081  1.00  0.00     0.099 C 
BRANCH   6   7
HETATM    7  C   UNL     1       7.785  29.865  58.290  1.00  0.00     0.078 A 
HETATM    8  S   UNL     1       6.643  31.135  58.417  1.00  0.00    -0.073 SA
HETATM    9  C   UNL     1       7.309  31.581  59.941  1.00  0.00     0.035 A 
HETATM   10  C   UNL     1       8.367  30.720  60.244  1.00  0.00     0.074 A 
HETATM   11  C   UNL     1       6.925  32.617  60.808  1.00  0.00     0.021 A 
HETATM   12  N   UNL     1       8.632  29.749  59.286  1.00  0.00    -0.245 NA
HETATM   13  C   UNL     1       9.062  30.897  61.457  1.00  0.00     0.033 A 
HETATM   14  C   UNL     1       8.684  31.925  62.329  1.00  0.00     0.002 A 
HETATM   15  C   UNL     1       7.630  32.773  62.005  1.00  0.00     0.002 A 
ENDBRANCH   6   7
ENDBRANCH   4   6
ENDBRANCH   1   4
BRANCH   1  16
HETATM   16  C   UNL     1       7.309  26.304  55.787  1.00  0.00     0.269 C 
BRANCH  16  17
HETATM   17  C   UNL     1       6.556  25.609  54.630  1.00  0.00     0.177 C 
BRANCH  17  18
HETATM   18  O   UNL     1       5.172  25.550  55.011  1.00  0.00    -0.389 OA
HETATM   19  H   UNL     1       4.726  24.998  54.336  1.00  0.00     0.210 HD
ENDBRANCH  17  18
BRANCH  17  20
HETATM   20  C   UNL     1       7.097  24.222  54.359  1.00  0.00    -0.025 A 
HETATM   21  C   UNL     1       7.173  23.296  55.418  1.00  0.00     0.046 A 
HETATM   22  C   UNL     1       7.627  21.994  55.198  1.00  0.00     0.068 A 
HETATM   23  C   UNL     1       7.991  21.606  53.909  1.00  0.00     0.037 A 
HETATM   24  C   UNL     1       7.933  22.511  52.852  1.00  0.00     0.003 A 
HETATM   25  C   UNL     1       7.493  23.814  53.074  1.00  0.00     0.010 A 
BRANCH  22  26
HETATM   26  O   UNL     1       7.736  21.014  56.143  1.00  0.00    -0.356 OA
HETATM   27  C   UNL     1       9.040  20.518  56.419  1.00  0.00     0.210 C 
ENDBRANCH  22  26
ENDBRANCH  17  20
ENDBRANCH  16  17
ENDBRANCH   1  16
TORSDOF 8
ENDMDL
