MODEL 1
REMARK VINA RESULT:      -9.1      0.000      0.000
REMARK  7 active torsions:
REMARK  status: ('A' for Active; 'I' for Inactive)
REMARK    1  A    between atoms: O_2  and  C_3 
REMARK    2  A    between atoms: C_3  and  C_4 
REMARK    3  A    between atoms: C_4  and  N_5 
REMARK    4  A    between atoms: C_4  and  C_21 
REMARK    5  A    between atoms: N_5  and  C_6 
REMARK    6  A    between atoms: C_21  and  C_22 
REMARK    7  A    between atoms: C_25  and  O_26 
ROOT
HETATM    1  N   UNL     1       5.763  25.777  55.836  1.00  0.00    -0.277 NA
HETATM    2  H   UNL     1       5.392  25.901  56.785  1.00  0.00     0.128 HD
ENDROOT
BRANCH   1   3
HETATM    3  C   UNL     1       7.210  25.428  55.911  1.00  0.00     0.164 C 
BRANCH   3   4
HETATM    4  C   UNL     1       7.943  26.315  56.938  1.00  0.00     0.276 C 
HETATM    5  O   UNL     1       8.104  26.012  58.112  1.00  0.00    -0.263 OA
BRANCH   4   6
HETATM    6  O   UNL     1       8.395  27.466  56.356  1.00  0.00    -0.325 OA
HETATM    7  C   UNL     1       8.744  28.497  57.283  1.00  0.00     0.213 C 
ENDBRANCH   4   6
ENDBRANCH   3   4
BRANCH   3   8
HETATM    8  C   UNL     1       7.392  23.985  56.422  1.00  0.00     0.068 C 
BRANCH   8   9
HETATM    9  C   UNL     1       7.568  22.929  55.357  1.00  0.00    -0.056 A 
HETATM   10  C   UNL     1       7.716  23.280  54.007  1.00  0.00     0.010 A 
HETATM   11  C   UNL     1       7.937  22.298  53.038  1.00  0.00     0.037 A 
HETATM   12  C   UNL     1       8.011  20.963  53.420  1.00  0.00     0.065 A 
HETATM   13  C   UNL     1       7.869  20.595  54.751  1.00  0.00     0.037 A 
HETATM   14  C   UNL     1       7.657  21.576  55.719  1.00  0.00     0.010 A 
BRANCH  12  15
HETATM   15  O   UNL     1       8.234  19.972  52.510  1.00  0.00    -0.361 OA
HETATM   16  H   UNL     1       7.441  19.414  52.455  1.00  0.00     0.217 HD
ENDBRANCH  12  15
ENDBRANCH   8   9
ENDBRANCH   3   8
ENDBRANCH   1   3
BRANCH   1  17
HETATM   17  C   UNL     1       5.225  26.742  54.965  1.00  0.00     0.034 A 
HETATM   18  C   UNL     1       4.976  28.026  55.541  1.00  0.00     0.013 A 
HETATM   19  C   UNL     1       4.610  29.100  54.707  1.00  0.00     0.044 A 
HETATM   20  C   UNL     1       5.064  28.298  56.925  1.00  0.00     0.015 A 
HETATM   21  C   UNL     1       4.359  30.380  55.229  1.00  0.00     0.030 A 
HETATM   22  N   UNL     1       4.516  28.899  53.388  1.00  0.00    -0.355 N 
HETATM   23  C   UNL     1       4.458  30.612  56.598  1.00  0.00     0.002 A 
HETATM   24  C   UNL     1       4.804  29.569  57.446  1.00  0.00     0.001 A 
HETATM   25  H   UNL     1       4.260  29.694  52.809  1.00  0.00     0.166 HD
HETATM   26  C   UNL     1       4.756  27.730  52.778  1.00  0.00     0.044 A 
HETATM   27  C   UNL     1       5.125  26.595  53.542  1.00  0.00     0.013 A 
HETATM   28  C   UNL     1       4.655  27.683  51.373  1.00  0.00     0.030 A 
HETATM   29  C   UNL     1       5.382  25.421  52.789  1.00  0.00     0.015 A 
HETATM   30  C   UNL     1       5.273  25.374  51.394  1.00  0.00     0.001 A 
HETATM   31  C   UNL     1       4.913  26.505  50.683  1.00  0.00     0.002 A 
ENDBRANCH   1  17
TORSDOF 7
ENDMDL
MODEL 2
REMARK VINA RESULT:      -9.0      2.006      4.046
REMARK  7 active torsions:
REMARK  status: ('A' for Active; 'I' for Inactive)
REMARK    1  A    between atoms: O_2  and  C_3 
REMARK    2  A    between atoms: C_3  and  C_4 
REMARK    3  A    between atoms: C_4  and  N_5 
REMARK    4  A    between atoms: C_4  and  C_21 
REMARK    5  A    between atoms: N_5  and  C_6 
REMARK    6  A    between atoms: C_21  and  C_22 
REMARK    7  A    between atoms: C_25  and  O_26 
ROOT
HETATM    1  N   UNL     1       7.511  26.885  53.595  1.00  0.00    -0.277 NA
HETATM    2  H   UNL     1       7.389  26.895  52.576  1.00  0.00     0.128 HD
ENDROOT
BRANCH   1   3
HETATM    3  C   UNL     1       7.370  25.489  54.098  1.00  0.00     0.164 C 
BRANCH   3   4
HETATM    4  C   UNL     1       5.887  25.115  54.292  1.00  0.00     0.276 C 
HETATM    5  O   UNL     1       5.162  24.706  53.396  1.00  0.00    -0.263 OA
BRANCH   4   6
HETATM    6  O   UNL     1       5.504  25.290  55.593  1.00  0.00    -0.325 OA
HETATM    7  C   UNL     1       6.480  24.876  56.553  1.00  0.00     0.213 C 
ENDBRANCH   4   6
ENDBRANCH   3   4
BRANCH   3   8
HETATM    8  C   UNL     1       7.907  24.484  53.060  1.00  0.00     0.068 C 
BRANCH   8   9
HETATM    9  C   UNL     1       8.154  23.084  53.569  1.00  0.00    -0.056 A 
HETATM   10  C   UNL     1       7.764  21.963  52.823  1.00  0.00     0.010 A 
HETATM   11  C   UNL     1       8.050  20.672  53.277  1.00  0.00     0.037 A 
HETATM   12  C   UNL     1       8.730  20.504  54.478  1.00  0.00     0.065 A 
HETATM   13  C   UNL     1       9.126  21.601  55.231  1.00  0.00     0.037 A 
HETATM   14  C   UNL     1       8.847  22.889  54.774  1.00  0.00     0.010 A 
BRANCH  12  15
HETATM   15  O   UNL     1       9.039  19.265  54.955  1.00  0.00    -0.361 OA
HETATM   16  H   UNL     1       9.856  18.960  54.527  1.00  0.00     0.217 HD
ENDBRANCH  12  15
ENDBRANCH   8   9
ENDBRANCH   3   8
ENDBRANCH   1   3
BRANCH   1  17
HETATM   17  C   UNL     1       6.887  28.003  54.179  1.00  0.00     0.034 A 
HETATM   18  C   UNL     1       5.729  28.492  53.498  1.00  0.00     0.013 A 
HETATM   19  C   UNL     1       4.939  29.488  54.103  1.00  0.00     0.044 A 
HETATM   20  C   UNL     1       5.316  28.039  52.225  1.00  0.00     0.015 A 
HETATM   21  C   UNL     1       3.789  29.994  53.472  1.00  0.00     0.030 A 
HETATM   22  N   UNL     1       5.282  29.950  55.310  1.00  0.00    -0.355 N 
HETATM   23  C   UNL     1       3.410  29.523  52.218  1.00  0.00     0.002 A 
HETATM   24  C   UNL     1       4.177  28.550  51.593  1.00  0.00     0.001 A 
HETATM   25  H   UNL     1       4.688  30.661  55.728  1.00  0.00     0.166 HD
HETATM   26  C   UNL     1       6.340  29.524  56.014  1.00  0.00     0.044 A 
HETATM   27  C   UNL     1       7.192  28.526  55.479  1.00  0.00     0.013 A 
HETATM   28  C   UNL     1       6.551  30.077  57.294  1.00  0.00     0.030 A 
HETATM   29  C   UNL     1       8.262  28.132  56.323  1.00  0.00     0.015 A 
HETATM   30  C   UNL     1       8.474  28.689  57.590  1.00  0.00     0.001 A 
HETATM   31  C   UNL     1       7.617  29.660  58.079  1.00  0.00     0.002 A 
ENDBRANCH   1  17
TORSDOF 7
ENDMDL
MODEL 3
REMARK VINA RESULT:      -9.0      0.247      3.566
REMARK  7 active torsions:
REMARK  status: ('A' for Active; 'I' for Inactive)
REMARK    1  A    between atoms: O_2  and  C_3 
REMARK    2  A    between atoms: C_3  and  C_4 
REMARK    3  A    between atoms: C_4  and  N_5 
REMARK    4  A    between atoms: C_4  and  C_21 
REMARK    5  A    between atoms: N_5  and  C_6 
REMARK    6  A    between atoms: C_21  and  C_22 
REMARK    7  A    between atoms: C_25  and  O_26 
ROOT
HETATM    1  N   UNL     1       5.757  25.860  55.547  1.00  0.00    -0.277 NA
HETATM    2  H   UNL     1       5.211  25.780  56.413  1.00  0.00     0.128 HD
ENDROOT
BRANCH   1   3
HETATM    3  C   UNL     1       7.164  25.443  55.807  1.00  0.00     0.164 C 
BRANCH   3   4
HETATM    4  C   UNL     1       7.809  26.320  56.900  1.00  0.00     0.276 C 
HETATM    5  O   UNL     1       7.864  26.012  58.081  1.00  0.00    -0.263 OA
BRANCH   4   6
HETATM    6  O   UNL     1       8.318  27.472  56.365  1.00  0.00    -0.325 OA
HETATM    7  C   UNL     1       8.642  28.476  57.330  1.00  0.00     0.213 C 
ENDBRANCH   4   6
ENDBRANCH   3   4
BRANCH   3   8
HETATM    8  C   UNL     1       7.208  24.008  56.366  1.00  0.00     0.068 C 
BRANCH   8   9
HETATM    9  C   UNL     1       7.531  22.924  55.365  1.00  0.00    -0.056 A 
HETATM   10  C   UNL     1       7.684  21.589  55.768  1.00  0.00     0.010 A 
HETATM   11  C   UNL     1       7.926  20.586  54.825  1.00  0.00     0.037 A 
HETATM   12  C   UNL     1       8.013  20.919  53.478  1.00  0.00     0.065 A 
HETATM   13  C   UNL     1       7.863  22.234  53.059  1.00  0.00     0.037 A 
HETATM   14  C   UNL     1       7.614  23.234  53.999  1.00  0.00     0.010 A 
BRANCH  12  15
HETATM   15  O   UNL     1       8.238  19.974  52.522  1.00  0.00    -0.361 OA
HETATM   16  H   UNL     1       8.758  19.251  52.912  1.00  0.00     0.217 HD
ENDBRANCH  12  15
ENDBRANCH   8   9
ENDBRANCH   3   8
ENDBRANCH   1   3
BRANCH   1  17
HETATM   17  C   UNL     1       5.392  27.020  54.838  1.00  0.00     0.034 A 
HETATM   18  C   UNL     1       5.249  26.861  53.425  1.00  0.00     0.013 A 
HETATM   19  C   UNL     1       4.714  27.915  52.660  1.00  0.00     0.044 A 
HETATM   20  C   UNL     1       5.623  25.694  52.722  1.00  0.00     0.015 A 
HETATM   21  C   UNL     1       4.551  27.802  51.269  1.00  0.00     0.030 A 
HETATM   22  N   UNL     1       4.339  29.043  53.275  1.00  0.00    -0.355 N 
HETATM   23  C   UNL     1       4.928  26.636  50.610  1.00  0.00     0.002 A 
HETATM   24  C   UNL     1       5.470  25.584  51.336  1.00  0.00     0.001 A 
HETATM   25  H   UNL     1       3.947  29.784  52.700  1.00  0.00     0.166 HD
HETATM   26  C   UNL     1       4.425  29.252  54.596  1.00  0.00     0.044 A 
HETATM   27  C   UNL     1       4.956  28.245  55.440  1.00  0.00     0.013 A 
HETATM   28  C   UNL     1       3.951  30.479  55.105  1.00  0.00     0.030 A 
HETATM   29  C   UNL     1       4.972  28.565  56.822  1.00  0.00     0.015 A 
HETATM   30  C   UNL     1       4.508  29.787  57.324  1.00  0.00     0.001 A 
HETATM   31  C   UNL     1       3.994  30.745  56.468  1.00  0.00     0.002 A 
ENDBRANCH   1  17
TORSDOF 7
ENDMDL
MODEL 4
REMARK VINA RESULT:      -8.8      2.033      4.128
REMARK  7 active torsions:
REMARK  status: ('A' for Active; 'I' for Inactive)
REMARK    1  A    between atoms: O_2  and  C_3 
REMARK    2  A    between atoms: C_3  and  C_4 
REMARK    3  A    between atoms: C_4  and  N_5 
REMARK    4  A    between atoms: C_4  and  C_21 
REMARK    5  A    between atoms: N_5  and  C_6 
REMARK    6  A    between atoms: C_21  and  C_22 
REMARK    7  A    between atoms: C_25  and  O_26 
ROOT
HETATM    1  N   UNL     1       4.993  25.825  54.445  1.00  0.00    -0.277 NA
HETATM    2  H   UNL     1       4.705  25.373  55.321  1.00  0.00     0.128 HD
ENDROOT
BRANCH   1   3
HETATM    3  C   UNL     1       5.741  24.847  53.605  1.00  0.00     0.164 C 
BRANCH   3   4
HETATM    4  C   UNL     1       5.989  25.409  52.190  1.00  0.00     0.276 C 
HETATM    5  O   UNL     1       7.042  25.916  51.830  1.00  0.00    -0.263 OA
BRANCH   4   6
HETATM    6  O   UNL     1       4.885  25.248  51.399  1.00  0.00    -0.325 OA
HETATM    7  C   UNL     1       4.876  26.067  50.227  1.00  0.00     0.213 C 
ENDBRANCH   4   6
ENDBRANCH   3   4
BRANCH   3   8
HETATM    8  C   UNL     1       7.144  24.593  54.189  1.00  0.00     0.068 C 
BRANCH   8   9
HETATM    9  C   UNL     1       7.567  23.145  54.274  1.00  0.00    -0.056 A 
HETATM   10  C   UNL     1       7.918  22.426  53.123  1.00  0.00     0.010 A 
HETATM   11  C   UNL     1       8.364  21.105  53.220  1.00  0.00     0.037 A 
HETATM   12  C   UNL     1       8.459  20.504  54.470  1.00  0.00     0.065 A 
HETATM   13  C   UNL     1       8.116  21.200  55.621  1.00  0.00     0.037 A 
HETATM   14  C   UNL     1       7.680  22.521  55.526  1.00  0.00     0.010 A 
BRANCH  12  15
HETATM   15  O   UNL     1       8.897  19.221  54.614  1.00  0.00    -0.361 OA
HETATM   16  H   UNL     1       8.891  18.992  55.558  1.00  0.00     0.217 HD
ENDBRANCH  12  15
ENDBRANCH   8   9
ENDBRANCH   3   8
ENDBRANCH   1   3
BRANCH   1  17
HETATM   17  C   UNL     1       5.413  27.147  54.685  1.00  0.00     0.034 A 
HETATM   18  C   UNL     1       4.666  28.164  54.015  1.00  0.00     0.013 A 
HETATM   19  C   UNL     1       4.896  29.516  54.333  1.00  0.00     0.044 A 
HETATM   20  C   UNL     1       3.693  27.903  53.023  1.00  0.00     0.015 A 
HETATM   21  C   UNL     1       4.181  30.550  53.703  1.00  0.00     0.030 A 
HETATM   22  N   UNL     1       5.802  29.821  55.269  1.00  0.00    -0.355 N 
HETATM   23  C   UNL     1       3.229  30.254  52.732  1.00  0.00     0.002 A 
HETATM   24  C   UNL     1       2.989  28.931  52.389  1.00  0.00     0.001 A 
HETATM   25  H   UNL     1       5.941  30.804  55.486  1.00  0.00     0.166 HD
HETATM   26  C   UNL     1       6.523  28.920  55.951  1.00  0.00     0.044 A 
HETATM   27  C   UNL     1       6.358  27.537  55.690  1.00  0.00     0.013 A 
HETATM   28  C   UNL     1       7.413  29.393  56.937  1.00  0.00     0.030 A 
HETATM   29  C   UNL     1       7.150  26.675  56.491  1.00  0.00     0.015 A 
HETATM   30  C   UNL     1       8.040  27.147  57.464  1.00  0.00     0.001 A 
HETATM   31  C   UNL     1       8.170  28.506  57.692  1.00  0.00     0.002 A 
ENDBRANCH   1  17
TORSDOF 7
ENDMDL
MODEL 5
REMARK VINA RESULT:      -8.5      2.720      6.161
REMARK  7 active torsions:
REMARK  status: ('A' for Active; 'I' for Inactive)
REMARK    1  A    between atoms: O_2  and  C_3 
REMARK    2  A    between atoms: C_3  and  C_4 
REMARK    3  A    between atoms: C_4  and  N_5 
REMARK    4  A    between atoms: C_4  and  C_21 
REMARK    5  A    between atoms: N_5  and  C_6 
REMARK    6  A    between atoms: C_21  and  C_22 
REMARK    7  A    between atoms: C_25  and  O_26 
ROOT
HETATM    1  N   UNL     1       5.201  26.908  55.458  1.00  0.00    -0.277 NA
HETATM    2  H   UNL     1       4.207  27.166  55.464  1.00  0.00     0.128 HD
ENDROOT
BRANCH   1   3
HETATM    3  C   UNL     1       6.022  28.088  55.854  1.00  0.00     0.164 C 
BRANCH   3   4
HETATM    4  C   UNL     1       5.128  29.249  56.337  1.00  0.00     0.276 C 
HETATM    5  O   UNL     1       4.626  29.308  57.450  1.00  0.00    -0.263 OA
BRANCH   4   6
HETATM    6  O   UNL     1       4.990  30.198  55.362  1.00  0.00    -0.325 OA
HETATM    7  C   UNL     1       3.648  30.649  55.166  1.00  0.00     0.213 C 
ENDBRANCH   4   6
ENDBRANCH   3   4
BRANCH   3   8
HETATM    8  C   UNL     1       6.919  27.742  57.059  1.00  0.00     0.068 C 
BRANCH   8   9
HETATM    9  C   UNL     1       8.044  28.711  57.338  1.00  0.00    -0.056 A 
HETATM   10  C   UNL     1       9.078  28.904  56.411  1.00  0.00     0.010 A 
HETATM   11  C   UNL     1      10.083  29.845  56.654  1.00  0.00     0.037 A 
HETATM   12  C   UNL     1      10.050  30.595  57.825  1.00  0.00     0.065 A 
HETATM   13  C   UNL     1       9.034  30.419  58.754  1.00  0.00     0.037 A 
HETATM   14  C   UNL     1       8.027  29.486  58.508  1.00  0.00     0.010 A 
BRANCH  12  15
HETATM   15  O   UNL     1      11.003  31.531  58.100  1.00  0.00    -0.361 OA
HETATM   16  H   UNL     1      11.880  31.131  57.975  1.00  0.00     0.217 HD
ENDBRANCH  12  15
ENDBRANCH   8   9
ENDBRANCH   3   8
ENDBRANCH   1   3
BRANCH   1  17
HETATM   17  C   UNL     1       5.490  26.074  54.362  1.00  0.00     0.034 A 
HETATM   18  C   UNL     1       5.136  26.594  53.079  1.00  0.00     0.013 A 
HETATM   19  C   UNL     1       5.548  25.913  51.918  1.00  0.00     0.044 A 
HETATM   20  C   UNL     1       4.373  27.768  52.888  1.00  0.00     0.015 A 
HETATM   21  C   UNL     1       5.227  26.389  50.635  1.00  0.00     0.030 A 
HETATM   22  N   UNL     1       6.277  24.798  52.040  1.00  0.00    -0.355 N 
HETATM   23  C   UNL     1       4.475  27.551  50.486  1.00  0.00     0.002 A 
HETATM   24  C   UNL     1       4.044  28.237  51.613  1.00  0.00     0.001 A 
HETATM   25  H   UNL     1       6.570  24.332  51.185  1.00  0.00     0.166 HD
HETATM   26  C   UNL     1       6.663  24.266  53.208  1.00  0.00     0.044 A 
HETATM   27  C   UNL     1       6.287  24.884  54.426  1.00  0.00     0.013 A 
HETATM   28  C   UNL     1       7.464  23.107  53.176  1.00  0.00     0.030 A 
HETATM   29  C   UNL     1       6.776  24.252  55.598  1.00  0.00     0.015 A 
HETATM   30  C   UNL     1       7.565  23.095  55.564  1.00  0.00     0.001 A 
HETATM   31  C   UNL     1       7.914  22.523  54.353  1.00  0.00     0.002 A 
ENDBRANCH   1  17
TORSDOF 7
ENDMDL
MODEL 6
REMARK VINA RESULT:      -8.4      3.172      6.143
REMARK  7 active torsions:
REMARK  status: ('A' for Active; 'I' for Inactive)
REMARK    1  A    between atoms: O_2  and  C_3 
REMARK    2  A    between atoms: C_3  and  C_4 
REMARK    3  A    between atoms: C_4  and  N_5 
REMARK    4  A    between atoms: C_4  and  C_21 
REMARK    5  A    between atoms: N_5  and  C_6 
REMARK    6  A    between atoms: C_21  and  C_22 
REMARK    7  A    between atoms: C_25  and  O_26 
ROOT
HETATM    1  N   UNL     1       6.622  28.404  52.879  1.00  0.00    -0.277 NA
HETATM    2  H   UNL     1       6.625  29.356  53.262  1.00  0.00     0.128 HD
ENDROOT
BRANCH   1   3
HETATM    3  C   UNL     1       5.371  28.187  52.099  1.00  0.00     0.164 C 
BRANCH   3   4
HETATM    4  C   UNL     1       4.171  28.889  52.767  1.00  0.00     0.276 C 
HETATM    5  O   UNL     1       3.179  28.305  53.179  1.00  0.00    -0.263 OA
BRANCH   4   6
HETATM    6  O   UNL     1       4.377  30.239  52.846  1.00  0.00    -0.325 OA
HETATM    7  C   UNL     1       3.728  30.869  53.954  1.00  0.00     0.213 C 
ENDBRANCH   4   6
ENDBRANCH   3   4
BRANCH   3   8
HETATM    8  C   UNL     1       5.487  28.830  50.703  1.00  0.00     0.068 C 
BRANCH   8   9
HETATM    9  C   UNL     1       4.835  28.066  49.573  1.00  0.00    -0.056 A 
HETATM   10  C   UNL     1       4.633  26.682  49.658  1.00  0.00     0.010 A 
HETATM   11  C   UNL     1       3.977  25.995  48.633  1.00  0.00     0.037 A 
HETATM   12  C   UNL     1       3.522  26.697  47.522  1.00  0.00     0.065 A 
HETATM   13  C   UNL     1       3.711  28.068  47.420  1.00  0.00     0.037 A 
HETATM   14  C   UNL     1       4.358  28.754  48.447  1.00  0.00     0.010 A 
BRANCH  12  15
HETATM   15  O   UNL     1       2.868  26.071  46.502  1.00  0.00    -0.361 OA
HETATM   16  H   UNL     1       3.110  25.130  46.506  1.00  0.00     0.217 HD
ENDBRANCH  12  15
ENDBRANCH   8   9
ENDBRANCH   3   8
ENDBRANCH   1   3
BRANCH   1  17
HETATM   17  C   UNL     1       7.139  27.491  53.817  1.00  0.00     0.034 A 
HETATM   18  C   UNL     1       7.143  27.935  55.176  1.00  0.00     0.013 A 
HETATM   19  C   UNL     1       7.472  27.028  56.200  1.00  0.00     0.044 A 
HETATM   20  C   UNL     1       6.843  29.258  55.572  1.00  0.00     0.015 A 
HETATM   21  C   UNL     1       7.485  27.419  57.550  1.00  0.00     0.030 A 
HETATM   22  N   UNL     1       7.761  25.761  55.882  1.00  0.00    -0.355 N 
HETATM   23  C   UNL     1       7.181  28.731  57.904  1.00  0.00     0.002 A 
HETATM   24  C   UNL     1       6.866  29.651  56.914  1.00  0.00     0.001 A 
HETATM   25  H   UNL     1       7.984  25.124  56.643  1.00  0.00     0.166 HD
HETATM   26  C   UNL     1       7.755  25.271  54.635  1.00  0.00     0.044 A 
HETATM   27  C   UNL     1       7.440  26.116  53.543  1.00  0.00     0.013 A 
HETATM   28  C   UNL     1       8.042  23.901  54.460  1.00  0.00     0.030 A 
HETATM   29  C   UNL     1       7.437  25.483  52.273  1.00  0.00     0.015 A 
HETATM   30  C   UNL     1       7.730  24.125  52.101  1.00  0.00     0.001 A 
HETATM   31  C   UNL     1       8.030  23.331  53.193  1.00  0.00     0.002 A 
ENDBRANCH   1  17
TORSDOF 7
ENDMDL
MODEL 7
REMARK VINA RESULT:      -8.4      9.176     13.723
REMARK  7 active torsions:
REMARK  status: ('A' for Active; 'I' for Inactive)
REMARK    1  A    between atoms: O_2  and  C_3 
REMARK    2  A    between atoms: C_3  and  C_4 
REMARK    3  A    between atoms: C_4  and  N_5 
REMARK    4  A    between atoms: C_4  and  C_21 
REMARK    5  A    between atoms: N_5  and  C_6 
REMARK    6  A    between atoms: C_21  and  C_22 
REMARK    7  A    between atoms: C_25  and  O_26 
ROOT
HETATM    1  N   UNL     1       3.937  33.125  62.466  1.00  0.00    -0.277 NA
HETATM    2  H   UNL     1       3.663  32.208  62.096  1.00  0.00     0.128 HD
ENDROOT
BRANCH   1   3
HETATM    3  C   UNL     1       3.649  34.176  61.449  1.00  0.00     0.164 C 
BRANCH   3   4
HETATM    4  C   UNL     1       2.546  33.718  60.474  1.00  0.00     0.276 C 
HETATM    5  O   UNL     1       1.411  34.173  60.461  1.00  0.00    -0.263 OA
BRANCH   4   6
HETATM    6  O   UNL     1       3.013  32.751  59.627  1.00  0.00    -0.325 OA
HETATM    7  C   UNL     1       3.698  33.257  58.478  1.00  0.00     0.213 C 
ENDBRANCH   4   6
ENDBRANCH   3   4
BRANCH   3   8
HETATM    8  C   UNL     1       3.089  35.443  62.125  1.00  0.00     0.068 C 
BRANCH   8   9
HETATM    9  C   UNL     1       4.118  36.424  62.636  1.00  0.00    -0.056 A 
HETATM   10  C   UNL     1       4.137  36.816  63.982  1.00  0.00     0.010 A 
HETATM   11  C   UNL     1       5.129  37.678  64.457  1.00  0.00     0.037 A 
HETATM   12  C   UNL     1       6.104  38.148  63.582  1.00  0.00     0.065 A 
HETATM   13  C   UNL     1       6.102  37.770  62.247  1.00  0.00     0.037 A 
HETATM   14  C   UNL     1       5.117  36.903  61.775  1.00  0.00     0.010 A 
BRANCH  12  15
HETATM   15  O   UNL     1       7.096  38.983  64.002  1.00  0.00    -0.361 OA
HETATM   16  H   UNL     1       7.785  39.018  63.318  1.00  0.00     0.217 HD
ENDBRANCH  12  15
ENDBRANCH   8   9
ENDBRANCH   3   8
ENDBRANCH   1   3
BRANCH   1  17
HETATM   17  C   UNL     1       5.142  33.029  63.187  1.00  0.00     0.034 A 
HETATM   18  C   UNL     1       6.297  32.686  62.418  1.00  0.00     0.013 A 
HETATM   19  C   UNL     1       7.570  32.744  63.017  1.00  0.00     0.044 A 
HETATM   20  C   UNL     1       6.249  32.274  61.068  1.00  0.00     0.015 A 
HETATM   21  C   UNL     1       8.733  32.420  62.299  1.00  0.00     0.030 A 
HETATM   22  N   UNL     1       7.673  33.132  64.293  1.00  0.00    -0.355 N 
HETATM   23  C   UNL     1       8.649  32.019  60.968  1.00  0.00     0.002 A 
HETATM   24  C   UNL     1       7.406  31.941  60.355  1.00  0.00     0.001 A 
HETATM   25  H   UNL     1       8.605  33.175  64.697  1.00  0.00     0.166 HD
HETATM   26  C   UNL     1       6.637  33.488  65.066  1.00  0.00     0.044 A 
HETATM   27  C   UNL     1       5.320  33.455  64.544  1.00  0.00     0.013 A 
HETATM   28  C   UNL     1       6.908  33.914  66.382  1.00  0.00     0.030 A 
HETATM   29  C   UNL     1       4.307  33.880  65.441  1.00  0.00     0.015 A 
HETATM   30  C   UNL     1       4.577  34.295  66.751  1.00  0.00     0.001 A 
HETATM   31  C   UNL     1       5.878  34.317  67.223  1.00  0.00     0.002 A 
ENDBRANCH   1  17
TORSDOF 7
ENDMDL
MODEL 8
REMARK VINA RESULT:      -8.3      3.064      6.911
REMARK  7 active torsions:
REMARK  status: ('A' for Active; 'I' for Inactive)
REMARK    1  A    between atoms: O_2  and  C_3 
REMARK    2  A    between atoms: C_3  and  C_4 
REMARK    3  A    between atoms: C_4  and  N_5 
REMARK    4  A    between atoms: C_4  and  C_21 
REMARK    5  A    between atoms: N_5  and  C_6 
REMARK    6  A    between atoms: C_21  and  C_22 
REMARK    7  A    between atoms: C_25  and  O_26 
ROOT
HETATM    1  N   UNL     1       6.791  27.325  52.682  1.00  0.00    -0.277 NA
HETATM    2  H   UNL     1       7.224  28.256  52.672  1.00  0.00     0.128 HD
ENDROOT
BRANCH   1   3
HETATM    3  C   UNL     1       5.468  27.385  51.998  1.00  0.00     0.164 C 
BRANCH   3   4
HETATM    4  C   UNL     1       4.467  28.240  52.802  1.00  0.00     0.276 C 
HETATM    5  O   UNL     1       3.545  27.778  53.459  1.00  0.00    -0.263 OA
BRANCH   4   6
HETATM    6  O   UNL     1       4.761  29.571  52.690  1.00  0.00    -0.325 OA
HETATM    7  C   UNL     1       3.778  30.441  53.259  1.00  0.00     0.213 C 
ENDBRANCH   4   6
ENDBRANCH   3   4
BRANCH   3   8
HETATM    8  C   UNL     1       5.596  28.092  50.634  1.00  0.00     0.068 C 
BRANCH   8   9
HETATM    9  C   UNL     1       4.787  27.493  49.507  1.00  0.00    -0.056 A 
HETATM   10  C   UNL     1       4.521  28.224  48.341  1.00  0.00     0.010 A 
HETATM   11  C   UNL     1       3.822  27.640  47.281  1.00  0.00     0.037 A 
HETATM   12  C   UNL     1       3.391  26.322  47.388  1.00  0.00     0.065 A 
HETATM   13  C   UNL     1       3.646  25.582  48.534  1.00  0.00     0.037 A 
HETATM   14  C   UNL     1       4.351  26.162  49.589  1.00  0.00     0.010 A 
BRANCH  12  15
HETATM   15  O   UNL     1       2.714  25.708  46.377  1.00  0.00    -0.361 OA
HETATM   16  H   UNL     1       3.079  26.010  45.528  1.00  0.00     0.217 HD
ENDBRANCH  12  15
ENDBRANCH   8   9
ENDBRANCH   3   8
ENDBRANCH   1   3
BRANCH   1  17
HETATM   17  C   UNL     1       7.017  26.687  53.916  1.00  0.00     0.034 A 
HETATM   18  C   UNL     1       7.393  25.310  53.841  1.00  0.00     0.013 A 
HETATM   19  C   UNL     1       7.813  24.642  55.007  1.00  0.00     0.044 A 
HETATM   20  C   UNL     1       7.365  24.550  52.650  1.00  0.00     0.015 A 
HETATM   21  C   UNL     1       8.196  23.290  54.979  1.00  0.00     0.030 A 
HETATM   22  N   UNL     1       7.863  25.315  56.162  1.00  0.00    -0.355 N 
HETATM   23  C   UNL     1       8.158  22.573  53.787  1.00  0.00     0.002 A 
HETATM   24  C   UNL     1       7.737  23.202  52.624  1.00  0.00     0.001 A 
HETATM   25  H   UNL     1       8.179  24.811  56.986  1.00  0.00     0.166 HD
HETATM   26  C   UNL     1       7.545  26.610  56.301  1.00  0.00     0.044 A 
HETATM   27  C   UNL     1       7.108  27.357  55.180  1.00  0.00     0.013 A 
HETATM   28  C   UNL     1       7.687  27.192  57.577  1.00  0.00     0.030 A 
HETATM   29  C   UNL     1       6.828  28.723  55.439  1.00  0.00     0.015 A 
HETATM   30  C   UNL     1       6.962  29.298  56.709  1.00  0.00     0.001 A 
HETATM   31  C   UNL     1       7.394  28.535  57.779  1.00  0.00     0.002 A 
ENDBRANCH   1  17
TORSDOF 7
ENDMDL
MODEL 9
REMARK VINA RESULT:      -8.3      7.823     12.735
REMARK  7 active torsions:
REMARK  status: ('A' for Active; 'I' for Inactive)
REMARK    1  A    between atoms: O_2  and  C_3 
REMARK    2  A    between atoms: C_3  and  C_4 
REMARK    3  A    between atoms: C_4  and  N_5 
REMARK    4  A    between atoms: C_4  and  C_21 
REMARK    5  A    between atoms: N_5  and  C_6 
REMARK    6  A    between atoms: C_21  and  C_22 
REMARK    7  A    between atoms: C_25  and  O_26 
ROOT
HETATM    1  N   UNL     1       4.593  32.453  61.165  1.00  0.00    -0.277 NA
HETATM    2  H   UNL     1       4.426  31.537  60.733  1.00  0.00     0.128 HD
ENDROOT
BRANCH   1   3
HETATM    3  C   UNL     1       4.220  33.530  60.204  1.00  0.00     0.164 C 
BRANCH   3   4
HETATM    4  C   UNL     1       3.433  32.957  59.007  1.00  0.00     0.276 C 
HETATM    5  O   UNL     1       3.067  33.621  58.048  1.00  0.00    -0.263 OA
BRANCH   4   6
HETATM    6  O   UNL     1       3.219  31.615  59.160  1.00  0.00    -0.325 OA
HETATM    7  C   UNL     1       3.622  30.823  58.041  1.00  0.00     0.213 C 
ENDBRANCH   4   6
ENDBRANCH   3   4
BRANCH   3   8
HETATM    8  C   UNL     1       3.263  34.539  60.869  1.00  0.00     0.068 C 
BRANCH   8   9
HETATM    9  C   UNL     1       3.908  35.541  61.797  1.00  0.00    -0.056 A 
HETATM   10  C   UNL     1       3.240  36.003  62.940  1.00  0.00     0.010 A 
HETATM   11  C   UNL     1       3.869  36.885  63.823  1.00  0.00     0.037 A 
HETATM   12  C   UNL     1       5.169  37.303  63.563  1.00  0.00     0.065 A 
HETATM   13  C   UNL     1       5.848  36.856  62.437  1.00  0.00     0.037 A 
HETATM   14  C   UNL     1       5.223  35.970  61.561  1.00  0.00     0.010 A 
BRANCH  12  15
HETATM   15  O   UNL     1       5.826  38.155  64.400  1.00  0.00    -0.361 OA
HETATM   16  H   UNL     1       5.174  38.603  64.965  1.00  0.00     0.217 HD
ENDBRANCH  12  15
ENDBRANCH   8   9
ENDBRANCH   3   8
ENDBRANCH   1   3
BRANCH   1  17
HETATM   17  C   UNL     1       5.785  32.438  61.913  1.00  0.00     0.034 A 
HETATM   18  C   UNL     1       6.975  32.152  61.175  1.00  0.00     0.013 A 
HETATM   19  C   UNL     1       8.228  32.292  61.801  1.00  0.00     0.044 A 
HETATM   20  C   UNL     1       6.983  31.719  59.830  1.00  0.00     0.015 A 
HETATM   21  C   UNL     1       9.425  32.027  61.113  1.00  0.00     0.030 A 
HETATM   22  N   UNL     1       8.280  32.704  63.073  1.00  0.00    -0.355 N 
HETATM   23  C   UNL     1       9.394  31.604  59.788  1.00  0.00     0.002 A 
HETATM   24  C   UNL     1       8.173  31.445  59.149  1.00  0.00     0.001 A 
HETATM   25  H   UNL     1       9.199  32.806  63.497  1.00  0.00     0.166 HD
HETATM   26  C   UNL     1       7.208  33.009  63.817  1.00  0.00     0.044 A 
HETATM   27  C   UNL     1       5.908  32.891  63.268  1.00  0.00     0.013 A 
HETATM   28  C   UNL     1       7.424  33.468  65.132  1.00  0.00     0.030 A 
HETATM   29  C   UNL     1       4.851  33.269  64.136  1.00  0.00     0.015 A 
HETATM   30  C   UNL     1       5.067  33.717  65.445  1.00  0.00     0.001 A 
HETATM   31  C   UNL     1       6.353  33.822  65.944  1.00  0.00     0.002 A 
ENDBRANCH   1  17
TORSDOF 7
ENDMDL
MODEL 10
REMARK VINA RESULT:      -8.2      1.996      3.630
REMARK  7 active torsions:
REMARK  status: ('A' for Active; 'I' for Inactive)
REMARK    1  A    between atoms: O_2  and  C_3 
REMARK    2  A    between atoms: C_3  and  C_4 
REMARK    3  A    between atoms: C_4  and  N_5 
REMARK    4  A    between atoms: C_4  and  C_21 
REMARK    5  A    between atoms: N_5  and  C_6 
REMARK    6  A    between atoms: C_21  and  C_22 
REMARK    7  A    between atoms: C_25  and  O_26 
ROOT
HETATM    1  N   UNL     1       4.863  25.640  54.411  1.00  0.00    -0.277 NA
HETATM    2  H   UNL     1       4.748  25.089  55.269  1.00  0.00     0.128 HD
ENDROOT
BRANCH   1   3
HETATM    3  C   UNL     1       5.727  24.892  53.453  1.00  0.00     0.164 C 
BRANCH   3   4
HETATM    4  C   UNL     1       5.900  25.674  52.135  1.00  0.00     0.276 C 
HETATM    5  O   UNL     1       6.749  26.534  51.956  1.00  0.00    -0.263 OA
BRANCH   4   6
HETATM    6  O   UNL     1       4.989  25.263  51.201  1.00  0.00    -0.325 OA
HETATM    7  C   UNL     1       4.763  26.203  50.147  1.00  0.00     0.213 C 
ENDBRANCH   4   6
ENDBRANCH   3   4
BRANCH   3   8
HETATM    8  C   UNL     1       7.152  24.737  54.019  1.00  0.00     0.068 C 
BRANCH   8   9
HETATM    9  C   UNL     1       7.639  23.318  54.190  1.00  0.00    -0.056 A 
HETATM   10  C   UNL     1       7.580  22.678  55.437  1.00  0.00     0.010 A 
HETATM   11  C   UNL     1       7.979  21.345  55.570  1.00  0.00     0.037 A 
HETATM   12  C   UNL     1       8.436  20.652  54.455  1.00  0.00     0.065 A 
HETATM   13  C   UNL     1       8.501  21.267  53.212  1.00  0.00     0.037 A 
HETATM   14  C   UNL     1       8.095  22.595  53.077  1.00  0.00     0.010 A 
BRANCH  12  15
HETATM   15  O   UNL     1       8.827  19.348  54.536  1.00  0.00    -0.361 OA
HETATM   16  H   UNL     1       9.247  19.095  53.697  1.00  0.00     0.217 HD
ENDBRANCH  12  15
ENDBRANCH   8   9
ENDBRANCH   3   8
ENDBRANCH   1   3
BRANCH   1  17
HETATM   17  C   UNL     1       5.016  27.005  54.715  1.00  0.00     0.034 A 
HETATM   18  C   UNL     1       6.000  27.313  55.705  1.00  0.00     0.013 A 
HETATM   19  C   UNL     1       6.348  28.656  55.942  1.00  0.00     0.044 A 
HETATM   20  C   UNL     1       6.659  26.338  56.488  1.00  0.00     0.015 A 
HETATM   21  C   UNL     1       7.313  29.004  56.902  1.00  0.00     0.030 A 
HETATM   22  N   UNL     1       5.758  29.619  55.226  1.00  0.00    -0.355 N 
HETATM   23  C   UNL     1       7.944  28.017  57.654  1.00  0.00     0.002 A 
HETATM   24  C   UNL     1       7.612  26.685  57.451  1.00  0.00     0.001 A 
HETATM   25  H   UNL     1       6.035  30.580  55.411  1.00  0.00     0.166 HD
HETATM   26  C   UNL     1       4.844  29.403  54.269  1.00  0.00     0.044 A 
HETATM   27  C   UNL     1       4.432  28.082  53.968  1.00  0.00     0.013 A 
HETATM   28  C   UNL     1       4.340  30.520  53.571  1.00  0.00     0.030 A 
HETATM   29  C   UNL     1       3.483  27.971  52.920  1.00  0.00     0.015 A 
HETATM   30  C   UNL     1       2.978  29.082  52.233  1.00  0.00     0.001 A 
HETATM   31  C   UNL     1       3.408  30.357  52.554  1.00  0.00     0.002 A 
ENDBRANCH   1  17
TORSDOF 7
ENDMDL
