MODEL 1
REMARK VINA RESULT:     -11.0      0.000      0.000
REMARK  6 active torsions:
REMARK  status: ('A' for Active; 'I' for Inactive)
REMARK    1  A    between atoms: C_2  and  N_3 
REMARK    2  A    between atoms: C_11  and  C_12 
REMARK    3  A    between atoms: C_14  and  C_15 
REMARK    4  A    between atoms: C_15  and  O_16 
REMARK    5  A    between atoms: O_16  and  C_17 
REMARK    6  A    between atoms: C_19  and  C_20 
ROOT
HETATM    1  N   UNL     1       6.843  33.577  63.891  1.00  0.00    -0.067 N 
HETATM    2  H   UNL     1       7.435  34.289  63.443  1.00  0.00     0.280 HD
HETATM    3  C   UNL     1       7.629  32.268  63.813  1.00  0.00     0.281 C 
HETATM    4  C   UNL     1       7.744  31.820  62.396  1.00  0.00     0.018 A 
HETATM    5  C   UNL     1       6.954  32.266  61.353  1.00  0.00    -0.023 A 
HETATM    6  C   UNL     1       7.352  31.672  60.112  1.00  0.00     0.073 A 
HETATM    7  C   UNL     1       8.418  30.820  60.273  1.00  0.00     0.088 A 
HETATM    8  N   UNL     1       9.026  30.190  59.249  1.00  0.00    -0.357 N 
HETATM    9  C   UNL     1       8.367  30.111  57.960  1.00  0.00     0.243 C 
HETATM   10  N   UNL     1       7.449  31.209  57.776  1.00  0.00    -0.330 N 
HETATM   11  C   UNL     1       6.825  31.892  58.779  1.00  0.00     0.256 C 
HETATM   12  O   UNL     1       5.897  32.661  58.554  1.00  0.00    -0.267 OA
HETATM   13  S   UNL     1       8.906  30.681  61.896  1.00  0.00    -0.074 SA
HETATM   14  C   UNL     1       5.884  33.295  61.563  1.00  0.00     0.068 C 
HETATM   15  C   UNL     1       5.561  33.490  63.056  1.00  0.00     0.240 C 
HETATM   16  H   UNL     1       9.628  29.392  59.442  1.00  0.00     0.162 HD
HETATM   17  H   UNL     1       7.057  31.343  56.856  1.00  0.00     0.165 HD
ENDROOT
BRANCH   9  18
HETATM   18  C   UNL     1       7.684  28.808  57.693  1.00  0.00     0.095 A 
HETATM   19  O   UNL     1       8.507  27.715  57.640  1.00  0.00    -0.313 OA
HETATM   20  C   UNL     1       7.728  26.625  57.390  1.00  0.00     0.077 A 
HETATM   21  C   UNL     1       6.407  27.009  57.278  1.00  0.00     0.037 A 
HETATM   22  C   UNL     1       6.378  28.411  57.478  1.00  0.00     0.039 A 
BRANCH  20  23
HETATM   23  C   UNL     1       8.424  25.314  57.289  1.00  0.00     0.240 C 
BRANCH  23  24
HETATM   24  O   UNL     1       7.451  24.378  56.828  1.00  0.00    -0.345 OA
BRANCH  24  25
HETATM   25  C   UNL     1       7.626  23.861  55.575  1.00  0.00     0.070 A 
HETATM   26  C   UNL     1       7.816  22.515  55.256  1.00  0.00     0.052 A 
HETATM   27  C   UNL     1       7.983  22.112  53.917  1.00  0.00     0.050 A 
HETATM   28  C   UNL     1       7.960  23.082  52.903  1.00  0.00     0.016 A 
HETATM   29  C   UNL     1       7.772  24.425  53.219  1.00  0.00     0.004 A 
HETATM   30  C   UNL     1       7.607  24.808  54.549  1.00  0.00     0.037 A 
BRANCH  27  31
HETATM   31  C   UNL     1       8.187  20.660  53.559  1.00  0.00     0.417 C 
HETATM   32  F   UNL     1       7.192  20.151  52.778  1.00  0.00    -0.166 F 
HETATM   33  F   UNL     1       9.343  20.450  52.872  1.00  0.00    -0.166 F 
HETATM   34  F   UNL     1       8.249  19.856  54.655  1.00  0.00    -0.166 F 
ENDBRANCH  27  31
ENDBRANCH  24  25
ENDBRANCH  23  24
ENDBRANCH  20  23
ENDBRANCH   9  18
BRANCH   1  35
HETATM   35  C   UNL     1       6.562  34.026  65.302  1.00  0.00     0.231 C 
HETATM   36  C   UNL     1       5.099  33.831  65.657  1.00  0.00     0.034 C 
ENDBRANCH   1  35
TORSDOF 6
ENDMDL
MODEL 2
REMARK VINA RESULT:     -10.8      5.507     10.975
REMARK  6 active torsions:
REMARK  status: ('A' for Active; 'I' for Inactive)
REMARK    1  A    between atoms: C_2  and  N_3 
REMARK    2  A    between atoms: C_11  and  C_12 
REMARK    3  A    between atoms: C_14  and  C_15 
REMARK    4  A    between atoms: C_15  and  O_16 
REMARK    5  A    between atoms: O_16  and  C_17 
REMARK    6  A    between atoms: C_19  and  C_20 
ROOT
HETATM    1  N   UNL     1       7.719  21.785  54.402  1.00  0.00    -0.067 N 
HETATM    2  H   UNL     1       6.708  21.828  54.589  1.00  0.00     0.280 HD
HETATM    3  C   UNL     1       8.405  22.217  55.698  1.00  0.00     0.281 C 
HETATM    4  C   UNL     1       8.137  23.657  55.968  1.00  0.00     0.018 A 
HETATM    5  C   UNL     1       7.687  24.573  55.035  1.00  0.00    -0.023 A 
HETATM    6  C   UNL     1       7.486  25.861  55.629  1.00  0.00     0.073 A 
HETATM    7  C   UNL     1       7.783  25.855  56.971  1.00  0.00     0.088 A 
HETATM    8  N   UNL     1       7.611  26.923  57.773  1.00  0.00    -0.357 N 
HETATM    9  C   UNL     1       7.428  28.239  57.190  1.00  0.00     0.243 C 
HETATM   10  N   UNL     1       6.860  28.148  55.867  1.00  0.00    -0.330 N 
HETATM   11  C   UNL     1       6.988  27.081  55.026  1.00  0.00     0.256 C 
HETATM   12  O   UNL     1       6.673  27.153  53.843  1.00  0.00    -0.267 OA
HETATM   13  S   UNL     1       8.353  24.346  57.510  1.00  0.00    -0.074 SA
HETATM   14  C   UNL     1       7.401  24.173  53.619  1.00  0.00     0.068 C 
HETATM   15  C   UNL     1       7.995  22.794  53.281  1.00  0.00     0.240 C 
HETATM   16  H   UNL     1       8.075  26.947  58.679  1.00  0.00     0.162 HD
HETATM   17  H   UNL     1       6.541  29.002  55.433  1.00  0.00     0.165 HD
ENDROOT
BRANCH   9  18
HETATM   18  C   UNL     1       8.660  29.086  57.173  1.00  0.00     0.095 A 
HETATM   19  O   UNL     1       8.756  30.000  58.189  1.00  0.00    -0.313 OA
HETATM   20  C   UNL     1       9.926  30.679  58.020  1.00  0.00     0.077 A 
HETATM   21  C   UNL     1      10.583  30.211  56.902  1.00  0.00     0.037 A 
HETATM   22  C   UNL     1       9.773  29.183  56.360  1.00  0.00     0.039 A 
BRANCH  20  23
HETATM   23  C   UNL     1      10.237  31.734  59.022  1.00  0.00     0.240 C 
BRANCH  23  24
HETATM   24  O   UNL     1       9.037  32.486  59.196  1.00  0.00    -0.345 OA
BRANCH  24  25
HETATM   25  C   UNL     1       8.410  32.393  60.408  1.00  0.00     0.070 A 
HETATM   26  C   UNL     1       7.073  32.696  60.672  1.00  0.00     0.052 A 
HETATM   27  C   UNL     1       6.549  32.554  61.971  1.00  0.00     0.050 A 
HETATM   28  C   UNL     1       7.390  32.107  63.003  1.00  0.00     0.016 A 
HETATM   29  C   UNL     1       8.724  31.807  62.742  1.00  0.00     0.004 A 
HETATM   30  C   UNL     1       9.228  31.950  61.450  1.00  0.00     0.037 A 
BRANCH  27  31
HETATM   31  C   UNL     1       5.105  32.875  62.270  1.00  0.00     0.417 C 
HETATM   32  F   UNL     1       4.296  31.778  62.268  1.00  0.00    -0.166 F 
HETATM   33  F   UNL     1       4.942  33.455  63.491  1.00  0.00    -0.166 F 
HETATM   34  F   UNL     1       4.565  33.738  61.367  1.00  0.00    -0.166 F 
ENDBRANCH  27  31
ENDBRANCH  24  25
ENDBRANCH  23  24
ENDBRANCH  20  23
ENDBRANCH   9  18
BRANCH   1  35
HETATM   35  C   UNL     1       8.056  20.377  53.983  1.00  0.00     0.231 C 
HETATM   36  C   UNL     1       8.471  20.325  52.524  1.00  0.00     0.034 C 
ENDBRANCH   1  35
TORSDOF 6
ENDMDL
MODEL 3
REMARK VINA RESULT:     -10.8      1.578      2.102
REMARK  6 active torsions:
REMARK  status: ('A' for Active; 'I' for Inactive)
REMARK    1  A    between atoms: C_2  and  N_3 
REMARK    2  A    between atoms: C_11  and  C_12 
REMARK    3  A    between atoms: C_14  and  C_15 
REMARK    4  A    between atoms: C_15  and  O_16 
REMARK    5  A    between atoms: O_16  and  C_17 
REMARK    6  A    between atoms: C_19  and  C_20 
ROOT
HETATM    1  N   UNL     1       6.482  33.539  62.538  1.00  0.00    -0.067 N 
HETATM    2  H   UNL     1       6.846  34.276  61.921  1.00  0.00     0.280 HD
HETATM    3  C   UNL     1       7.527  32.423  62.521  1.00  0.00     0.281 C 
HETATM    4  C   UNL     1       7.581  31.788  61.175  1.00  0.00     0.018 A 
HETATM    5  C   UNL     1       6.600  31.891  60.206  1.00  0.00    -0.023 A 
HETATM    6  C   UNL     1       6.980  31.202  59.009  1.00  0.00     0.073 A 
HETATM    7  C   UNL     1       8.221  30.622  59.127  1.00  0.00     0.088 A 
HETATM    8  N   UNL     1       8.837  29.975  58.118  1.00  0.00    -0.357 N 
HETATM    9  C   UNL     1       8.072  29.559  56.958  1.00  0.00     0.243 C 
HETATM   10  N   UNL     1       6.918  30.402  56.765  1.00  0.00    -0.330 N 
HETATM   11  C   UNL     1       6.273  31.094  57.748  1.00  0.00     0.256 C 
HETATM   12  O   UNL     1       5.177  31.611  57.559  1.00  0.00    -0.267 OA
HETATM   13  S   UNL     1       8.905  30.846  60.668  1.00  0.00    -0.074 SA
HETATM   14  C   UNL     1       5.358  32.700  60.429  1.00  0.00     0.068 C 
HETATM   15  C   UNL     1       5.167  33.059  61.914  1.00  0.00     0.240 C 
HETATM   16  H   UNL     1       9.619  29.359  58.326  1.00  0.00     0.162 HD
HETATM   17  H   UNL     1       6.406  30.306  55.900  1.00  0.00     0.165 HD
ENDROOT
BRANCH   9  18
HETATM   18  C   UNL     1       7.672  28.118  56.965  1.00  0.00     0.095 A 
HETATM   19  O   UNL     1       7.213  27.632  55.770  1.00  0.00    -0.313 OA
HETATM   20  C   UNL     1       6.895  26.320  55.954  1.00  0.00     0.077 A 
HETATM   21  C   UNL     1       7.144  25.957  57.262  1.00  0.00     0.037 A 
HETATM   22  C   UNL     1       7.648  27.111  57.910  1.00  0.00     0.039 A 
BRANCH  20  23
HETATM   23  C   UNL     1       6.369  25.586  54.771  1.00  0.00     0.240 C 
BRANCH  23  24
HETATM   24  O   UNL     1       7.507  25.089  54.070  1.00  0.00    -0.345 OA
BRANCH  24  25
HETATM   25  C   UNL     1       7.741  23.744  54.130  1.00  0.00     0.070 A 
HETATM   26  C   UNL     1       7.916  22.986  55.290  1.00  0.00     0.052 A 
HETATM   27  C   UNL     1       8.149  21.600  55.212  1.00  0.00     0.050 A 
HETATM   28  C   UNL     1       8.207  20.985  53.952  1.00  0.00     0.016 A 
HETATM   29  C   UNL     1       8.035  21.739  52.793  1.00  0.00     0.004 A 
HETATM   30  C   UNL     1       7.803  23.111  52.886  1.00  0.00     0.037 A 
BRANCH  27  31
HETATM   31  C   UNL     1       8.338  20.769  56.458  1.00  0.00     0.417 C 
HETATM   32  F   UNL     1       8.298  21.501  57.607  1.00  0.00    -0.166 F 
HETATM   33  F   UNL     1       7.380  19.811  56.595  1.00  0.00    -0.166 F 
HETATM   34  F   UNL     1       9.531  20.115  56.473  1.00  0.00    -0.166 F 
ENDBRANCH  27  31
ENDBRANCH  24  25
ENDBRANCH  23  24
ENDBRANCH  20  23
ENDBRANCH   9  18
BRANCH   1  35
HETATM   35  C   UNL     1       6.266  34.139  63.904  1.00  0.00     0.231 C 
HETATM   36  C   UNL     1       7.335  33.680  64.879  1.00  0.00     0.034 C 
ENDBRANCH   1  35
TORSDOF 6
ENDMDL
MODEL 4
REMARK VINA RESULT:     -10.6      5.957     11.359
REMARK  6 active torsions:
REMARK  status: ('A' for Active; 'I' for Inactive)
REMARK    1  A    between atoms: C_2  and  N_3 
REMARK    2  A    between atoms: C_11  and  C_12 
REMARK    3  A    between atoms: C_14  and  C_15 
REMARK    4  A    between atoms: C_15  and  O_16 
REMARK    5  A    between atoms: O_16  and  C_17 
REMARK    6  A    between atoms: C_19  and  C_20 
ROOT
HETATM    1  N   UNL     1       7.766  22.071  53.588  1.00  0.00    -0.067 N 
HETATM    2  H   UNL     1       6.779  21.979  53.861  1.00  0.00     0.280 HD
HETATM    3  C   UNL     1       8.539  22.313  54.885  1.00  0.00     0.281 C 
HETATM    4  C   UNL     1       8.184  23.643  55.456  1.00  0.00     0.018 A 
HETATM    5  C   UNL     1       7.574  24.671  54.761  1.00  0.00    -0.023 A 
HETATM    6  C   UNL     1       7.330  25.797  55.613  1.00  0.00     0.073 A 
HETATM    7  C   UNL     1       7.756  25.566  56.899  1.00  0.00     0.088 A 
HETATM    8  N   UNL     1       7.578  26.440  57.908  1.00  0.00    -0.357 N 
HETATM    9  C   UNL     1       7.234  27.818  57.614  1.00  0.00     0.243 C 
HETATM   10  N   UNL     1       6.549  27.925  56.348  1.00  0.00    -0.330 N 
HETATM   11  C   UNL     1       6.679  27.055  55.305  1.00  0.00     0.256 C 
HETATM   12  O   UNL     1       6.246  27.319  54.188  1.00  0.00    -0.267 OA
HETATM   13  S   UNL     1       8.494  24.044  57.081  1.00  0.00    -0.074 SA
HETATM   14  C   UNL     1       7.184  24.522  53.321  1.00  0.00     0.068 C 
HETATM   15  C   UNL     1       7.850  23.296  52.671  1.00  0.00     0.240 C 
HETATM   16  H   UNL     1       8.125  26.335  58.760  1.00  0.00     0.162 HD
HETATM   17  H   UNL     1       6.123  28.811  56.119  1.00  0.00     0.165 HD
ENDROOT
BRANCH   9  18
HETATM   18  C   UNL     1       8.387  28.768  57.666  1.00  0.00     0.095 A 
HETATM   19  O   UNL     1       8.334  29.699  58.670  1.00  0.00    -0.313 OA
HETATM   20  C   UNL     1       9.450  30.475  58.570  1.00  0.00     0.077 A 
HETATM   21  C   UNL     1      10.221  30.053  57.507  1.00  0.00     0.037 A 
HETATM   22  C   UNL     1       9.542  28.952  56.929  1.00  0.00     0.039 A 
BRANCH  20  23
HETATM   23  C   UNL     1       9.598  31.565  59.572  1.00  0.00     0.240 C 
BRANCH  23  24
HETATM   24  O   UNL     1       8.957  31.105  60.761  1.00  0.00    -0.345 OA
BRANCH  24  25
HETATM   25  C   UNL     1       7.959  31.885  61.275  1.00  0.00     0.070 A 
HETATM   26  C   UNL     1       7.823  32.280  62.607  1.00  0.00     0.052 A 
HETATM   27  C   UNL     1       6.743  33.091  63.008  1.00  0.00     0.050 A 
HETATM   28  C   UNL     1       5.801  33.497  62.050  1.00  0.00     0.016 A 
HETATM   29  C   UNL     1       5.934  33.103  60.721  1.00  0.00     0.004 A 
HETATM   30  C   UNL     1       7.009  32.301  60.340  1.00  0.00     0.037 A 
BRANCH  27  31
HETATM   31  C   UNL     1       6.585  33.527  64.444  1.00  0.00     0.417 C 
HETATM   32  F   UNL     1       7.533  33.007  65.275  1.00  0.00    -0.166 F 
HETATM   33  F   UNL     1       6.664  34.879  64.590  1.00  0.00    -0.166 F 
HETATM   34  F   UNL     1       5.385  33.161  64.971  1.00  0.00    -0.166 F 
ENDBRANCH  27  31
ENDBRANCH  24  25
ENDBRANCH  23  24
ENDBRANCH  20  23
ENDBRANCH   9  18
BRANCH   1  35
HETATM   35  C   UNL     1       8.173  20.808  52.873  1.00  0.00     0.231 C 
HETATM   36  C   UNL     1       8.979  19.900  53.782  1.00  0.00     0.034 C 
ENDBRANCH   1  35
TORSDOF 6
ENDMDL
MODEL 5
REMARK VINA RESULT:     -10.4      5.946     11.275
REMARK  6 active torsions:
REMARK  status: ('A' for Active; 'I' for Inactive)
REMARK    1  A    between atoms: C_2  and  N_3 
REMARK    2  A    between atoms: C_11  and  C_12 
REMARK    3  A    between atoms: C_14  and  C_15 
REMARK    4  A    between atoms: C_15  and  O_16 
REMARK    5  A    between atoms: O_16  and  C_17 
REMARK    6  A    between atoms: C_19  and  C_20 
ROOT
HETATM    1  N   UNL     1       7.899  23.106  53.757  1.00  0.00    -0.067 N 
HETATM    2  H   UNL     1       8.905  23.287  53.866  1.00  0.00     0.280 HD
HETATM    3  C   UNL     1       7.316  24.355  53.096  1.00  0.00     0.281 C 
HETATM    4  C   UNL     1       7.387  25.513  54.031  1.00  0.00     0.018 A 
HETATM    5  C   UNL     1       7.571  25.423  55.399  1.00  0.00    -0.023 A 
HETATM    6  C   UNL     1       7.639  26.722  55.999  1.00  0.00     0.073 A 
HETATM    7  C   UNL     1       7.512  27.722  55.065  1.00  0.00     0.088 A 
HETATM    8  N   UNL     1       7.612  29.032  55.362  1.00  0.00    -0.357 N 
HETATM    9  C   UNL     1       7.515  29.466  56.743  1.00  0.00     0.243 C 
HETATM   10  N   UNL     1       7.924  28.419  57.647  1.00  0.00    -0.330 N 
HETATM   11  C   UNL     1       7.863  27.081  57.385  1.00  0.00     0.256 C 
HETATM   12  O   UNL     1       8.017  26.244  58.268  1.00  0.00    -0.267 OA
HETATM   13  S   UNL     1       7.255  27.123  53.494  1.00  0.00    -0.074 SA
HETATM   14  C   UNL     1       7.741  24.099  56.082  1.00  0.00     0.068 C 
HETATM   15  C   UNL     1       7.334  22.927  55.171  1.00  0.00     0.240 C 
HETATM   16  H   UNL     1       7.263  29.721  54.699  1.00  0.00     0.162 HD
HETATM   17  H   UNL     1       8.050  28.662  58.619  1.00  0.00     0.165 HD
ENDROOT
BRANCH   9  18
HETATM   18  C   UNL     1       6.173  29.998  57.132  1.00  0.00     0.095 A 
HETATM   19  O   UNL     1       6.165  30.827  58.221  1.00  0.00    -0.313 OA
HETATM   20  C   UNL     1       4.875  31.214  58.434  1.00  0.00     0.077 A 
HETATM   21  C   UNL     1       4.051  30.637  57.490  1.00  0.00     0.037 A 
HETATM   22  C   UNL     1       4.885  29.860  56.649  1.00  0.00     0.039 A 
BRANCH  20  23
HETATM   23  C   UNL     1       4.632  32.128  59.583  1.00  0.00     0.240 C 
BRANCH  23  24
HETATM   24  O   UNL     1       5.813  32.917  59.723  1.00  0.00    -0.345 OA
BRANCH  24  25
HETATM   25  C   UNL     1       6.478  32.840  60.915  1.00  0.00     0.070 A 
HETATM   26  C   UNL     1       6.000  33.263  62.157  1.00  0.00     0.052 A 
HETATM   27  C   UNL     1       6.790  33.125  63.314  1.00  0.00     0.050 A 
HETATM   28  C   UNL     1       8.069  32.557  63.206  1.00  0.00     0.016 A 
HETATM   29  C   UNL     1       8.549  32.137  61.968  1.00  0.00     0.004 A 
HETATM   30  C   UNL     1       7.754  32.279  60.831  1.00  0.00     0.037 A 
BRANCH  27  31
HETATM   31  C   UNL     1       6.284  33.576  64.663  1.00  0.00     0.417 C 
HETATM   32  F   UNL     1       5.063  33.062  64.982  1.00  0.00    -0.166 F 
HETATM   33  F   UNL     1       7.116  33.214  65.679  1.00  0.00    -0.166 F 
HETATM   34  F   UNL     1       6.154  34.928  64.746  1.00  0.00    -0.166 F 
ENDBRANCH  27  31
ENDBRANCH  24  25
ENDBRANCH  23  24
ENDBRANCH  20  23
ENDBRANCH   9  18
BRANCH   1  35
HETATM   35  C   UNL     1       7.737  21.857  52.929  1.00  0.00     0.231 C 
HETATM   36  C   UNL     1       8.371  20.660  53.613  1.00  0.00     0.034 C 
ENDBRANCH   1  35
TORSDOF 6
ENDMDL
MODEL 6
REMARK VINA RESULT:     -10.3      7.826     11.465
REMARK  6 active torsions:
REMARK  status: ('A' for Active; 'I' for Inactive)
REMARK    1  A    between atoms: C_2  and  N_3 
REMARK    2  A    between atoms: C_11  and  C_12 
REMARK    3  A    between atoms: C_14  and  C_15 
REMARK    4  A    between atoms: C_15  and  O_16 
REMARK    5  A    between atoms: O_16  and  C_17 
REMARK    6  A    between atoms: C_19  and  C_20 
ROOT
HETATM    1  N   UNL     1       0.070  28.963  45.403  1.00  0.00    -0.067 N 
HETATM    2  H   UNL     1       0.801  28.742  44.713  1.00  0.00     0.280 HD
HETATM    3  C   UNL     1       0.686  29.990  46.352  1.00  0.00     0.281 C 
HETATM    4  C   UNL     1       1.776  29.364  47.153  1.00  0.00     0.018 A 
HETATM    5  C   UNL     1       1.960  28.005  47.322  1.00  0.00    -0.023 A 
HETATM    6  C   UNL     1       3.126  27.734  48.109  1.00  0.00     0.073 A 
HETATM    7  C   UNL     1       3.766  28.890  48.487  1.00  0.00     0.088 A 
HETATM    8  N   UNL     1       4.925  28.907  49.173  1.00  0.00    -0.357 N 
HETATM    9  C   UNL     1       5.379  27.706  49.848  1.00  0.00     0.243 C 
HETATM   10  N   UNL     1       4.858  26.522  49.209  1.00  0.00    -0.330 N 
HETATM   11  C   UNL     1       3.702  26.458  48.486  1.00  0.00     0.256 C 
HETATM   12  O   UNL     1       3.205  25.386  48.159  1.00  0.00    -0.267 OA
HETATM   13  S   UNL     1       2.955  30.290  47.960  1.00  0.00    -0.074 SA
HETATM   14  C   UNL     1       1.053  27.003  46.673  1.00  0.00     0.068 C 
HETATM   15  C   UNL     1      -0.237  27.656  46.143  1.00  0.00     0.240 C 
HETATM   16  H   UNL     1       5.216  29.764  49.639  1.00  0.00     0.162 HD
HETATM   17  H   UNL     1       5.236  25.630  49.494  1.00  0.00     0.165 HD
ENDROOT
BRANCH   9  18
HETATM   18  C   UNL     1       5.096  27.676  51.315  1.00  0.00     0.095 A 
HETATM   19  O   UNL     1       5.261  26.458  51.919  1.00  0.00    -0.313 OA
HETATM   20  C   UNL     1       4.963  26.611  53.240  1.00  0.00     0.077 A 
HETATM   21  C   UNL     1       4.604  27.919  53.492  1.00  0.00     0.037 A 
HETATM   22  C   UNL     1       4.694  28.605  52.256  1.00  0.00     0.039 A 
BRANCH  20  23
HETATM   23  C   UNL     1       5.076  25.398  54.095  1.00  0.00     0.240 C 
BRANCH  23  24
HETATM   24  O   UNL     1       6.434  25.339  54.528  1.00  0.00    -0.345 OA
BRANCH  24  25
HETATM   25  C   UNL     1       7.078  24.139  54.405  1.00  0.00     0.070 A 
HETATM   26  C   UNL     1       7.262  23.193  55.415  1.00  0.00     0.052 A 
HETATM   27  C   UNL     1       7.946  21.990  55.154  1.00  0.00     0.050 A 
HETATM   28  C   UNL     1       8.444  21.752  53.863  1.00  0.00     0.016 A 
HETATM   29  C   UNL     1       8.263  22.696  52.855  1.00  0.00     0.004 A 
HETATM   30  C   UNL     1       7.583  23.881  53.128  1.00  0.00     0.037 A 
BRANCH  27  31
HETATM   31  C   UNL     1       8.150  20.957  56.236  1.00  0.00     0.417 C 
HETATM   32  F   UNL     1       7.102  20.095  56.365  1.00  0.00    -0.166 F 
HETATM   33  F   UNL     1       9.245  20.180  56.014  1.00  0.00    -0.166 F 
HETATM   34  F   UNL     1       8.327  21.517  57.464  1.00  0.00    -0.166 F 
ENDBRANCH  27  31
ENDBRANCH  24  25
ENDBRANCH  23  24
ENDBRANCH  20  23
ENDBRANCH   9  18
BRANCH   1  35
HETATM   35  C   UNL     1      -1.134  29.479  44.657  1.00  0.00     0.231 C 
HETATM   36  C   UNL     1      -2.310  29.685  45.593  1.00  0.00     0.034 C 
ENDBRANCH   1  35
TORSDOF 6
ENDMDL
MODEL 7
REMARK VINA RESULT:     -10.0      1.778      2.152
REMARK  6 active torsions:
REMARK  status: ('A' for Active; 'I' for Inactive)
REMARK    1  A    between atoms: C_2  and  N_3 
REMARK    2  A    between atoms: C_11  and  C_12 
REMARK    3  A    between atoms: C_14  and  C_15 
REMARK    4  A    between atoms: C_15  and  O_16 
REMARK    5  A    between atoms: O_16  and  C_17 
REMARK    6  A    between atoms: C_19  and  C_20 
ROOT
HETATM    1  N   UNL     1       5.558  33.476  63.324  1.00  0.00    -0.067 N 
HETATM    2  H   UNL     1       5.791  34.344  62.823  1.00  0.00     0.280 HD
HETATM    3  C   UNL     1       6.620  32.456  62.913  1.00  0.00     0.281 C 
HETATM    4  C   UNL     1       6.468  32.106  61.473  1.00  0.00     0.018 A 
HETATM    5  C   UNL     1       5.337  32.337  60.712  1.00  0.00    -0.023 A 
HETATM    6  C   UNL     1       5.535  31.926  59.353  1.00  0.00     0.073 A 
HETATM    7  C   UNL     1       6.795  31.416  59.154  1.00  0.00     0.088 A 
HETATM    8  N   UNL     1       7.254  31.024  57.949  1.00  0.00    -0.357 N 
HETATM    9  C   UNL     1       6.321  30.798  56.862  1.00  0.00     0.243 C 
HETATM   10  N   UNL     1       5.125  31.588  57.030  1.00  0.00    -0.330 N 
HETATM   11  C   UNL     1       4.631  32.027  58.224  1.00  0.00     0.256 C 
HETATM   12  O   UNL     1       3.504  32.500  58.320  1.00  0.00    -0.267 OA
HETATM   13  S   UNL     1       7.718  31.371  60.581  1.00  0.00    -0.074 SA
HETATM   14  C   UNL     1       4.125  33.004  61.289  1.00  0.00     0.068 C 
HETATM   15  C   UNL     1       4.173  33.047  62.828  1.00  0.00     0.240 C 
HETATM   16  H   UNL     1       8.079  30.430  57.900  1.00  0.00     0.162 HD
HETATM   17  H   UNL     1       4.480  31.633  56.255  1.00  0.00     0.165 HD
ENDROOT
BRANCH   9  18
HETATM   18  C   UNL     1       5.972  29.363  56.633  1.00  0.00     0.095 A 
HETATM   19  O   UNL     1       6.886  28.647  55.907  1.00  0.00    -0.313 OA
HETATM   20  C   UNL     1       6.414  27.373  55.793  1.00  0.00     0.077 A 
HETATM   21  C   UNL     1       5.200  27.264  56.439  1.00  0.00     0.037 A 
HETATM   22  C   UNL     1       4.917  28.541  56.983  1.00  0.00     0.039 A 
BRANCH  20  23
HETATM   23  C   UNL     1       7.258  26.412  55.033  1.00  0.00     0.240 C 
BRANCH  23  24
HETATM   24  O   UNL     1       6.399  25.337  54.656  1.00  0.00    -0.345 OA
BRANCH  24  25
HETATM   25  C   UNL     1       6.970  24.105  54.503  1.00  0.00     0.070 A 
HETATM   26  C   UNL     1       7.326  23.226  55.528  1.00  0.00     0.052 A 
HETATM   27  C   UNL     1       7.909  21.978  55.232  1.00  0.00     0.050 A 
HETATM   28  C   UNL     1       8.130  21.627  53.892  1.00  0.00     0.016 A 
HETATM   29  C   UNL     1       7.777  22.502  52.868  1.00  0.00     0.004 A 
HETATM   30  C   UNL     1       7.200  23.734  53.176  1.00  0.00     0.037 A 
BRANCH  27  31
HETATM   31  C   UNL     1       8.296  21.019  56.331  1.00  0.00     0.417 C 
HETATM   32  F   UNL     1       7.427  19.978  56.472  1.00  0.00    -0.166 F 
HETATM   33  F   UNL     1       9.519  20.456  56.124  1.00  0.00    -0.166 F 
HETATM   34  F   UNL     1       8.359  21.620  57.550  1.00  0.00    -0.166 F 
ENDBRANCH  27  31
ENDBRANCH  24  25
ENDBRANCH  23  24
ENDBRANCH  20  23
ENDBRANCH   9  18
BRANCH   1  35
HETATM   35  C   UNL     1       5.554  33.777  64.801  1.00  0.00     0.231 C 
HETATM   36  C   UNL     1       6.967  33.836  65.352  1.00  0.00     0.034 C 
ENDBRANCH   1  35
TORSDOF 6
ENDMDL
MODEL 8
REMARK VINA RESULT:     -10.0      2.779      4.722
REMARK  6 active torsions:
REMARK  status: ('A' for Active; 'I' for Inactive)
REMARK    1  A    between atoms: C_2  and  N_3 
REMARK    2  A    between atoms: C_11  and  C_12 
REMARK    3  A    between atoms: C_14  and  C_15 
REMARK    4  A    between atoms: C_15  and  O_16 
REMARK    5  A    between atoms: O_16  and  C_17 
REMARK    6  A    between atoms: C_19  and  C_20 
ROOT
HETATM    1  N   UNL     1       7.648  31.570  59.763  1.00  0.00    -0.067 N 
HETATM    2  H   UNL     1       7.225  30.996  60.505  1.00  0.00     0.280 HD
HETATM    3  C   UNL     1       6.561  31.755  58.704  1.00  0.00     0.281 C 
HETATM    4  C   UNL     1       6.259  30.455  58.042  1.00  0.00     0.018 A 
HETATM    5  C   UNL     1       7.073  29.338  58.072  1.00  0.00    -0.023 A 
HETATM    6  C   UNL     1       6.470  28.240  57.377  1.00  0.00     0.073 A 
HETATM    7  C   UNL     1       5.239  28.574  56.866  1.00  0.00     0.088 A 
HETATM    8  N   UNL     1       4.437  27.698  56.231  1.00  0.00    -0.357 N 
HETATM    9  C   UNL     1       4.981  26.443  55.748  1.00  0.00     0.243 C 
HETATM   10  N   UNL     1       6.129  26.040  56.526  1.00  0.00    -0.330 N 
HETATM   11  C   UNL     1       6.958  26.885  57.204  1.00  0.00     0.256 C 
HETATM   12  O   UNL     1       8.032  26.506  57.658  1.00  0.00    -0.267 OA
HETATM   13  S   UNL     1       4.826  30.197  57.160  1.00  0.00    -0.074 SA
HETATM   14  C   UNL     1       8.373  29.334  58.819  1.00  0.00     0.068 C 
HETATM   15  C   UNL     1       8.819  30.757  59.201  1.00  0.00     0.240 C 
HETATM   16  H   UNL     1       3.669  28.048  55.661  1.00  0.00     0.162 HD
HETATM   17  H   UNL     1       6.488  25.108  56.383  1.00  0.00     0.165 HD
ENDROOT
BRANCH   9  18
HETATM   18  C   UNL     1       5.307  26.429  54.289  1.00  0.00     0.095 A 
HETATM   19  O   UNL     1       6.256  25.518  53.910  1.00  0.00    -0.313 OA
HETATM   20  C   UNL     1       6.429  25.641  52.563  1.00  0.00     0.077 A 
HETATM   21  C   UNL     1       5.599  26.628  52.073  1.00  0.00     0.037 A 
HETATM   22  C   UNL     1       4.874  27.131  53.181  1.00  0.00     0.039 A 
BRANCH  20  23
HETATM   23  C   UNL     1       7.428  24.736  51.932  1.00  0.00     0.240 C 
BRANCH  23  24
HETATM   24  O   UNL     1       8.356  24.387  52.957  1.00  0.00    -0.345 OA
BRANCH  24  25
HETATM   25  C   UNL     1       8.311  23.107  53.432  1.00  0.00     0.070 A 
HETATM   26  C   UNL     1       8.384  22.719  54.771  1.00  0.00     0.052 A 
HETATM   27  C   UNL     1       8.324  21.358  55.128  1.00  0.00     0.050 A 
HETATM   28  C   UNL     1       8.193  20.391  54.119  1.00  0.00     0.016 A 
HETATM   29  C   UNL     1       8.123  20.775  52.782  1.00  0.00     0.004 A 
HETATM   30  C   UNL     1       8.182  22.127  52.445  1.00  0.00     0.037 A 
BRANCH  27  31
HETATM   31  C   UNL     1       8.398  20.925  56.572  1.00  0.00     0.417 C 
HETATM   32  F   UNL     1       9.521  20.211  56.866  1.00  0.00    -0.166 F 
HETATM   33  F   UNL     1       8.393  21.981  57.433  1.00  0.00    -0.166 F 
HETATM   34  F   UNL     1       7.349  20.138  56.935  1.00  0.00    -0.166 F 
ENDBRANCH  27  31
ENDBRANCH  24  25
ENDBRANCH  23  24
ENDBRANCH  20  23
ENDBRANCH   9  18
BRANCH   1  35
HETATM   35  C   UNL     1       8.112  32.864  60.381  1.00  0.00     0.231 C 
HETATM   36  C   UNL     1       8.542  32.659  61.822  1.00  0.00     0.034 C 
ENDBRANCH   1  35
TORSDOF 6
ENDMDL
MODEL 9
REMARK VINA RESULT:     -10.0      5.479     10.944
REMARK  6 active torsions:
REMARK  status: ('A' for Active; 'I' for Inactive)
REMARK    1  A    between atoms: C_2  and  N_3 
REMARK    2  A    between atoms: C_11  and  C_12 
REMARK    3  A    between atoms: C_14  and  C_15 
REMARK    4  A    between atoms: C_15  and  O_16 
REMARK    5  A    between atoms: O_16  and  C_17 
REMARK    6  A    between atoms: C_19  and  C_20 
ROOT
HETATM    1  N   UNL     1       7.667  22.128  54.019  1.00  0.00    -0.067 N 
HETATM    2  H   UNL     1       6.708  21.816  53.814  1.00  0.00     0.280 HD
HETATM    3  C   UNL     1       7.624  22.721  55.427  1.00  0.00     0.281 C 
HETATM    4  C   UNL     1       6.815  23.972  55.435  1.00  0.00     0.018 A 
HETATM    5  C   UNL     1       6.482  24.713  54.316  1.00  0.00    -0.023 A 
HETATM    6  C   UNL     1       5.658  25.832  54.663  1.00  0.00     0.073 A 
HETATM    7  C   UNL     1       5.405  25.880  56.013  1.00  0.00     0.088 A 
HETATM    8  N   UNL     1       4.599  26.796  56.584  1.00  0.00    -0.357 N 
HETATM    9  C   UNL     1       4.230  27.990  55.848  1.00  0.00     0.243 C 
HETATM   10  N   UNL     1       4.274  27.758  54.424  1.00  0.00    -0.330 N 
HETATM   11  C   UNL     1       5.056  26.830  53.800  1.00  0.00     0.256 C 
HETATM   12  O   UNL     1       5.212  26.832  52.584  1.00  0.00    -0.267 OA
HETATM   13  S   UNL     1       6.187  24.638  56.871  1.00  0.00    -0.074 SA
HETATM   14  C   UNL     1       6.906  24.291  52.942  1.00  0.00     0.068 C 
HETATM   15  C   UNL     1       8.002  23.210  52.986  1.00  0.00     0.240 C 
HETATM   16  H   UNL     1       4.647  26.943  57.590  1.00  0.00     0.162 HD
HETATM   17  H   UNL     1       3.884  28.467  53.821  1.00  0.00     0.165 HD
ENDROOT
BRANCH   9  18
HETATM   18  C   UNL     1       5.023  29.206  56.204  1.00  0.00     0.095 A 
HETATM   19  O   UNL     1       4.336  30.172  56.890  1.00  0.00    -0.313 OA
HETATM   20  C   UNL     1       5.200  31.199  57.130  1.00  0.00     0.077 A 
HETATM   21  C   UNL     1       6.439  30.902  56.600  1.00  0.00     0.037 A 
HETATM   22  C   UNL     1       6.327  29.619  56.010  1.00  0.00     0.039 A 
BRANCH  20  23
HETATM   23  C   UNL     1       4.658  32.370  57.871  1.00  0.00     0.240 C 
BRANCH  23  24
HETATM   24  O   UNL     1       5.764  32.959  58.553  1.00  0.00    -0.345 OA
BRANCH  24  25
HETATM   25  C   UNL     1       5.892  32.688  59.887  1.00  0.00     0.070 A 
HETATM   26  C   UNL     1       7.087  32.463  60.573  1.00  0.00     0.052 A 
HETATM   27  C   UNL     1       7.080  32.195  61.956  1.00  0.00     0.050 A 
HETATM   28  C   UNL     1       5.855  32.154  62.638  1.00  0.00     0.016 A 
HETATM   29  C   UNL     1       4.661  32.376  61.956  1.00  0.00     0.004 A 
HETATM   30  C   UNL     1       4.684  32.642  60.587  1.00  0.00     0.037 A 
BRANCH  27  31
HETATM   31  C   UNL     1       8.365  31.952  62.710  1.00  0.00     0.417 C 
HETATM   32  F   UNL     1       8.513  30.662  63.125  1.00  0.00    -0.166 F 
HETATM   33  F   UNL     1       9.468  32.231  61.963  1.00  0.00    -0.166 F 
HETATM   34  F   UNL     1       8.464  32.718  63.830  1.00  0.00    -0.166 F 
ENDBRANCH  27  31
ENDBRANCH  24  25
ENDBRANCH  23  24
ENDBRANCH  20  23
ENDBRANCH   9  18
BRANCH   1  35
HETATM   35  C   UNL     1       8.581  20.936  53.896  1.00  0.00     0.231 C 
HETATM   36  C   UNL     1       8.959  20.393  55.262  1.00  0.00     0.034 C 
ENDBRANCH   1  35
TORSDOF 6
ENDMDL
MODEL 10
REMARK VINA RESULT:     -10.0      4.986     10.502
REMARK  6 active torsions:
REMARK  status: ('A' for Active; 'I' for Inactive)
REMARK    1  A    between atoms: C_2  and  N_3 
REMARK    2  A    between atoms: C_11  and  C_12 
REMARK    3  A    between atoms: C_14  and  C_15 
REMARK    4  A    between atoms: C_15  and  O_16 
REMARK    5  A    between atoms: O_16  and  C_17 
REMARK    6  A    between atoms: C_19  and  C_20 
ROOT
HETATM    1  N   UNL     1       7.861  22.551  54.218  1.00  0.00    -0.067 N 
HETATM    2  H   UNL     1       8.848  22.838  54.198  1.00  0.00     0.280 HD
HETATM    3  C   UNL     1       7.105  23.584  53.383  1.00  0.00     0.281 C 
HETATM    4  C   UNL     1       7.120  24.909  54.064  1.00  0.00     0.018 A 
HETATM    5  C   UNL     1       7.410  25.114  55.400  1.00  0.00    -0.023 A 
HETATM    6  C   UNL     1       7.384  26.509  55.726  1.00  0.00     0.073 A 
HETATM    7  C   UNL     1       7.086  27.284  54.630  1.00  0.00     0.088 A 
HETATM    8  N   UNL     1       7.069  28.630  54.656  1.00  0.00    -0.357 N 
HETATM    9  C   UNL     1       7.026  29.325  55.929  1.00  0.00     0.243 C 
HETATM   10  N   UNL     1       7.607  28.524  56.979  1.00  0.00    -0.330 N 
HETATM   11  C   UNL     1       7.668  27.161  56.989  1.00  0.00     0.256 C 
HETATM   12  O   UNL     1       7.972  26.537  58.001  1.00  0.00    -0.267 OA
HETATM   13  S   UNL     1       6.782  26.358  53.237  1.00  0.00    -0.074 SA
HETATM   14  C   UNL     1       7.766  23.977  56.310  1.00  0.00     0.068 C 
HETATM   15  C   UNL     1       7.420  22.613  55.685  1.00  0.00     0.240 C 
HETATM   16  H   UNL     1       6.604  29.137  53.906  1.00  0.00     0.162 HD
HETATM   17  H   UNL     1       7.776  28.969  57.869  1.00  0.00     0.165 HD
ENDROOT
BRANCH   9  18
HETATM   18  C   UNL     1       5.667  29.804  56.327  1.00  0.00     0.095 A 
HETATM   19  O   UNL     1       5.613  30.495  57.508  1.00  0.00    -0.313 OA
HETATM   20  C   UNL     1       4.314  30.852  57.716  1.00  0.00     0.077 A 
HETATM   21  C   UNL     1       3.530  30.392  56.678  1.00  0.00     0.037 A 
HETATM   22  C   UNL     1       4.400  29.724  55.782  1.00  0.00     0.039 A 
BRANCH  20  23
HETATM   23  C   UNL     1       4.021  31.619  58.957  1.00  0.00     0.240 C 
BRANCH  23  24
HETATM   24  O   UNL     1       4.964  32.689  58.997  1.00  0.00    -0.345 OA
BRANCH  24  25
HETATM   25  C   UNL     1       5.906  32.656  59.987  1.00  0.00     0.070 A 
HETATM   26  C   UNL     1       7.213  32.180  59.869  1.00  0.00     0.052 A 
HETATM   27  C   UNL     1       8.088  32.204  60.972  1.00  0.00     0.050 A 
HETATM   28  C   UNL     1       7.629  32.712  62.198  1.00  0.00     0.016 A 
HETATM   29  C   UNL     1       6.325  33.186  62.319  1.00  0.00     0.004 A 
HETATM   30  C   UNL     1       5.471  33.156  61.217  1.00  0.00     0.037 A 
BRANCH  27  31
HETATM   31  C   UNL     1       9.504  31.695  60.857  1.00  0.00     0.417 C 
HETATM   32  F   UNL     1      10.345  32.218  61.794  1.00  0.00    -0.166 F 
HETATM   33  F   UNL     1       9.584  30.343  60.998  1.00  0.00    -0.166 F 
HETATM   34  F   UNL     1      10.065  31.983  59.650  1.00  0.00    -0.166 F 
ENDBRANCH  27  31
ENDBRANCH  24  25
ENDBRANCH  23  24
ENDBRANCH  20  23
ENDBRANCH   9  18
BRANCH   1  35
HETATM   35  C   UNL     1       7.772  21.150  53.668  1.00  0.00     0.231 C 
HETATM   36  C   UNL     1       9.079  20.403  53.858  1.00  0.00     0.034 C 
ENDBRANCH   1  35
TORSDOF 6
ENDMDL
