MODEL 1
REMARK VINA RESULT:      -9.6      0.000      0.000
REMARK  6 active torsions:
REMARK  status: ('A' for Active; 'I' for Inactive)
REMARK    1  A    between atoms: C_6  and  C_7 
REMARK    2  A    between atoms: C_7  and  C_8 
REMARK       I    between atoms: C_8  and  N_9 
REMARK    3  A    between atoms: N_9  and  C_10 
REMARK    4  A    between atoms: C_12  and  C_13 
REMARK       I    between atoms: C_13  and  N_14 
REMARK    5  A    between atoms: N_14  and  C_15 
REMARK    6  A    between atoms: C_15  and  C_16 
ROOT
HETATM    1  C   UNL     1       7.587  29.226  57.191  1.00  0.00     0.035 A 
HETATM    2  C   UNL     1       7.701  27.852  57.436  1.00  0.00     0.046 A 
HETATM    3  C   UNL     1       6.983  26.930  56.658  1.00  0.00     0.034 A 
HETATM    4  C   UNL     1       6.146  27.404  55.636  1.00  0.00     0.017 A 
HETATM    5  C   UNL     1       6.021  28.769  55.394  1.00  0.00     0.003 A 
HETATM    6  C   UNL     1       6.737  29.675  56.171  1.00  0.00     0.029 A 
ENDROOT
BRANCH   1   7
HETATM    7  N   UNL     1       8.265  30.217  57.923  1.00  0.00    -0.327 N 
HETATM    8  C   UNL     1       9.613  30.520  57.927  1.00  0.00     0.227 C 
HETATM    9  O   UNL     1      10.474  29.951  57.256  1.00  0.00    -0.273 OA
HETATM   10  H   UNL     1       7.686  30.857  58.475  1.00  0.00     0.169 HD
BRANCH   8  11
HETATM   11  C   UNL     1      10.010  31.590  58.939  1.00  0.00     0.164 C 
BRANCH  11  12
HETATM   12  C   UNL     1       9.329  31.476  60.266  1.00  0.00     0.065 A 
HETATM   13  N   UNL     1       9.013  30.274  60.778  1.00  0.00    -0.179 NA
HETATM   14  N   UNL     1       8.472  30.561  61.976  1.00  0.00    -0.282 N 
HETATM   15  C   UNL     1       8.432  31.898  62.252  1.00  0.00     0.026 A 
HETATM   16  H   UNL     1       8.158  29.792  62.561  1.00  0.00     0.189 HD
HETATM   17  C   UNL     1       7.890  32.434  63.521  1.00  0.00     0.070 C 
HETATM   18  C   UNL     1       8.977  32.522  61.152  1.00  0.00     0.055 A 
ENDBRANCH  11  12
ENDBRANCH   8  11
ENDBRANCH   1   7
BRANCH   3  19
HETATM   19  C   UNL     1       7.027  25.450  56.871  1.00  0.00     0.252 C 
HETATM   20  N   UNL     1       8.229  24.795  56.705  1.00  0.00    -0.353 N 
HETATM   21  H   UNL     1       9.012  25.249  56.256  1.00  0.00     0.163 HD
HETATM   22  O   UNL     1       5.999  24.855  57.185  1.00  0.00    -0.268 OA
BRANCH  20  23
HETATM   23  C   UNL     1       8.290  23.354  56.838  1.00  0.00     0.161 C 
BRANCH  23  24
HETATM   24  C   UNL     1       8.122  22.624  55.530  1.00  0.00    -0.041 A 
HETATM   25  C   UNL     1       8.207  23.291  54.298  1.00  0.00     0.009 A 
HETATM   26  C   UNL     1       8.121  22.583  53.098  1.00  0.00     0.001 A 
HETATM   27  C   UNL     1       7.970  21.198  53.112  1.00  0.00     0.000 A 
HETATM   28  C   UNL     1       7.903  20.520  54.326  1.00  0.00     0.001 A 
HETATM   29  C   UNL     1       7.982  21.227  55.528  1.00  0.00     0.009 A 
ENDBRANCH  23  24
ENDBRANCH  20  23
ENDBRANCH   3  19
TORSDOF 6
ENDMDL
MODEL 2
REMARK VINA RESULT:      -9.5      1.853      2.982
REMARK  6 active torsions:
REMARK  status: ('A' for Active; 'I' for Inactive)
REMARK    1  A    between atoms: C_6  and  C_7 
REMARK    2  A    between atoms: C_7  and  C_8 
REMARK       I    between atoms: C_8  and  N_9 
REMARK    3  A    between atoms: N_9  and  C_10 
REMARK    4  A    between atoms: C_12  and  C_13 
REMARK       I    between atoms: C_13  and  N_14 
REMARK    5  A    between atoms: N_14  and  C_15 
REMARK    6  A    between atoms: C_15  and  C_16 
ROOT
HETATM    1  C   UNL     1       9.181  30.030  58.570  1.00  0.00     0.035 A 
HETATM    2  C   UNL     1       8.180  29.237  57.995  1.00  0.00     0.046 A 
HETATM    3  C   UNL     1       8.279  28.828  56.656  1.00  0.00     0.034 A 
HETATM    4  C   UNL     1       9.392  29.228  55.900  1.00  0.00     0.017 A 
HETATM    5  C   UNL     1      10.385  30.024  56.463  1.00  0.00     0.003 A 
HETATM    6  C   UNL     1      10.277  30.425  57.791  1.00  0.00     0.029 A 
ENDROOT
BRANCH   1   7
HETATM    7  N   UNL     1       9.160  30.488  59.899  1.00  0.00    -0.327 N 
HETATM    8  C   UNL     1       9.156  31.788  60.366  1.00  0.00     0.227 C 
HETATM    9  O   UNL     1       9.167  32.799  59.664  1.00  0.00    -0.273 OA
HETATM   10  H   UNL     1       9.056  29.777  60.628  1.00  0.00     0.169 HD
BRANCH   8  11
HETATM   11  C   UNL     1       9.247  31.906  61.884  1.00  0.00     0.164 C 
BRANCH  11  12
HETATM   12  C   UNL     1       7.946  32.187  62.568  1.00  0.00     0.065 A 
HETATM   13  N   UNL     1       6.808  31.611  62.145  1.00  0.00    -0.179 NA
HETATM   14  N   UNL     1       5.878  32.052  63.012  1.00  0.00    -0.282 N 
HETATM   15  C   UNL     1       6.377  32.883  63.973  1.00  0.00     0.026 A 
HETATM   16  H   UNL     1       4.920  31.736  62.894  1.00  0.00     0.189 HD
HETATM   17  C   UNL     1       5.531  33.471  65.037  1.00  0.00     0.070 C 
HETATM   18  C   UNL     1       7.723  32.997  63.706  1.00  0.00     0.055 A 
ENDBRANCH  11  12
ENDBRANCH   8  11
ENDBRANCH   1   7
BRANCH   3  19
HETATM   19  C   UNL     1       7.243  28.004  55.959  1.00  0.00     0.252 C 
HETATM   20  N   UNL     1       7.543  26.696  55.642  1.00  0.00    -0.353 N 
HETATM   21  H   UNL     1       8.493  26.355  55.685  1.00  0.00     0.163 HD
HETATM   22  O   UNL     1       6.156  28.507  55.686  1.00  0.00    -0.268 OA
BRANCH  20  23
HETATM   23  C   UNL     1       6.586  25.893  54.909  1.00  0.00     0.161 C 
BRANCH  23  24
HETATM   24  C   UNL     1       7.108  24.526  54.543  1.00  0.00    -0.041 A 
HETATM   25  C   UNL     1       7.223  23.502  55.496  1.00  0.00     0.009 A 
HETATM   26  C   UNL     1       7.639  22.224  55.118  1.00  0.00     0.001 A 
HETATM   27  C   UNL     1       7.927  21.947  53.784  1.00  0.00     0.000 A 
HETATM   28  C   UNL     1       7.799  22.947  52.824  1.00  0.00     0.001 A 
HETATM   29  C   UNL     1       7.389  24.229  53.200  1.00  0.00     0.009 A 
ENDBRANCH  23  24
ENDBRANCH  20  23
ENDBRANCH   3  19
TORSDOF 6
ENDMDL
MODEL 3
REMARK VINA RESULT:      -9.5      1.905      9.562
REMARK  6 active torsions:
REMARK  status: ('A' for Active; 'I' for Inactive)
REMARK    1  A    between atoms: C_6  and  C_7 
REMARK    2  A    between atoms: C_7  and  C_8 
REMARK       I    between atoms: C_8  and  N_9 
REMARK    3  A    between atoms: N_9  and  C_10 
REMARK    4  A    between atoms: C_12  and  C_13 
REMARK       I    between atoms: C_13  and  N_14 
REMARK    5  A    between atoms: N_14  and  C_15 
REMARK    6  A    between atoms: C_15  and  C_16 
ROOT
HETATM    1  C   UNL     1       8.170  28.656  57.365  1.00  0.00     0.035 A 
HETATM    2  C   UNL     1       8.202  29.519  58.467  1.00  0.00     0.046 A 
HETATM    3  C   UNL     1       9.218  30.479  58.588  1.00  0.00     0.034 A 
HETATM    4  C   UNL     1      10.204  30.559  57.593  1.00  0.00     0.017 A 
HETATM    5  C   UNL     1      10.184  29.697  56.499  1.00  0.00     0.003 A 
HETATM    6  C   UNL     1       9.171  28.748  56.389  1.00  0.00     0.029 A 
ENDROOT
BRANCH   1   7
HETATM    7  N   UNL     1       7.193  27.663  57.167  1.00  0.00    -0.327 N 
HETATM    8  C   UNL     1       7.214  26.339  57.559  1.00  0.00     0.227 C 
HETATM    9  O   UNL     1       8.127  25.791  58.176  1.00  0.00    -0.273 OA
HETATM   10  H   UNL     1       6.311  27.966  56.745  1.00  0.00     0.169 HD
BRANCH   8  11
HETATM   11  C   UNL     1       6.021  25.524  57.069  1.00  0.00     0.164 C 
BRANCH  11  12
HETATM   12  C   UNL     1       6.217  24.869  55.738  1.00  0.00     0.065 A 
HETATM   13  N   UNL     1       5.441  25.194  54.690  1.00  0.00    -0.179 NA
HETATM   14  N   UNL     1       5.934  24.456  53.679  1.00  0.00    -0.282 N 
HETATM   15  C   UNL     1       6.995  23.675  54.038  1.00  0.00     0.026 A 
HETATM   16  H   UNL     1       5.502  24.541  52.764  1.00  0.00     0.189 HD
HETATM   17  C   UNL     1       7.699  22.794  53.078  1.00  0.00     0.070 C 
HETATM   18  C   UNL     1       7.199  23.917  55.378  1.00  0.00     0.055 A 
ENDBRANCH  11  12
ENDBRANCH   8  11
ENDBRANCH   1   7
BRANCH   3  19
HETATM   19  C   UNL     1       9.341  31.420  59.745  1.00  0.00     0.252 C 
HETATM   20  N   UNL     1       9.293  30.905  61.022  1.00  0.00    -0.353 N 
HETATM   21  H   UNL     1       8.981  29.959  61.191  1.00  0.00     0.163 HD
HETATM   22  O   UNL     1       9.479  32.622  59.532  1.00  0.00    -0.268 OA
BRANCH  20  23
HETATM   23  C   UNL     1       9.343  31.796  62.163  1.00  0.00     0.161 C 
BRANCH  23  24
HETATM   24  C   UNL     1       7.982  32.136  62.717  1.00  0.00    -0.041 A 
HETATM   25  C   UNL     1       6.811  31.570  62.189  1.00  0.00     0.009 A 
HETATM   26  C   UNL     1       5.568  31.843  62.765  1.00  0.00     0.001 A 
HETATM   27  C   UNL     1       5.481  32.666  63.886  1.00  0.00     0.000 A 
HETATM   28  C   UNL     1       6.637  33.219  64.431  1.00  0.00     0.001 A 
HETATM   29  C   UNL     1       7.880  32.954  63.853  1.00  0.00     0.009 A 
ENDBRANCH  23  24
ENDBRANCH  20  23
ENDBRANCH   3  19
TORSDOF 6
ENDMDL
MODEL 4
REMARK VINA RESULT:      -9.4      1.805      2.350
REMARK  6 active torsions:
REMARK  status: ('A' for Active; 'I' for Inactive)
REMARK    1  A    between atoms: C_6  and  C_7 
REMARK    2  A    between atoms: C_7  and  C_8 
REMARK       I    between atoms: C_8  and  N_9 
REMARK    3  A    between atoms: N_9  and  C_10 
REMARK    4  A    between atoms: C_12  and  C_13 
REMARK       I    between atoms: C_13  and  N_14 
REMARK    5  A    between atoms: N_14  and  C_15 
REMARK    6  A    between atoms: C_15  and  C_16 
ROOT
HETATM    1  C   UNL     1       7.127  28.821  55.667  1.00  0.00     0.035 A 
HETATM    2  C   UNL     1       7.300  27.608  54.989  1.00  0.00     0.046 A 
HETATM    3  C   UNL     1       6.229  27.025  54.292  1.00  0.00     0.034 A 
HETATM    4  C   UNL     1       4.983  27.671  54.290  1.00  0.00     0.017 A 
HETATM    5  C   UNL     1       4.803  28.872  54.971  1.00  0.00     0.003 A 
HETATM    6  C   UNL     1       5.871  29.441  55.658  1.00  0.00     0.029 A 
ENDROOT
BRANCH   1   7
HETATM    7  N   UNL     1       8.142  29.470  56.392  1.00  0.00    -0.327 N 
HETATM    8  C   UNL     1       8.538  29.266  57.699  1.00  0.00     0.227 C 
HETATM    9  O   UNL     1       8.049  28.442  58.473  1.00  0.00    -0.273 OA
HETATM   10  H   UNL     1       8.724  30.133  55.872  1.00  0.00     0.169 HD
BRANCH   8  11
HETATM   11  C   UNL     1       9.605  30.240  58.189  1.00  0.00     0.164 C 
BRANCH  11  12
HETATM   12  C   UNL     1       9.201  31.066  59.369  1.00  0.00     0.065 A 
HETATM   13  N   UNL     1       8.807  32.342  59.215  1.00  0.00    -0.179 NA
HETATM   14  N   UNL     1       8.482  32.735  60.460  1.00  0.00    -0.282 N 
HETATM   15  C   UNL     1       8.650  31.761  61.403  1.00  0.00     0.026 A 
HETATM   16  H   UNL     1       8.142  33.683  60.594  1.00  0.00     0.189 HD
HETATM   17  C   UNL     1       8.339  31.975  62.834  1.00  0.00     0.070 C 
HETATM   18  C   UNL     1       9.125  30.663  60.723  1.00  0.00     0.055 A 
ENDBRANCH  11  12
ENDBRANCH   8  11
ENDBRANCH   1   7
BRANCH   3  19
HETATM   19  C   UNL     1       6.320  25.721  53.565  1.00  0.00     0.252 C 
HETATM   20  N   UNL     1       7.560  25.138  53.409  1.00  0.00    -0.353 N 
HETATM   21  H   UNL     1       8.407  25.659  53.589  1.00  0.00     0.163 HD
HETATM   22  O   UNL     1       5.297  25.202  53.126  1.00  0.00    -0.268 OA
BRANCH  20  23
HETATM   23  C   UNL     1       7.690  23.909  52.653  1.00  0.00     0.161 C 
BRANCH  23  24
HETATM   24  C   UNL     1       7.772  22.679  53.521  1.00  0.00    -0.041 A 
HETATM   25  C   UNL     1       8.116  21.426  52.990  1.00  0.00     0.009 A 
HETATM   26  C   UNL     1       8.256  20.315  53.825  1.00  0.00     0.001 A 
HETATM   27  C   UNL     1       8.075  20.445  55.200  1.00  0.00     0.000 A 
HETATM   28  C   UNL     1       7.752  21.686  55.743  1.00  0.00     0.001 A 
HETATM   29  C   UNL     1       7.604  22.797  54.909  1.00  0.00     0.009 A 
ENDBRANCH  23  24
ENDBRANCH  20  23
ENDBRANCH   3  19
TORSDOF 6
ENDMDL
MODEL 5
REMARK VINA RESULT:      -9.3      1.479      1.919
REMARK  6 active torsions:
REMARK  status: ('A' for Active; 'I' for Inactive)
REMARK    1  A    between atoms: C_6  and  C_7 
REMARK    2  A    between atoms: C_7  and  C_8 
REMARK       I    between atoms: C_8  and  N_9 
REMARK    3  A    between atoms: N_9  and  C_10 
REMARK    4  A    between atoms: C_12  and  C_13 
REMARK       I    between atoms: C_13  and  N_14 
REMARK    5  A    between atoms: N_14  and  C_15 
REMARK    6  A    between atoms: C_15  and  C_16 
ROOT
HETATM    1  C   UNL     1       7.188  28.962  56.853  1.00  0.00     0.035 A 
HETATM    2  C   UNL     1       7.632  28.120  55.826  1.00  0.00     0.046 A 
HETATM    3  C   UNL     1       6.761  27.183  55.249  1.00  0.00     0.034 A 
HETATM    4  C   UNL     1       5.441  27.097  55.720  1.00  0.00     0.017 A 
HETATM    5  C   UNL     1       4.997  27.924  56.748  1.00  0.00     0.003 A 
HETATM    6  C   UNL     1       5.869  28.850  57.312  1.00  0.00     0.029 A 
ENDROOT
BRANCH   1   7
HETATM    7  N   UNL     1       7.994  29.924  57.488  1.00  0.00    -0.327 N 
HETATM    8  C   UNL     1       9.372  29.983  57.566  1.00  0.00     0.227 C 
HETATM    9  O   UNL     1      10.151  29.171  57.066  1.00  0.00    -0.273 OA
HETATM   10  H   UNL     1       7.512  30.735  57.886  1.00  0.00     0.169 HD
BRANCH   8  11
HETATM   11  C   UNL     1       9.900  31.116  58.441  1.00  0.00     0.164 C 
BRANCH  11  12
HETATM   12  C   UNL     1       9.297  31.181  59.808  1.00  0.00     0.065 A 
HETATM   13  N   UNL     1       8.858  30.068  60.421  1.00  0.00    -0.179 NA
HETATM   14  N   UNL     1       8.439  30.502  61.624  1.00  0.00    -0.282 N 
HETATM   15  C   UNL     1       8.595  31.846  61.805  1.00  0.00     0.026 A 
HETATM   16  H   UNL     1       8.064  29.822  62.279  1.00  0.00     0.189 HD
HETATM   17  C   UNL     1       8.213  32.532  63.061  1.00  0.00     0.070 C 
HETATM   18  C   UNL     1       9.146  32.319  60.635  1.00  0.00     0.055 A 
ENDBRANCH  11  12
ENDBRANCH   8  11
ENDBRANCH   1   7
BRANCH   3  19
HETATM   19  C   UNL     1       7.161  26.229  54.168  1.00  0.00     0.252 C 
HETATM   20  N   UNL     1       6.611  24.965  54.166  1.00  0.00    -0.353 N 
HETATM   21  H   UNL     1       6.117  24.611  54.973  1.00  0.00     0.163 HD
HETATM   22  O   UNL     1       7.965  26.591  53.312  1.00  0.00    -0.268 OA
BRANCH  20  23
HETATM   23  C   UNL     1       7.029  23.998  53.172  1.00  0.00     0.161 C 
BRANCH  23  24
HETATM   24  C   UNL     1       7.542  22.710  53.767  1.00  0.00    -0.041 A 
HETATM   25  C   UNL     1       7.502  22.472  55.149  1.00  0.00     0.009 A 
HETATM   26  C   UNL     1       7.915  21.244  55.671  1.00  0.00     0.001 A 
HETATM   27  C   UNL     1       8.354  20.233  54.818  1.00  0.00     0.000 A 
HETATM   28  C   UNL     1       8.381  20.449  53.443  1.00  0.00     0.001 A 
HETATM   29  C   UNL     1       7.974  21.679  52.919  1.00  0.00     0.009 A 
ENDBRANCH  23  24
ENDBRANCH  20  23
ENDBRANCH   3  19
TORSDOF 6
ENDMDL
MODEL 6
REMARK VINA RESULT:      -9.0      1.840      9.519
REMARK  6 active torsions:
REMARK  status: ('A' for Active; 'I' for Inactive)
REMARK    1  A    between atoms: C_6  and  C_7 
REMARK    2  A    between atoms: C_7  and  C_8 
REMARK       I    between atoms: C_8  and  N_9 
REMARK    3  A    between atoms: N_9  and  C_10 
REMARK    4  A    between atoms: C_12  and  C_13 
REMARK       I    between atoms: C_13  and  N_14 
REMARK    5  A    between atoms: N_14  and  C_15 
REMARK    6  A    between atoms: C_15  and  C_16 
ROOT
HETATM    1  C   UNL     1       6.080  27.223  55.921  1.00  0.00     0.035 A 
HETATM    2  C   UNL     1       7.119  27.690  56.737  1.00  0.00     0.046 A 
HETATM    3  C   UNL     1       6.944  28.843  57.518  1.00  0.00     0.034 A 
HETATM    4  C   UNL     1       5.718  29.524  57.466  1.00  0.00     0.017 A 
HETATM    5  C   UNL     1       4.686  29.071  56.649  1.00  0.00     0.003 A 
HETATM    6  C   UNL     1       4.870  27.926  55.879  1.00  0.00     0.029 A 
ENDROOT
BRANCH   1   7
HETATM    7  N   UNL     1       6.171  26.082  55.105  1.00  0.00    -0.327 N 
HETATM    8  C   UNL     1       6.885  25.909  53.935  1.00  0.00     0.227 C 
HETATM    9  O   UNL     1       7.592  26.762  53.397  1.00  0.00    -0.273 OA
HETATM   10  H   UNL     1       5.714  25.233  55.450  1.00  0.00     0.169 HD
BRANCH   8  11
HETATM   11  C   UNL     1       6.654  24.564  53.255  1.00  0.00     0.164 C 
BRANCH  11  12
HETATM   12  C   UNL     1       7.196  23.386  54.002  1.00  0.00     0.065 A 
HETATM   13  N   UNL     1       7.116  23.324  55.342  1.00  0.00    -0.179 NA
HETATM   14  N   UNL     1       7.649  22.127  55.646  1.00  0.00    -0.282 N 
HETATM   15  C   UNL     1       8.063  21.420  54.553  1.00  0.00     0.026 A 
HETATM   16  H   UNL     1       7.691  21.850  56.622  1.00  0.00     0.189 HD
HETATM   17  C   UNL     1       8.666  20.072  54.657  1.00  0.00     0.070 C 
HETATM   18  C   UNL     1       7.788  22.218  53.466  1.00  0.00     0.055 A 
ENDBRANCH  11  12
ENDBRANCH   8  11
ENDBRANCH   1   7
BRANCH   3  19
HETATM   19  C   UNL     1       8.009  29.423  58.395  1.00  0.00     0.252 C 
HETATM   20  N   UNL     1       7.627  30.163  59.494  1.00  0.00    -0.353 N 
HETATM   21  H   UNL     1       6.676  30.483  59.602  1.00  0.00     0.163 HD
HETATM   22  O   UNL     1       9.190  29.230  58.117  1.00  0.00    -0.268 OA
BRANCH  20  23
HETATM   23  C   UNL     1       8.634  30.792  60.325  1.00  0.00     0.161 C 
BRANCH  23  24
HETATM   24  C   UNL     1       8.064  31.785  61.307  1.00  0.00    -0.041 A 
HETATM   25  C   UNL     1       7.000  32.634  60.962  1.00  0.00     0.009 A 
HETATM   26  C   UNL     1       6.441  33.493  61.909  1.00  0.00     0.001 A 
HETATM   27  C   UNL     1       6.922  33.503  63.216  1.00  0.00     0.000 A 
HETATM   28  C   UNL     1       7.964  32.653  63.578  1.00  0.00     0.001 A 
HETATM   29  C   UNL     1       8.530  31.797  62.631  1.00  0.00     0.009 A 
ENDBRANCH  23  24
ENDBRANCH  20  23
ENDBRANCH   3  19
TORSDOF 6
ENDMDL
MODEL 7
REMARK VINA RESULT:      -8.8      4.982      8.343
REMARK  6 active torsions:
REMARK  status: ('A' for Active; 'I' for Inactive)
REMARK    1  A    between atoms: C_6  and  C_7 
REMARK    2  A    between atoms: C_7  and  C_8 
REMARK       I    between atoms: C_8  and  N_9 
REMARK    3  A    between atoms: N_9  and  C_10 
REMARK    4  A    between atoms: C_12  and  C_13 
REMARK       I    between atoms: C_13  and  N_14 
REMARK    5  A    between atoms: N_14  and  C_15 
REMARK    6  A    between atoms: C_15  and  C_16 
ROOT
HETATM    1  C   UNL     1       4.526  28.240  52.976  1.00  0.00     0.035 A 
HETATM    2  C   UNL     1       5.114  27.160  53.647  1.00  0.00     0.046 A 
HETATM    3  C   UNL     1       5.153  27.133  55.050  1.00  0.00     0.034 A 
HETATM    4  C   UNL     1       4.601  28.204  55.770  1.00  0.00     0.017 A 
HETATM    5  C   UNL     1       4.025  29.285  55.108  1.00  0.00     0.003 A 
HETATM    6  C   UNL     1       3.991  29.302  53.717  1.00  0.00     0.029 A 
ENDROOT
BRANCH   1   7
HETATM    7  N   UNL     1       4.448  28.351  51.576  1.00  0.00    -0.327 N 
HETATM    8  C   UNL     1       5.179  29.162  50.730  1.00  0.00     0.227 C 
HETATM    9  O   UNL     1       6.059  29.950  51.080  1.00  0.00    -0.273 OA
HETATM   10  H   UNL     1       3.824  27.695  51.098  1.00  0.00     0.169 HD
BRANCH   8  11
HETATM   11  C   UNL     1       4.741  29.099  49.271  1.00  0.00     0.164 C 
BRANCH  11  12
HETATM   12  C   UNL     1       3.868  27.932  48.932  1.00  0.00     0.065 A 
HETATM   13  N   UNL     1       2.528  28.046  48.951  1.00  0.00    -0.179 NA
HETATM   14  N   UNL     1       2.093  26.837  48.552  1.00  0.00    -0.282 N 
HETATM   15  C   UNL     1       3.100  25.957  48.276  1.00  0.00     0.026 A 
HETATM   16  H   UNL     1       1.092  26.683  48.481  1.00  0.00     0.189 HD
HETATM   17  C   UNL     1       2.846  24.575  47.808  1.00  0.00     0.070 C 
HETATM   18  C   UNL     1       4.270  26.639  48.521  1.00  0.00     0.055 A 
ENDBRANCH  11  12
ENDBRANCH   8  11
ENDBRANCH   1   7
BRANCH   3  19
HETATM   19  C   UNL     1       5.784  26.033  55.843  1.00  0.00     0.252 C 
HETATM   20  N   UNL     1       6.770  25.273  55.250  1.00  0.00    -0.353 N 
HETATM   21  H   UNL     1       6.927  25.310  54.253  1.00  0.00     0.163 HD
HETATM   22  O   UNL     1       5.411  25.831  56.997  1.00  0.00    -0.268 OA
BRANCH  20  23
HETATM   23  C   UNL     1       7.353  24.159  55.969  1.00  0.00     0.161 C 
BRANCH  23  24
HETATM   24  C   UNL     1       7.531  22.926  55.119  1.00  0.00    -0.041 A 
HETATM   25  C   UNL     1       7.674  23.007  53.725  1.00  0.00     0.009 A 
HETATM   26  C   UNL     1       7.911  21.858  52.967  1.00  0.00     0.001 A 
HETATM   27  C   UNL     1       8.028  20.619  53.592  1.00  0.00     0.000 A 
HETATM   28  C   UNL     1       7.908  20.526  54.976  1.00  0.00     0.001 A 
HETATM   29  C   UNL     1       7.664  21.672  55.736  1.00  0.00     0.009 A 
ENDBRANCH  23  24
ENDBRANCH  20  23
ENDBRANCH   3  19
TORSDOF 6
ENDMDL
MODEL 8
REMARK VINA RESULT:      -8.7      1.912      9.782
REMARK  6 active torsions:
REMARK  status: ('A' for Active; 'I' for Inactive)
REMARK    1  A    between atoms: C_6  and  C_7 
REMARK    2  A    between atoms: C_7  and  C_8 
REMARK       I    between atoms: C_8  and  N_9 
REMARK    3  A    between atoms: N_9  and  C_10 
REMARK    4  A    between atoms: C_12  and  C_13 
REMARK       I    between atoms: C_13  and  N_14 
REMARK    5  A    between atoms: N_14  and  C_15 
REMARK    6  A    between atoms: C_15  and  C_16 
ROOT
HETATM    1  C   UNL     1       8.504  28.343  57.379  1.00  0.00     0.035 A 
HETATM    2  C   UNL     1       7.881  29.372  58.096  1.00  0.00     0.046 A 
HETATM    3  C   UNL     1       8.563  30.570  58.358  1.00  0.00     0.034 A 
HETATM    4  C   UNL     1       9.880  30.721  57.897  1.00  0.00     0.017 A 
HETATM    5  C   UNL     1      10.509  29.698  57.191  1.00  0.00     0.003 A 
HETATM    6  C   UNL     1       9.823  28.514  56.937  1.00  0.00     0.029 A 
ENDROOT
BRANCH   1   7
HETATM    7  N   UNL     1       7.897  27.111  57.076  1.00  0.00    -0.327 N 
HETATM    8  C   UNL     1       7.178  26.754  55.952  1.00  0.00     0.227 C 
HETATM    9  O   UNL     1       6.948  27.486  54.989  1.00  0.00    -0.273 OA
HETATM   10  H   UNL     1       8.064  26.344  57.733  1.00  0.00     0.169 HD
BRANCH   8  11
HETATM   11  C   UNL     1       6.565  25.359  56.020  1.00  0.00     0.164 C 
BRANCH  11  12
HETATM   12  C   UNL     1       7.421  24.273  55.450  1.00  0.00     0.065 A 
HETATM   13  N   UNL     1       8.616  23.982  55.993  1.00  0.00    -0.179 NA
HETATM   14  N   UNL     1       9.062  22.944  55.262  1.00  0.00    -0.282 N 
HETATM   15  C   UNL     1       8.199  22.558  54.277  1.00  0.00     0.026 A 
HETATM   16  H   UNL     1       9.963  22.539  55.498  1.00  0.00     0.189 HD
HETATM   17  C   UNL     1       8.484  21.428  53.364  1.00  0.00     0.070 C 
HETATM   18  C   UNL     1       7.123  23.411  54.368  1.00  0.00     0.055 A 
ENDBRANCH  11  12
ENDBRANCH   8  11
ENDBRANCH   1   7
BRANCH   3  19
HETATM   19  C   UNL     1       7.981  31.706  59.139  1.00  0.00     0.252 C 
HETATM   20  N   UNL     1       6.706  31.572  59.646  1.00  0.00    -0.353 N 
HETATM   21  H   UNL     1       6.098  30.828  59.338  1.00  0.00     0.163 HD
HETATM   22  O   UNL     1       8.647  32.725  59.307  1.00  0.00    -0.268 OA
BRANCH  20  23
HETATM   23  C   UNL     1       6.090  32.679  60.350  1.00  0.00     0.161 C 
BRANCH  23  24
HETATM   24  C   UNL     1       6.563  32.820  61.775  1.00  0.00    -0.041 A 
HETATM   25  C   UNL     1       7.476  31.917  62.340  1.00  0.00     0.009 A 
HETATM   26  C   UNL     1       7.955  32.109  63.637  1.00  0.00     0.001 A 
HETATM   27  C   UNL     1       7.544  33.214  64.379  1.00  0.00     0.000 A 
HETATM   28  C   UNL     1       6.653  34.129  63.825  1.00  0.00     0.001 A 
HETATM   29  C   UNL     1       6.167  33.935  62.529  1.00  0.00     0.009 A 
ENDBRANCH  23  24
ENDBRANCH  20  23
ENDBRANCH   3  19
TORSDOF 6
ENDMDL
MODEL 9
REMARK VINA RESULT:      -8.6      2.100      2.502
REMARK  6 active torsions:
REMARK  status: ('A' for Active; 'I' for Inactive)
REMARK    1  A    between atoms: C_6  and  C_7 
REMARK    2  A    between atoms: C_7  and  C_8 
REMARK       I    between atoms: C_8  and  N_9 
REMARK    3  A    between atoms: N_9  and  C_10 
REMARK    4  A    between atoms: C_12  and  C_13 
REMARK       I    between atoms: C_13  and  N_14 
REMARK    5  A    between atoms: N_14  and  C_15 
REMARK    6  A    between atoms: C_15  and  C_16 
ROOT
HETATM    1  C   UNL     1       6.320  29.594  57.048  1.00  0.00     0.035 A 
HETATM    2  C   UNL     1       6.874  28.377  57.467  1.00  0.00     0.046 A 
HETATM    3  C   UNL     1       6.956  27.292  56.580  1.00  0.00     0.034 A 
HETATM    4  C   UNL     1       6.470  27.441  55.271  1.00  0.00     0.017 A 
HETATM    5  C   UNL     1       5.909  28.645  54.853  1.00  0.00     0.003 A 
HETATM    6  C   UNL     1       5.833  29.714  55.741  1.00  0.00     0.029 A 
ENDROOT
BRANCH   1   7
HETATM    7  N   UNL     1       6.195  30.728  57.871  1.00  0.00    -0.327 N 
HETATM    8  C   UNL     1       5.050  31.288  58.404  1.00  0.00     0.227 C 
HETATM    9  O   UNL     1       3.905  30.863  58.243  1.00  0.00    -0.273 OA
HETATM   10  H   UNL     1       7.065  31.163  58.187  1.00  0.00     0.169 HD
BRANCH   8  11
HETATM   11  C   UNL     1       5.286  32.591  59.160  1.00  0.00     0.164 C 
BRANCH  11  12
HETATM   12  C   UNL     1       6.387  32.535  60.171  1.00  0.00     0.065 A 
HETATM   13  N   UNL     1       7.675  32.509  59.787  1.00  0.00    -0.179 NA
HETATM   14  N   UNL     1       8.361  32.511  60.945  1.00  0.00    -0.282 N 
HETATM   15  C   UNL     1       7.563  32.540  62.053  1.00  0.00     0.026 A 
HETATM   16  H   UNL     1       9.375  32.501  60.905  1.00  0.00     0.189 HD
HETATM   17  C   UNL     1       8.110  32.561  63.429  1.00  0.00     0.070 C 
HETATM   18  C   UNL     1       6.270  32.549  61.581  1.00  0.00     0.055 A 
ENDBRANCH  11  12
ENDBRANCH   8  11
ENDBRANCH   1   7
BRANCH   3  19
HETATM   19  C   UNL     1       7.508  25.953  56.953  1.00  0.00     0.252 C 
HETATM   20  N   UNL     1       7.152  24.858  56.193  1.00  0.00    -0.353 N 
HETATM   21  H   UNL     1       6.387  24.907  55.536  1.00  0.00     0.163 HD
HETATM   22  O   UNL     1       8.259  25.858  57.920  1.00  0.00    -0.268 OA
BRANCH  20  23
HETATM   23  C   UNL     1       7.617  23.538  56.568  1.00  0.00     0.161 C 
BRANCH  23  24
HETATM   24  C   UNL     1       7.836  22.624  55.389  1.00  0.00    -0.041 A 
HETATM   25  C   UNL     1       7.954  21.234  55.547  1.00  0.00     0.009 A 
HETATM   26  C   UNL     1       8.084  20.401  54.434  1.00  0.00     0.001 A 
HETATM   27  C   UNL     1       8.077  20.941  53.150  1.00  0.00     0.000 A 
HETATM   28  C   UNL     1       7.941  22.316  52.977  1.00  0.00     0.001 A 
HETATM   29  C   UNL     1       7.818  23.153  54.089  1.00  0.00     0.009 A 
ENDBRANCH  23  24
ENDBRANCH  20  23
ENDBRANCH   3  19
TORSDOF 6
ENDMDL
MODEL 10
REMARK VINA RESULT:      -8.4      4.046      6.631
REMARK  6 active torsions:
REMARK  status: ('A' for Active; 'I' for Inactive)
REMARK    1  A    between atoms: C_6  and  C_7 
REMARK    2  A    between atoms: C_7  and  C_8 
REMARK       I    between atoms: C_8  and  N_9 
REMARK    3  A    between atoms: N_9  and  C_10 
REMARK    4  A    between atoms: C_12  and  C_13 
REMARK       I    between atoms: C_13  and  N_14 
REMARK    5  A    between atoms: N_14  and  C_15 
REMARK    6  A    between atoms: C_15  and  C_16 
ROOT
HETATM    1  C   UNL     1       7.290  32.232  61.861  1.00  0.00     0.035 A 
HETATM    2  C   UNL     1       7.033  31.724  60.581  1.00  0.00     0.046 A 
HETATM    3  C   UNL     1       8.010  30.977  59.905  1.00  0.00     0.034 A 
HETATM    4  C   UNL     1       9.248  30.751  60.525  1.00  0.00     0.017 A 
HETATM    5  C   UNL     1       9.513  31.262  61.793  1.00  0.00     0.003 A 
HETATM    6  C   UNL     1       8.537  32.001  62.455  1.00  0.00     0.029 A 
ENDROOT
BRANCH   1   7
HETATM    7  N   UNL     1       6.371  32.993  62.606  1.00  0.00    -0.327 N 
HETATM    8  C   UNL     1       5.266  32.563  63.316  1.00  0.00     0.227 C 
HETATM    9  O   UNL     1       4.895  31.394  63.419  1.00  0.00    -0.273 OA
HETATM   10  H   UNL     1       6.578  33.990  62.708  1.00  0.00     0.169 HD
BRANCH   8  11
HETATM   11  C   UNL     1       4.429  33.691  63.911  1.00  0.00     0.164 C 
BRANCH  11  12
HETATM   12  C   UNL     1       3.168  33.993  63.165  1.00  0.00     0.065 A 
HETATM   13  N   UNL     1       1.973  33.921  63.776  1.00  0.00    -0.179 NA
HETATM   14  N   UNL     1       1.098  34.299  62.826  1.00  0.00    -0.282 N 
HETATM   15  C   UNL     1       1.687  34.614  61.635  1.00  0.00     0.026 A 
HETATM   16  H   UNL     1       0.111  34.330  63.063  1.00  0.00     0.189 HD
HETATM   17  C   UNL     1       0.912  35.069  60.458  1.00  0.00     0.070 C 
HETATM   18  C   UNL     1       3.036  34.416  61.822  1.00  0.00     0.055 A 
ENDBRANCH  11  12
ENDBRANCH   8  11
ENDBRANCH   1   7
BRANCH   3  19
HETATM   19  C   UNL     1       7.827  30.421  58.528  1.00  0.00     0.252 C 
HETATM   20  N   UNL     1       6.587  29.938  58.170  1.00  0.00    -0.353 N 
HETATM   21  H   UNL     1       5.874  29.767  58.866  1.00  0.00     0.163 HD
HETATM   22  O   UNL     1       8.780  30.408  57.752  1.00  0.00    -0.268 OA
BRANCH  20  23
HETATM   23  C   UNL     1       6.395  29.334  56.868  1.00  0.00     0.161 C 
BRANCH  23  24
HETATM   24  C   UNL     1       6.399  27.826  56.901  1.00  0.00    -0.041 A 
HETATM   25  C   UNL     1       7.577  27.098  57.128  1.00  0.00     0.009 A 
HETATM   26  C   UNL     1       7.544  25.705  57.227  1.00  0.00     0.001 A 
HETATM   27  C   UNL     1       6.333  25.024  57.120  1.00  0.00     0.000 A 
HETATM   28  C   UNL     1       5.154  25.735  56.914  1.00  0.00     0.001 A 
HETATM   29  C   UNL     1       5.185  27.127  56.808  1.00  0.00     0.009 A 
ENDBRANCH  23  24
ENDBRANCH  20  23
ENDBRANCH   3  19
TORSDOF 6
ENDMDL
