MODEL 1
REMARK VINA RESULT:     -11.4      0.000      0.000
REMARK  5 active torsions:
REMARK  status: ('A' for Active; 'I' for Inactive)
REMARK    1  A    between atoms: C_4  and  C_5 
REMARK    2  A    between atoms: C_5  and  N_6 
REMARK    3  A    between atoms: C_7  and  N_8 
REMARK    4  A    between atoms: N_8  and  N_9 
REMARK       I    between atoms: N_9  and  C_10 
REMARK    5  A    between atoms: C_10  and  C_11 
ROOT
HETATM    1  N   UNL     1       7.387  26.930  56.044  1.00  0.00    -0.282 N 
HETATM    2  C   UNL     1       7.210  26.758  54.656  1.00  0.00     0.204 A 
HETATM    3  N   UNL     1       7.338  25.605  54.039  1.00  0.00    -0.217 NA
HETATM    4  C   UNL     1       7.713  24.530  54.838  1.00  0.00     0.090 A 
HETATM    5  C   UNL     1       7.924  24.639  56.185  1.00  0.00     0.103 A 
HETATM    6  S   UNL     1       8.392  23.159  56.908  1.00  0.00    -0.086 SA
HETATM    7  C   UNL     1       8.316  22.404  55.411  1.00  0.00    -0.008 A 
HETATM    8  C   UNL     1       7.947  23.229  54.381  1.00  0.00    -0.015 A 
HETATM    9  C   UNL     1       7.917  22.502  53.093  1.00  0.00     0.042 C 
HETATM   10  C   UNL     1       7.998  21.010  53.554  1.00  0.00     0.010 C 
HETATM   11  C   UNL     1       8.590  21.010  54.998  1.00  0.00     0.047 C 
HETATM   12  C   UNL     1       7.763  25.873  56.888  1.00  0.00     0.269 A 
HETATM   13  O   UNL     1       7.938  26.003  58.099  1.00  0.00    -0.266 OA
ENDROOT
BRANCH   2  14
HETATM   14  N   UNL     1       6.876  27.875  53.906  1.00  0.00    -0.170 NA
HETATM   15  H   UNL     1       7.565  28.628  53.883  1.00  0.00     0.156 HD
BRANCH  14  16
HETATM   16  N   UNL     1       6.340  27.643  52.630  1.00  0.00    -0.279 N 
HETATM   17  C   UNL     1       5.125  28.221  52.321  1.00  0.00     0.289 C 
HETATM   18  O   UNL     1       4.593  29.031  53.085  1.00  0.00    -0.264 OA
HETATM   19  H   UNL     1       6.842  27.007  52.015  1.00  0.00     0.184 HD
BRANCH  17  20
HETATM   20  C   UNL     1       4.542  27.778  51.077  1.00  0.00     0.145 A 
HETATM   21  O   UNL     1       3.486  28.470  50.542  1.00  0.00    -0.304 OA
HETATM   22  C   UNL     1       3.197  27.896  49.342  1.00  0.00     0.086 A 
HETATM   23  C   UNL     1       4.041  26.817  49.104  1.00  0.00     0.001 A 
HETATM   24  C   UNL     1       2.208  28.323  48.458  1.00  0.00     0.038 A 
HETATM   25  C   UNL     1       4.898  26.745  50.230  1.00  0.00     0.057 A 
HETATM   26  C   UNL     1       3.894  26.101  47.904  1.00  0.00     0.014 A 
HETATM   27  C   UNL     1       2.910  26.509  46.993  1.00  0.00     0.001 A 
HETATM   28  C   UNL     1       2.083  27.603  47.266  1.00  0.00     0.003 A 
ENDBRANCH  17  20
ENDBRANCH  14  16
ENDBRANCH   2  14
BRANCH   1  29
HETATM   29  C   UNL     1       7.078  28.195  56.713  1.00  0.00     0.173 C 
BRANCH  29  30
HETATM   30  C   UNL     1       8.322  29.003  57.023  1.00  0.00    -0.040 A 
HETATM   31  C   UNL     1       8.464  29.635  58.268  1.00  0.00     0.009 A 
HETATM   32  C   UNL     1       9.596  30.400  58.553  1.00  0.00     0.001 A 
HETATM   33  C   UNL     1      10.599  30.545  57.598  1.00  0.00     0.000 A 
HETATM   34  C   UNL     1      10.472  29.924  56.358  1.00  0.00     0.001 A 
HETATM   35  C   UNL     1       9.341  29.156  56.072  1.00  0.00     0.009 A 
ENDBRANCH  29  30
ENDBRANCH   1  29
TORSDOF 5
ENDMDL
MODEL 2
REMARK VINA RESULT:     -10.4      3.281      7.032
REMARK  5 active torsions:
REMARK  status: ('A' for Active; 'I' for Inactive)
REMARK    1  A    between atoms: C_4  and  C_5 
REMARK    2  A    between atoms: C_5  and  N_6 
REMARK    3  A    between atoms: C_7  and  N_8 
REMARK    4  A    between atoms: N_8  and  N_9 
REMARK       I    between atoms: N_9  and  C_10 
REMARK    5  A    between atoms: C_10  and  C_11 
ROOT
HETATM    1  N   UNL     1       6.110  29.629  57.265  1.00  0.00    -0.282 N 
HETATM    2  C   UNL     1       5.838  28.361  56.711  1.00  0.00     0.204 A 
HETATM    3  N   UNL     1       5.191  28.178  55.582  1.00  0.00    -0.217 NA
HETATM    4  C   UNL     1       4.728  29.331  54.957  1.00  0.00     0.090 A 
HETATM    5  C   UNL     1       4.937  30.587  55.458  1.00  0.00     0.103 A 
HETATM    6  S   UNL     1       4.241  31.815  54.490  1.00  0.00    -0.086 SA
HETATM    7  C   UNL     1       3.664  30.651  53.428  1.00  0.00    -0.008 A 
HETATM    8  C   UNL     1       3.981  29.364  53.776  1.00  0.00    -0.015 A 
HETATM    9  C   UNL     1       3.427  28.392  52.807  1.00  0.00     0.042 C 
HETATM   10  C   UNL     1       3.008  29.315  51.616  1.00  0.00     0.010 C 
HETATM   11  C   UNL     1       2.863  30.760  52.188  1.00  0.00     0.047 C 
HETATM   12  C   UNL     1       5.664  30.818  56.667  1.00  0.00     0.269 A 
HETATM   13  O   UNL     1       5.876  31.934  57.141  1.00  0.00    -0.266 OA
ENDROOT
BRANCH   2  14
HETATM   14  N   UNL     1       6.291  27.247  57.401  1.00  0.00    -0.170 NA
HETATM   15  H   UNL     1       5.839  27.052  58.294  1.00  0.00     0.156 HD
BRANCH  14  16
HETATM   16  N   UNL     1       6.464  26.070  56.657  1.00  0.00    -0.279 N 
HETATM   17  C   UNL     1       7.553  25.272  56.947  1.00  0.00     0.289 C 
HETATM   18  O   UNL     1       8.272  25.507  57.920  1.00  0.00    -0.264 OA
HETATM   19  H   UNL     1       5.814  25.892  55.895  1.00  0.00     0.184 HD
BRANCH  17  20
HETATM   20  C   UNL     1       7.779  24.193  56.015  1.00  0.00     0.145 A 
HETATM   21  O   UNL     1       8.197  22.974  56.482  1.00  0.00    -0.304 OA
HETATM   22  C   UNL     1       8.245  22.130  55.415  1.00  0.00     0.086 A 
HETATM   23  C   UNL     1       7.886  22.799  54.251  1.00  0.00     0.001 A 
HETATM   24  C   UNL     1       8.589  20.781  55.466  1.00  0.00     0.038 A 
HETATM   25  C   UNL     1       7.596  24.129  54.646  1.00  0.00     0.057 A 
HETATM   26  C   UNL     1       7.872  22.083  53.041  1.00  0.00     0.014 A 
HETATM   27  C   UNL     1       8.210  20.722  53.061  1.00  0.00     0.001 A 
HETATM   28  C   UNL     1       8.561  20.083  54.254  1.00  0.00     0.003 A 
ENDBRANCH  17  20
ENDBRANCH  14  16
ENDBRANCH   2  14
BRANCH   1  29
HETATM   29  C   UNL     1       6.972  29.793  58.437  1.00  0.00     0.173 C 
BRANCH  29  30
HETATM   30  C   UNL     1       8.421  30.027  58.058  1.00  0.00    -0.040 A 
HETATM   31  C   UNL     1       9.098  29.105  57.245  1.00  0.00     0.009 A 
HETATM   32  C   UNL     1      10.439  29.301  56.910  1.00  0.00     0.001 A 
HETATM   33  C   UNL     1      11.121  30.419  57.386  1.00  0.00     0.000 A 
HETATM   34  C   UNL     1      10.462  31.342  58.194  1.00  0.00     0.001 A 
HETATM   35  C   UNL     1       9.119  31.149  58.527  1.00  0.00     0.009 A 
ENDBRANCH  29  30
ENDBRANCH   1  29
TORSDOF 5
ENDMDL
MODEL 3
REMARK VINA RESULT:     -10.4      2.591      7.018
REMARK  5 active torsions:
REMARK  status: ('A' for Active; 'I' for Inactive)
REMARK    1  A    between atoms: C_4  and  C_5 
REMARK    2  A    between atoms: C_5  and  N_6 
REMARK    3  A    between atoms: C_7  and  N_8 
REMARK    4  A    between atoms: N_8  and  N_9 
REMARK       I    between atoms: N_9  and  C_10 
REMARK    5  A    between atoms: C_10  and  C_11 
ROOT
HETATM    1  N   UNL     1       4.500  29.092  54.182  1.00  0.00    -0.282 N 
HETATM    2  C   UNL     1       4.571  27.711  53.903  1.00  0.00     0.204 A 
HETATM    3  N   UNL     1       4.597  27.210  52.689  1.00  0.00    -0.217 NA
HETATM    4  C   UNL     1       4.504  28.132  51.652  1.00  0.00     0.090 A 
HETATM    5  C   UNL     1       4.407  29.482  51.859  1.00  0.00     0.103 A 
HETATM    6  S   UNL     1       4.288  30.372  50.402  1.00  0.00    -0.086 SA
HETATM    7  C   UNL     1       4.356  28.945  49.523  1.00  0.00    -0.008 A 
HETATM    8  C   UNL     1       4.468  27.815  50.291  1.00  0.00    -0.015 A 
HETATM    9  C   UNL     1       4.506  26.596  49.453  1.00  0.00     0.042 C 
HETATM   10  C   UNL     1       4.744  27.185  48.024  1.00  0.00     0.010 C 
HETATM   11  C   UNL     1       4.304  28.682  48.068  1.00  0.00     0.047 C 
HETATM   12  C   UNL     1       4.407  30.057  53.167  1.00  0.00     0.269 A 
HETATM   13  O   UNL     1       4.328  31.265  53.388  1.00  0.00    -0.266 OA
ENDROOT
BRANCH   2  14
HETATM   14  N   UNL     1       4.622  26.839  54.979  1.00  0.00    -0.170 NA
HETATM   15  H   UNL     1       3.774  26.762  55.541  1.00  0.00     0.156 HD
BRANCH  14  16
HETATM   16  N   UNL     1       5.186  25.576  54.743  1.00  0.00    -0.279 N 
HETATM   17  C   UNL     1       6.315  25.225  55.455  1.00  0.00     0.289 C 
HETATM   18  O   UNL     1       6.735  25.936  56.372  1.00  0.00    -0.264 OA
HETATM   19  H   UNL     1       4.773  25.002  54.011  1.00  0.00     0.184 HD
BRANCH  17  20
HETATM   20  C   UNL     1       6.954  24.007  55.018  1.00  0.00     0.145 A 
HETATM   21  O   UNL     1       7.391  23.102  55.950  1.00  0.00    -0.304 OA
HETATM   22  C   UNL     1       7.865  22.022  55.270  1.00  0.00     0.086 A 
HETATM   23  C   UNL     1       7.764  22.229  53.899  1.00  0.00     0.001 A 
HETATM   24  C   UNL     1       8.372  20.860  55.849  1.00  0.00     0.038 A 
HETATM   25  C   UNL     1       7.184  23.513  53.747  1.00  0.00     0.057 A 
HETATM   26  C   UNL     1       8.202  21.213  53.032  1.00  0.00     0.014 A 
HETATM   27  C   UNL     1       8.714  20.031  53.584  1.00  0.00     0.001 A 
HETATM   28  C   UNL     1       8.794  19.858  54.970  1.00  0.00     0.003 A 
ENDBRANCH  17  20
ENDBRANCH  14  16
ENDBRANCH   2  14
BRANCH   1  29
HETATM   29  C   UNL     1       4.636  29.614  55.543  1.00  0.00     0.173 C 
BRANCH  29  30
HETATM   30  C   UNL     1       6.017  29.370  56.119  1.00  0.00    -0.040 A 
HETATM   31  C   UNL     1       6.198  29.270  57.507  1.00  0.00     0.009 A 
HETATM   32  C   UNL     1       7.469  29.069  58.047  1.00  0.00     0.001 A 
HETATM   33  C   UNL     1       8.576  28.967  57.207  1.00  0.00     0.000 A 
HETATM   34  C   UNL     1       8.411  29.063  55.828  1.00  0.00     0.001 A 
HETATM   35  C   UNL     1       7.140  29.262  55.285  1.00  0.00     0.009 A 
ENDBRANCH  29  30
ENDBRANCH   1  29
TORSDOF 5
ENDMDL
MODEL 4
REMARK VINA RESULT:      -9.9      1.709      2.430
REMARK  5 active torsions:
REMARK  status: ('A' for Active; 'I' for Inactive)
REMARK    1  A    between atoms: C_4  and  C_5 
REMARK    2  A    between atoms: C_5  and  N_6 
REMARK    3  A    between atoms: C_7  and  N_8 
REMARK    4  A    between atoms: N_8  and  N_9 
REMARK       I    between atoms: N_9  and  C_10 
REMARK    5  A    between atoms: C_10  and  C_11 
ROOT
HETATM    1  N   UNL     1       7.582  28.065  55.620  1.00  0.00    -0.282 N 
HETATM    2  C   UNL     1       7.212  27.457  54.402  1.00  0.00     0.204 A 
HETATM    3  N   UNL     1       7.204  26.158  54.204  1.00  0.00    -0.217 NA
HETATM    4  C   UNL     1       7.636  25.381  55.274  1.00  0.00     0.090 A 
HETATM    5  C   UNL     1       8.031  25.913  56.472  1.00  0.00     0.103 A 
HETATM    6  S   UNL     1       8.528  24.722  57.597  1.00  0.00    -0.086 SA
HETATM    7  C   UNL     1       8.218  23.523  56.466  1.00  0.00    -0.008 A 
HETATM    8  C   UNL     1       7.749  23.987  55.265  1.00  0.00    -0.015 A 
HETATM    9  C   UNL     1       7.514  22.879  54.314  1.00  0.00     0.042 C 
HETATM   10  C   UNL     1       7.591  21.624  55.243  1.00  0.00     0.010 C 
HETATM   11  C   UNL     1       8.371  22.052  56.525  1.00  0.00     0.047 C 
HETATM   12  C   UNL     1       8.021  27.319  56.725  1.00  0.00     0.269 A 
HETATM   13  O   UNL     1       8.363  27.829  57.792  1.00  0.00    -0.266 OA
ENDROOT
BRANCH   2  14
HETATM   14  N   UNL     1       6.829  28.286  53.360  1.00  0.00    -0.170 NA
HETATM   15  H   UNL     1       7.528  28.951  53.029  1.00  0.00     0.156 HD
BRANCH  14  16
HETATM   16  N   UNL     1       6.160  27.682  52.284  1.00  0.00    -0.279 N 
HETATM   17  C   UNL     1       5.651  28.498  51.294  1.00  0.00     0.289 C 
HETATM   18  O   UNL     1       5.897  29.707  51.277  1.00  0.00    -0.264 OA
HETATM   19  H   UNL     1       6.026  26.674  52.317  1.00  0.00     0.184 HD
BRANCH  17  20
HETATM   20  C   UNL     1       4.807  27.831  50.332  1.00  0.00     0.145 A 
HETATM   21  O   UNL     1       3.665  28.448  49.893  1.00  0.00    -0.304 OA
HETATM   22  C   UNL     1       3.116  27.647  48.939  1.00  0.00     0.086 A 
HETATM   23  C   UNL     1       3.879  26.496  48.774  1.00  0.00     0.001 A 
HETATM   24  C   UNL     1       1.961  27.928  48.213  1.00  0.00     0.038 A 
HETATM   25  C   UNL     1       4.961  26.621  49.681  1.00  0.00     0.057 A 
HETATM   26  C   UNL     1       3.468  25.547  47.823  1.00  0.00     0.014 A 
HETATM   27  C   UNL     1       2.311  25.804  47.073  1.00  0.00     0.001 A 
HETATM   28  C   UNL     1       1.572  26.976  47.265  1.00  0.00     0.003 A 
ENDBRANCH  17  20
ENDBRANCH  14  16
ENDBRANCH   2  14
BRANCH   1  29
HETATM   29  C   UNL     1       7.421  29.502  55.848  1.00  0.00     0.173 C 
BRANCH  29  30
HETATM   30  C   UNL     1       6.063  29.846  56.427  1.00  0.00    -0.040 A 
HETATM   31  C   UNL     1       5.966  30.647  57.575  1.00  0.00     0.009 A 
HETATM   32  C   UNL     1       4.721  30.949  58.128  1.00  0.00     0.001 A 
HETATM   33  C   UNL     1       3.558  30.454  57.543  1.00  0.00     0.000 A 
HETATM   34  C   UNL     1       3.639  29.658  56.403  1.00  0.00     0.001 A 
HETATM   35  C   UNL     1       4.884  29.357  55.846  1.00  0.00     0.009 A 
ENDBRANCH  29  30
ENDBRANCH   1  29
TORSDOF 5
ENDMDL
MODEL 5
REMARK VINA RESULT:      -9.7      3.016      8.409
REMARK  5 active torsions:
REMARK  status: ('A' for Active; 'I' for Inactive)
REMARK    1  A    between atoms: C_4  and  C_5 
REMARK    2  A    between atoms: C_5  and  N_6 
REMARK    3  A    between atoms: C_7  and  N_8 
REMARK    4  A    between atoms: N_8  and  N_9 
REMARK       I    between atoms: N_9  and  C_10 
REMARK    5  A    between atoms: C_10  and  C_11 
ROOT
HETATM    1  N   UNL     1       5.730  25.883  53.232  1.00  0.00    -0.282 N 
HETATM    2  C   UNL     1       6.336  27.140  53.437  1.00  0.00     0.204 A 
HETATM    3  N   UNL     1       6.290  28.125  52.569  1.00  0.00    -0.217 NA
HETATM    4  C   UNL     1       5.630  27.849  51.376  1.00  0.00     0.090 A 
HETATM    5  C   UNL     1       5.045  26.641  51.108  1.00  0.00     0.103 A 
HETATM    6  S   UNL     1       4.323  26.580  49.557  1.00  0.00    -0.086 SA
HETATM    7  C   UNL     1       4.812  28.158  49.266  1.00  0.00    -0.008 A 
HETATM    8  C   UNL     1       5.502  28.734  50.301  1.00  0.00    -0.015 A 
HETATM    9  C   UNL     1       5.916  30.115  49.969  1.00  0.00     0.042 C 
HETATM   10  C   UNL     1       5.069  30.415  48.689  1.00  0.00     0.010 C 
HETATM   11  C   UNL     1       4.646  29.038  48.088  1.00  0.00     0.047 C 
HETATM   12  C   UNL     1       5.054  25.562  52.045  1.00  0.00     0.269 A 
HETATM   13  O   UNL     1       4.532  24.467  51.839  1.00  0.00    -0.266 OA
ENDROOT
BRANCH   2  14
HETATM   14  N   UNL     1       7.013  27.342  54.629  1.00  0.00    -0.170 NA
HETATM   15  H   UNL     1       8.031  27.377  54.573  1.00  0.00     0.156 HD
BRANCH  14  16
HETATM   16  N   UNL     1       6.521  28.350  55.473  1.00  0.00    -0.279 N 
HETATM   17  C   UNL     1       7.425  29.237  56.020  1.00  0.00     0.289 C 
HETATM   18  O   UNL     1       8.608  29.237  55.671  1.00  0.00    -0.264 OA
HETATM   19  H   UNL     1       5.527  28.340  55.692  1.00  0.00     0.184 HD
BRANCH  17  20
HETATM   20  C   UNL     1       6.879  30.114  57.030  1.00  0.00     0.145 A 
HETATM   21  O   UNL     1       7.596  30.355  58.173  1.00  0.00    -0.304 OA
HETATM   22  C   UNL     1       6.897  31.271  58.899  1.00  0.00     0.086 A 
HETATM   23  C   UNL     1       5.716  31.608  58.247  1.00  0.00     0.001 A 
HETATM   24  C   UNL     1       7.299  31.816  60.117  1.00  0.00     0.038 A 
HETATM   25  C   UNL     1       5.710  30.851  57.049  1.00  0.00     0.057 A 
HETATM   26  C   UNL     1       4.862  32.549  58.847  1.00  0.00     0.014 A 
HETATM   27  C   UNL     1       5.241  33.117  60.071  1.00  0.00     0.001 A 
HETATM   28  C   UNL     1       6.441  32.757  60.693  1.00  0.00     0.003 A 
ENDBRANCH  17  20
ENDBRANCH  14  16
ENDBRANCH   2  14
BRANCH   1  29
HETATM   29  C   UNL     1       5.669  24.873  54.291  1.00  0.00     0.173 C 
BRANCH  29  30
HETATM   30  C   UNL     1       6.914  24.010  54.338  1.00  0.00    -0.040 A 
HETATM   31  C   UNL     1       7.311  23.277  53.209  1.00  0.00     0.009 A 
HETATM   32  C   UNL     1       8.443  22.462  53.252  1.00  0.00     0.001 A 
HETATM   33  C   UNL     1       9.192  22.368  54.423  1.00  0.00     0.000 A 
HETATM   34  C   UNL     1       8.810  23.090  55.550  1.00  0.00     0.001 A 
HETATM   35  C   UNL     1       7.679  23.908  55.509  1.00  0.00     0.009 A 
ENDBRANCH  29  30
ENDBRANCH   1  29
TORSDOF 5
ENDMDL
MODEL 6
REMARK VINA RESULT:      -9.7      2.889      8.836
REMARK  5 active torsions:
REMARK  status: ('A' for Active; 'I' for Inactive)
REMARK    1  A    between atoms: C_4  and  C_5 
REMARK    2  A    between atoms: C_5  and  N_6 
REMARK    3  A    between atoms: C_7  and  N_8 
REMARK    4  A    between atoms: N_8  and  N_9 
REMARK       I    between atoms: N_9  and  C_10 
REMARK    5  A    between atoms: C_10  and  C_11 
ROOT
HETATM    1  N   UNL     1       4.958  26.649  52.435  1.00  0.00    -0.282 N 
HETATM    2  C   UNL     1       5.081  27.816  53.217  1.00  0.00     0.204 A 
HETATM    3  N   UNL     1       5.149  29.029  52.716  1.00  0.00    -0.217 NA
HETATM    4  C   UNL     1       5.139  29.111  51.328  1.00  0.00     0.090 A 
HETATM    5  C   UNL     1       5.048  28.014  50.515  1.00  0.00     0.103 A 
HETATM    6  S   UNL     1       5.076  28.414  48.851  1.00  0.00    -0.086 SA
HETATM    7  C   UNL     1       5.222  30.038  49.242  1.00  0.00    -0.008 A 
HETATM    8  C   UNL     1       5.247  30.294  50.589  1.00  0.00    -0.015 A 
HETATM    9  C   UNL     1       5.394  31.741  50.860  1.00  0.00     0.042 C 
HETATM   10  C   UNL     1       5.109  32.370  49.457  1.00  0.00     0.010 C 
HETATM   11  C   UNL     1       5.341  31.247  48.397  1.00  0.00     0.047 C 
HETATM   12  C   UNL     1       4.941  26.686  51.032  1.00  0.00     0.269 A 
HETATM   13  O   UNL     1       4.850  25.679  50.330  1.00  0.00    -0.266 OA
ENDROOT
BRANCH   2  14
HETATM   14  N   UNL     1       5.126  27.667  54.594  1.00  0.00    -0.170 NA
HETATM   15  H   UNL     1       5.126  26.709  54.946  1.00  0.00     0.156 HD
BRANCH  14  16
HETATM   16  N   UNL     1       6.055  28.458  55.286  1.00  0.00    -0.279 N 
HETATM   17  C   UNL     1       6.290  28.171  56.616  1.00  0.00     0.289 C 
HETATM   18  O   UNL     1       5.809  27.165  57.144  1.00  0.00    -0.264 OA
HETATM   19  H   UNL     1       6.466  29.247  54.792  1.00  0.00     0.184 HD
BRANCH  17  20
HETATM   20  C   UNL     1       7.098  29.143  57.313  1.00  0.00     0.145 A 
HETATM   21  O   UNL     1       6.495  30.052  58.142  1.00  0.00    -0.304 OA
HETATM   22  C   UNL     1       7.484  30.780  58.729  1.00  0.00     0.086 A 
HETATM   23  C   UNL     1       8.729  30.368  58.266  1.00  0.00     0.001 A 
HETATM   24  C   UNL     1       7.297  31.788  59.671  1.00  0.00     0.038 A 
HETATM   25  C   UNL     1       8.469  29.319  57.348  1.00  0.00     0.057 A 
HETATM   26  C   UNL     1       9.877  31.005  58.767  1.00  0.00     0.014 A 
HETATM   27  C   UNL     1       9.721  32.022  59.719  1.00  0.00     0.001 A 
HETATM   28  C   UNL     1       8.452  32.404  60.164  1.00  0.00     0.003 A 
ENDBRANCH  17  20
ENDBRANCH  14  16
ENDBRANCH   2  14
BRANCH   1  29
HETATM   29  C   UNL     1       4.723  25.336  53.037  1.00  0.00     0.173 C 
BRANCH  29  30
HETATM   30  C   UNL     1       6.005  24.679  53.508  1.00  0.00    -0.040 A 
HETATM   31  C   UNL     1       6.934  24.191  52.577  1.00  0.00     0.009 A 
HETATM   32  C   UNL     1       8.106  23.565  53.002  1.00  0.00     0.001 A 
HETATM   33  C   UNL     1       8.364  23.415  54.362  1.00  0.00     0.000 A 
HETATM   34  C   UNL     1       7.451  23.895  55.298  1.00  0.00     0.001 A 
HETATM   35  C   UNL     1       6.279  24.525  54.875  1.00  0.00     0.009 A 
ENDBRANCH  29  30
ENDBRANCH   1  29
TORSDOF 5
ENDMDL
MODEL 7
REMARK VINA RESULT:      -9.5      1.952      2.529
REMARK  5 active torsions:
REMARK  status: ('A' for Active; 'I' for Inactive)
REMARK    1  A    between atoms: C_4  and  C_5 
REMARK    2  A    between atoms: C_5  and  N_6 
REMARK    3  A    between atoms: C_7  and  N_8 
REMARK    4  A    between atoms: N_8  and  N_9 
REMARK       I    between atoms: N_9  and  C_10 
REMARK    5  A    between atoms: C_10  and  C_11 
ROOT
HETATM    1  N   UNL     1       7.310  27.502  55.449  1.00  0.00    -0.282 N 
HETATM    2  C   UNL     1       7.402  27.291  54.057  1.00  0.00     0.204 A 
HETATM    3  N   UNL     1       7.524  26.107  53.502  1.00  0.00    -0.217 NA
HETATM    4  C   UNL     1       7.607  25.033  54.382  1.00  0.00     0.090 A 
HETATM    5  C   UNL     1       7.549  25.175  55.742  1.00  0.00     0.103 A 
HETATM    6  S   UNL     1       7.694  23.686  56.574  1.00  0.00    -0.086 SA
HETATM    7  C   UNL     1       7.842  22.881  55.109  1.00  0.00    -0.008 A 
HETATM    8  C   UNL     1       7.784  23.696  54.009  1.00  0.00    -0.015 A 
HETATM    9  C   UNL     1       7.937  22.923  52.757  1.00  0.00     0.042 C 
HETATM   10  C   UNL     1       7.757  21.452  53.253  1.00  0.00     0.010 C 
HETATM   11  C   UNL     1       8.037  21.450  54.788  1.00  0.00     0.047 C 
HETATM   12  C   UNL     1       7.386  26.447  56.372  1.00  0.00     0.269 A 
HETATM   13  O   UNL     1       7.324  26.609  57.590  1.00  0.00    -0.266 OA
ENDROOT
BRANCH   2  14
HETATM   14  N   UNL     1       7.353  28.405  53.233  1.00  0.00    -0.170 NA
HETATM   15  H   UNL     1       7.917  28.365  52.383  1.00  0.00     0.156 HD
BRANCH  14  16
HETATM   16  N   UNL     1       6.084  28.943  52.971  1.00  0.00    -0.279 N 
HETATM   17  C   UNL     1       5.418  28.515  51.841  1.00  0.00     0.289 C 
HETATM   18  O   UNL     1       5.857  27.587  51.157  1.00  0.00    -0.264 OA
HETATM   19  H   UNL     1       5.741  29.671  53.594  1.00  0.00     0.184 HD
BRANCH  17  20
HETATM   20  C   UNL     1       4.218  29.254  51.528  1.00  0.00     0.145 A 
HETATM   21  O   UNL     1       3.999  30.469  52.123  1.00  0.00    -0.304 OA
HETATM   22  C   UNL     1       2.854  30.977  51.588  1.00  0.00     0.086 A 
HETATM   23  C   UNL     1       2.312  30.088  50.667  1.00  0.00     0.001 A 
HETATM   24  C   UNL     1       2.298  32.216  51.897  1.00  0.00     0.038 A 
HETATM   25  C   UNL     1       3.193  28.978  50.642  1.00  0.00     0.057 A 
HETATM   26  C   UNL     1       1.125  30.446  50.005  1.00  0.00     0.014 A 
HETATM   27  C   UNL     1       0.543  31.688  50.293  1.00  0.00     0.001 A 
HETATM   28  C   UNL     1       1.122  32.558  51.222  1.00  0.00     0.003 A 
ENDBRANCH  17  20
ENDBRANCH  14  16
ENDBRANCH   2  14
BRANCH   1  29
HETATM   29  C   UNL     1       7.012  28.819  56.014  1.00  0.00     0.173 C 
BRANCH  29  30
HETATM   30  C   UNL     1       8.209  29.429  56.716  1.00  0.00    -0.040 A 
HETATM   31  C   UNL     1       8.070  29.986  57.996  1.00  0.00     0.009 A 
HETATM   32  C   UNL     1       9.162  30.571  58.640  1.00  0.00     0.001 A 
HETATM   33  C   UNL     1      10.405  30.607  58.013  1.00  0.00     0.000 A 
HETATM   34  C   UNL     1      10.558  30.057  56.742  1.00  0.00     0.001 A 
HETATM   35  C   UNL     1       9.468  29.470  56.097  1.00  0.00     0.009 A 
ENDBRANCH  29  30
ENDBRANCH   1  29
TORSDOF 5
ENDMDL
MODEL 8
REMARK VINA RESULT:      -9.5      3.987      7.332
REMARK  5 active torsions:
REMARK  status: ('A' for Active; 'I' for Inactive)
REMARK    1  A    between atoms: C_4  and  C_5 
REMARK    2  A    between atoms: C_5  and  N_6 
REMARK    3  A    between atoms: C_7  and  N_8 
REMARK    4  A    between atoms: N_8  and  N_9 
REMARK       I    between atoms: N_9  and  C_10 
REMARK    5  A    between atoms: C_10  and  C_11 
ROOT
HETATM    1  N   UNL     1       5.101  31.422  57.722  1.00  0.00    -0.282 N 
HETATM    2  C   UNL     1       4.826  30.219  57.038  1.00  0.00     0.204 A 
HETATM    3  N   UNL     1       4.555  30.152  55.754  1.00  0.00    -0.217 NA
HETATM    4  C   UNL     1       4.505  31.370  55.083  1.00  0.00     0.090 A 
HETATM    5  C   UNL     1       4.736  32.571  55.696  1.00  0.00     0.103 A 
HETATM    6  S   UNL     1       4.590  33.902  54.630  1.00  0.00    -0.086 SA
HETATM    7  C   UNL     1       4.210  32.856  53.375  1.00  0.00    -0.008 A 
HETATM    8  C   UNL     1       4.191  31.532  53.730  1.00  0.00    -0.015 A 
HETATM    9  C   UNL     1       3.833  30.672  52.581  1.00  0.00     0.042 C 
HETATM   10  C   UNL     1       3.969  31.657  51.375  1.00  0.00     0.010 C 
HETATM   11  C   UNL     1       3.877  33.104  51.954  1.00  0.00     0.047 C 
HETATM   12  C   UNL     1       5.064  32.671  57.084  1.00  0.00     0.269 A 
HETATM   13  O   UNL     1       5.284  33.734  57.664  1.00  0.00    -0.266 OA
ENDROOT
BRANCH   2  14
HETATM   14  N   UNL     1       4.853  29.042  57.769  1.00  0.00    -0.170 NA
HETATM   15  H   UNL     1       4.090  28.903  58.433  1.00  0.00     0.156 HD
BRANCH  14  16
HETATM   16  N   UNL     1       5.124  27.862  57.059  1.00  0.00    -0.279 N 
HETATM   17  C   UNL     1       6.395  27.332  57.141  1.00  0.00     0.289 C 
HETATM   18  O   UNL     1       7.229  27.796  57.923  1.00  0.00    -0.264 OA
HETATM   19  H   UNL     1       4.387  27.487  56.466  1.00  0.00     0.184 HD
BRANCH  17  20
HETATM   20  C   UNL     1       6.657  26.242  56.232  1.00  0.00     0.145 A 
HETATM   21  O   UNL     1       7.012  26.514  54.936  1.00  0.00    -0.304 OA
HETATM   22  C   UNL     1       7.283  25.322  54.335  1.00  0.00     0.086 A 
HETATM   23  C   UNL     1       7.079  24.273  55.224  1.00  0.00     0.001 A 
HETATM   24  C   UNL     1       7.715  25.158  53.021  1.00  0.00     0.038 A 
HETATM   25  C   UNL     1       6.669  24.875  56.440  1.00  0.00     0.057 A 
HETATM   26  C   UNL     1       7.315  22.961  54.781  1.00  0.00     0.014 A 
HETATM   27  C   UNL     1       7.754  22.764  53.464  1.00  0.00     0.001 A 
HETATM   28  C   UNL     1       7.952  23.846  52.601  1.00  0.00     0.003 A 
ENDBRANCH  17  20
ENDBRANCH  14  16
ENDBRANCH   2  14
BRANCH   1  29
HETATM   29  C   UNL     1       5.556  31.433  59.113  1.00  0.00     0.173 C 
BRANCH  29  30
HETATM   30  C   UNL     1       7.061  31.570  59.227  1.00  0.00    -0.040 A 
HETATM   31  C   UNL     1       7.902  30.918  58.312  1.00  0.00     0.009 A 
HETATM   32  C   UNL     1       9.290  31.020  58.423  1.00  0.00     0.001 A 
HETATM   33  C   UNL     1       9.854  31.772  59.451  1.00  0.00     0.000 A 
HETATM   34  C   UNL     1       9.032  32.425  60.366  1.00  0.00     0.001 A 
HETATM   35  C   UNL     1       7.644  32.327  60.254  1.00  0.00     0.009 A 
ENDBRANCH  29  30
ENDBRANCH   1  29
TORSDOF 5
ENDMDL
MODEL 9
REMARK VINA RESULT:      -9.2      3.532      7.898
REMARK  5 active torsions:
REMARK  status: ('A' for Active; 'I' for Inactive)
REMARK    1  A    between atoms: C_4  and  C_5 
REMARK    2  A    between atoms: C_5  and  N_6 
REMARK    3  A    between atoms: C_7  and  N_8 
REMARK    4  A    between atoms: N_8  and  N_9 
REMARK       I    between atoms: N_9  and  C_10 
REMARK    5  A    between atoms: C_10  and  C_11 
ROOT
HETATM    1  N   UNL     1       4.894  28.570  51.470  1.00  0.00    -0.282 N 
HETATM    2  C   UNL     1       5.372  27.511  50.672  1.00  0.00     0.204 A 
HETATM    3  N   UNL     1       4.717  27.010  49.649  1.00  0.00    -0.217 NA
HETATM    4  C   UNL     1       3.463  27.561  49.407  1.00  0.00     0.090 A 
HETATM    5  C   UNL     1       2.933  28.573  50.161  1.00  0.00     0.103 A 
HETATM    6  S   UNL     1       1.370  29.040  49.644  1.00  0.00    -0.086 SA
HETATM    7  C   UNL     1       1.422  27.880  48.434  1.00  0.00    -0.008 A 
HETATM    8  C   UNL     1       2.582  27.150  48.402  1.00  0.00    -0.015 A 
HETATM    9  C   UNL     1       2.551  26.137  47.324  1.00  0.00     0.042 C 
HETATM   10  C   UNL     1       1.319  26.593  46.477  1.00  0.00     0.010 C 
HETATM   11  C   UNL     1       0.436  27.490  47.401  1.00  0.00     0.047 C 
HETATM   12  C   UNL     1       3.636  29.157  51.259  1.00  0.00     0.269 A 
HETATM   13  O   UNL     1       3.192  30.072  51.952  1.00  0.00    -0.266 OA
ENDROOT
BRANCH   2  14
HETATM   14  N   UNL     1       6.612  26.976  50.988  1.00  0.00    -0.170 NA
HETATM   15  H   UNL     1       7.309  27.629  51.347  1.00  0.00     0.156 HD
BRANCH  14  16
HETATM   16  N   UNL     1       6.616  25.780  51.721  1.00  0.00    -0.279 N 
HETATM   17  C   UNL     1       7.472  25.682  52.799  1.00  0.00     0.289 C 
HETATM   18  O   UNL     1       8.110  26.661  53.196  1.00  0.00    -0.264 OA
HETATM   19  H   UNL     1       6.033  25.017  51.386  1.00  0.00     0.184 HD
BRANCH  17  20
HETATM   20  C   UNL     1       7.570  24.364  53.379  1.00  0.00     0.145 A 
HETATM   21  O   UNL     1       8.000  23.317  52.605  1.00  0.00    -0.304 OA
HETATM   22  C   UNL     1       8.081  22.226  53.415  1.00  0.00     0.086 A 
HETATM   23  C   UNL     1       7.680  22.549  54.707  1.00  0.00     0.001 A 
HETATM   24  C   UNL     1       8.514  20.960  53.027  1.00  0.00     0.038 A 
HETATM   25  C   UNL     1       7.346  23.926  54.671  1.00  0.00     0.057 A 
HETATM   26  C   UNL     1       7.703  21.544  55.689  1.00  0.00     0.014 A 
HETATM   27  C   UNL     1       8.137  20.261  55.329  1.00  0.00     0.001 A 
HETATM   28  C   UNL     1       8.537  19.976  54.020  1.00  0.00     0.003 A 
ENDBRANCH  17  20
ENDBRANCH  14  16
ENDBRANCH   2  14
BRANCH   1  29
HETATM   29  C   UNL     1       5.725  29.203  52.495  1.00  0.00     0.173 C 
BRANCH  29  30
HETATM   30  C   UNL     1       5.245  28.894  53.899  1.00  0.00    -0.040 A 
HETATM   31  C   UNL     1       5.085  27.564  54.316  1.00  0.00     0.009 A 
HETATM   32  C   UNL     1       4.622  27.271  55.599  1.00  0.00     0.001 A 
HETATM   33  C   UNL     1       4.310  28.303  56.481  1.00  0.00     0.000 A 
HETATM   34  C   UNL     1       4.464  29.628  56.082  1.00  0.00     0.001 A 
HETATM   35  C   UNL     1       4.930  29.923  54.799  1.00  0.00     0.009 A 
ENDBRANCH  29  30
ENDBRANCH   1  29
TORSDOF 5
ENDMDL
MODEL 10
REMARK VINA RESULT:      -9.1      2.977      8.059
REMARK  5 active torsions:
REMARK  status: ('A' for Active; 'I' for Inactive)
REMARK    1  A    between atoms: C_4  and  C_5 
REMARK    2  A    between atoms: C_5  and  N_6 
REMARK    3  A    between atoms: C_7  and  N_8 
REMARK    4  A    between atoms: N_8  and  N_9 
REMARK       I    between atoms: N_9  and  C_10 
REMARK    5  A    between atoms: C_10  and  C_11 
ROOT
HETATM    1  N   UNL     1       4.457  27.373  53.935  1.00  0.00    -0.282 N 
HETATM    2  C   UNL     1       4.903  27.835  55.191  1.00  0.00     0.204 A 
HETATM    3  N   UNL     1       5.859  27.261  55.886  1.00  0.00    -0.217 NA
HETATM    4  C   UNL     1       6.400  26.107  55.329  1.00  0.00     0.090 A 
HETATM    5  C   UNL     1       5.992  25.594  54.128  1.00  0.00     0.103 A 
HETATM    6  S   UNL     1       6.821  24.158  53.700  1.00  0.00    -0.086 SA
HETATM    7  C   UNL     1       7.699  24.239  55.128  1.00  0.00    -0.008 A 
HETATM    8  C   UNL     1       7.392  25.316  55.919  1.00  0.00    -0.015 A 
HETATM    9  C   UNL     1       8.190  25.314  57.164  1.00  0.00     0.042 C 
HETATM   10  C   UNL     1       9.286  24.244  56.852  1.00  0.00     0.010 C 
HETATM   11  C   UNL     1       8.738  23.351  55.695  1.00  0.00     0.047 C 
HETATM   12  C   UNL     1       4.977  26.215  53.336  1.00  0.00     0.269 A 
HETATM   13  O   UNL     1       4.592  25.784  52.250  1.00  0.00    -0.266 OA
ENDROOT
BRANCH   2  14
HETATM   14  N   UNL     1       4.297  28.968  55.712  1.00  0.00    -0.170 NA
HETATM   15  H   UNL     1       3.277  28.972  55.722  1.00  0.00     0.156 HD
BRANCH  14  16
HETATM   16  N   UNL     1       4.815  29.464  56.918  1.00  0.00    -0.279 N 
HETATM   17  C   UNL     1       5.461  30.684  56.895  1.00  0.00     0.289 C 
HETATM   18  O   UNL     1       5.460  31.385  55.881  1.00  0.00    -0.264 OA
HETATM   19  H   UNL     1       4.746  28.871  57.742  1.00  0.00     0.184 HD
BRANCH  17  20
HETATM   20  C   UNL     1       6.139  31.033  58.120  1.00  0.00     0.145 A 
HETATM   21  O   UNL     1       7.288  30.371  58.469  1.00  0.00    -0.304 OA
HETATM   22  C   UNL     1       7.758  30.954  59.606  1.00  0.00     0.086 A 
HETATM   23  C   UNL     1       6.909  31.975  60.015  1.00  0.00     0.001 A 
HETATM   24  C   UNL     1       8.930  30.599  60.271  1.00  0.00     0.038 A 
HETATM   25  C   UNL     1       5.865  32.013  59.057  1.00  0.00     0.057 A 
HETATM   26  C   UNL     1       7.237  32.698  61.174  1.00  0.00     0.014 A 
HETATM   27  C   UNL     1       8.412  32.367  61.864  1.00  0.00     0.001 A 
HETATM   28  C   UNL     1       9.244  31.336  61.417  1.00  0.00     0.003 A 
ENDBRANCH  17  20
ENDBRANCH  14  16
ENDBRANCH   2  14
BRANCH   1  29
HETATM   29  C   UNL     1       3.506  28.134  53.124  1.00  0.00     0.173 C 
BRANCH  29  30
HETATM   30  C   UNL     1       4.188  29.184  52.269  1.00  0.00    -0.040 A 
HETATM   31  C   UNL     1       3.936  30.547  52.486  1.00  0.00     0.009 A 
HETATM   32  C   UNL     1       4.541  31.519  51.688  1.00  0.00     0.001 A 
HETATM   33  C   UNL     1       5.404  31.141  50.662  1.00  0.00     0.000 A 
HETATM   34  C   UNL     1       5.664  29.792  50.435  1.00  0.00     0.001 A 
HETATM   35  C   UNL     1       5.061  28.818  51.234  1.00  0.00     0.009 A 
ENDBRANCH  29  30
ENDBRANCH   1  29
TORSDOF 5
ENDMDL
