MODEL 1
REMARK VINA RESULT:      -9.1      0.000      0.000
REMARK  11 active torsions:
REMARK  status: ('A' for Active; 'I' for Inactive)
REMARK    1  A    between atoms: O_2  and  C_3 
REMARK    2  A    between atoms: C_6  and  C_7 
REMARK    3  A    between atoms: C_7  and  S_8 
REMARK    4  A    between atoms: C_7  and  C_22 
REMARK    5  A    between atoms: S_8  and  C_9 
REMARK    6  A    between atoms: C_12  and  C_13 
REMARK    7  A    between atoms: C_22  and  C_23 
REMARK       I    between atoms: C_23  and  N_24 
REMARK    8  A    between atoms: N_24  and  C_25 
REMARK    9  A    between atoms: C_25  and  C_26 
REMARK   10  A    between atoms: C_26  and  C_27 
REMARK   11  A    between atoms: C_27  and  N_28 
ROOT
HETATM    1  C   UNL     1       6.478  26.543  53.938  1.00  0.00     0.097 C 
ENDROOT
BRANCH   1   2
HETATM    2  C   UNL     1       7.003  25.115  54.027  1.00  0.00    -0.043 A 
HETATM    3  C   UNL     1       6.878  24.348  55.197  1.00  0.00     0.011 A 
HETATM    4  C   UNL     1       7.299  23.016  55.221  1.00  0.00     0.037 A 
HETATM    5  C   UNL     1       7.814  22.422  54.073  1.00  0.00     0.068 A 
HETATM    6  C   UNL     1       7.975  23.175  52.913  1.00  0.00     0.037 A 
HETATM    7  C   UNL     1       7.570  24.513  52.891  1.00  0.00     0.011 A 
BRANCH   5   8
HETATM    8  O   UNL     1       8.179  21.109  54.180  1.00  0.00    -0.356 OA
HETATM    9  C   UNL     1       8.312  20.455  52.918  1.00  0.00     0.210 C 
ENDBRANCH   5   8
ENDBRANCH   1   2
BRANCH   1  10
HETATM   10  S   UNL     1       7.845  27.777  54.063  1.00  0.00    -0.080 SA
BRANCH  10  11
HETATM   11  C   UNL     1       7.946  28.125  55.739  1.00  0.00     0.190 A 
HETATM   12  N   UNL     1       8.263  27.301  56.704  1.00  0.00    -0.122 NA
HETATM   13  N   UNL     1       8.179  27.997  57.881  1.00  0.00    -0.129 NA
HETATM   14  C   UNL     1       7.763  29.228  57.619  1.00  0.00     0.162 A 
HETATM   15  N   UNL     1       7.602  29.335  56.256  1.00  0.00    -0.317 N 
HETATM   16  H   UNL     1       7.310  30.148  55.735  1.00  0.00     0.169 HD
BRANCH  14  17
HETATM   17  C   UNL     1       7.526  30.290  58.597  1.00  0.00     0.012 A 
HETATM   18  C   UNL     1       8.333  30.356  59.746  1.00  0.00     0.017 A 
HETATM   19  C   UNL     1       8.134  31.345  60.714  1.00  0.00     0.025 A 
HETATM   20  C   UNL     1       7.118  32.279  60.546  1.00  0.00     0.034 A 
HETATM   21 CL   UNL     1       6.862  33.491  61.737  1.00  0.00    -0.084 Cl
HETATM   22  C   UNL     1       6.303  32.231  59.416  1.00  0.00     0.025 A 
HETATM   23  C   UNL     1       6.506  31.243  58.445  1.00  0.00     0.017 A 
ENDBRANCH  14  17
ENDBRANCH  10  11
ENDBRANCH   1  10
BRANCH   1  24
HETATM   24  C   UNL     1       5.266  26.715  54.860  1.00  0.00     0.123 C 
BRANCH  24  25
HETATM   25  C   UNL     1       4.483  27.975  54.576  1.00  0.00     0.219 C 
HETATM   26  N   UNL     1       3.789  27.964  53.393  1.00  0.00    -0.361 N 
HETATM   27  H   UNL     1       3.618  27.055  52.954  1.00  0.00     0.162 HD
HETATM   28  O   UNL     1       4.475  28.951  55.327  1.00  0.00    -0.274 OA
BRANCH  26  29
HETATM   29  C   UNL     1       3.108  29.113  52.848  1.00  0.00     0.124 C 
BRANCH  29  30
HETATM   30  C   UNL     1       2.973  29.100  51.328  1.00  0.00     0.047 C 
BRANCH  30  31
HETATM   31  C   UNL     1       3.932  28.199  50.549  1.00  0.00     0.236 C 
BRANCH  31  32
HETATM   32  N   UNL     1       3.289  27.452  49.413  1.00  0.00    -0.067 N 
HETATM   33  H   UNL     1       2.411  27.040  49.799  1.00  0.00     0.280 HD
HETATM   34  C   UNL     1       2.946  28.281  48.190  1.00  0.00     0.261 C 
HETATM   35  C   UNL     1       2.268  27.394  47.139  1.00  0.00     0.195 C 
HETATM   36  O   UNL     1       3.107  26.291  46.779  1.00  0.00    -0.388 OA
HETATM   37  C   UNL     1       3.382  25.456  47.910  1.00  0.00     0.195 C 
HETATM   38  C   UNL     1       4.119  26.239  49.002  1.00  0.00     0.261 C 
ENDBRANCH  31  32
ENDBRANCH  30  31
ENDBRANCH  29  30
ENDBRANCH  26  29
ENDBRANCH  24  25
ENDBRANCH   1  24
TORSDOF 11
ENDMDL
MODEL 2
REMARK VINA RESULT:      -9.0      3.048      6.141
REMARK  11 active torsions:
REMARK  status: ('A' for Active; 'I' for Inactive)
REMARK    1  A    between atoms: O_2  and  C_3 
REMARK    2  A    between atoms: C_6  and  C_7 
REMARK    3  A    between atoms: C_7  and  S_8 
REMARK    4  A    between atoms: C_7  and  C_22 
REMARK    5  A    between atoms: S_8  and  C_9 
REMARK    6  A    between atoms: C_12  and  C_13 
REMARK    7  A    between atoms: C_22  and  C_23 
REMARK       I    between atoms: C_23  and  N_24 
REMARK    8  A    between atoms: N_24  and  C_25 
REMARK    9  A    between atoms: C_25  and  C_26 
REMARK   10  A    between atoms: C_26  and  C_27 
REMARK   11  A    between atoms: C_27  and  N_28 
ROOT
HETATM    1  C   UNL     1       7.391  28.998  56.824  1.00  0.00     0.097 C 
ENDROOT
BRANCH   1   2
HETATM    2  C   UNL     1       6.970  28.681  55.394  1.00  0.00    -0.043 A 
HETATM    3  C   UNL     1       7.849  28.088  54.473  1.00  0.00     0.011 A 
HETATM    4  C   UNL     1       7.409  27.740  53.194  1.00  0.00     0.037 A 
HETATM    5  C   UNL     1       6.080  27.942  52.829  1.00  0.00     0.068 A 
HETATM    6  C   UNL     1       5.203  28.557  53.718  1.00  0.00     0.037 A 
HETATM    7  C   UNL     1       5.644  28.923  54.992  1.00  0.00     0.011 A 
BRANCH   5   8
HETATM    8  O   UNL     1       5.731  27.550  51.568  1.00  0.00    -0.356 OA
HETATM    9  C   UNL     1       5.345  26.178  51.490  1.00  0.00     0.210 C 
ENDBRANCH   5   8
ENDBRANCH   1   2
BRANCH   1  10
HETATM   10  S   UNL     1       9.194  29.376  56.932  1.00  0.00    -0.080 SA
BRANCH  10  11
HETATM   11  C   UNL     1       9.293  30.627  58.100  1.00  0.00     0.190 A 
HETATM   12  N   UNL     1      10.208  31.557  58.193  1.00  0.00    -0.122 NA
HETATM   13  N   UNL     1       9.911  32.315  59.295  1.00  0.00    -0.129 NA
HETATM   14  C   UNL     1       8.842  31.803  59.888  1.00  0.00     0.162 A 
HETATM   15  N   UNL     1       8.429  30.720  59.147  1.00  0.00    -0.317 N 
HETATM   16  H   UNL     1       7.635  30.122  59.323  1.00  0.00     0.169 HD
BRANCH  14  17
HETATM   17  C   UNL     1       8.205  32.302  61.107  1.00  0.00     0.012 A 
HETATM   18  C   UNL     1       7.051  33.098  61.001  1.00  0.00     0.017 A 
HETATM   19  C   UNL     1       6.417  33.607  62.137  1.00  0.00     0.025 A 
HETATM   20  C   UNL     1       6.935  33.331  63.398  1.00  0.00     0.034 A 
HETATM   21 CL   UNL     1       6.166  33.963  64.799  1.00  0.00    -0.084 Cl
HETATM   22  C   UNL     1       8.080  32.547  63.528  1.00  0.00     0.025 A 
HETATM   23  C   UNL     1       8.712  32.033  62.388  1.00  0.00     0.017 A 
ENDBRANCH  14  17
ENDBRANCH  10  11
ENDBRANCH   1  10
BRANCH   1  24
HETATM   24  C   UNL     1       6.815  27.951  57.784  1.00  0.00     0.123 C 
BRANCH  24  25
HETATM   25  C   UNL     1       7.237  26.542  57.441  1.00  0.00     0.219 C 
HETATM   26  N   UNL     1       6.348  25.852  56.656  1.00  0.00    -0.361 N 
HETATM   27  H   UNL     1       5.648  26.396  56.144  1.00  0.00     0.162 HD
HETATM   28  O   UNL     1       8.284  26.032  57.842  1.00  0.00    -0.274 OA
BRANCH  26  29
HETATM   29  C   UNL     1       6.470  24.449  56.342  1.00  0.00     0.124 C 
BRANCH  29  30
HETATM   30  C   UNL     1       6.735  24.157  54.868  1.00  0.00     0.047 C 
BRANCH  30  31
HETATM   31  C   UNL     1       8.195  24.054  54.427  1.00  0.00     0.236 C 
BRANCH  31  32
HETATM   32  N   UNL     1       8.709  22.645  54.321  1.00  0.00    -0.067 N 
HETATM   33  H   UNL     1       9.685  22.720  53.958  1.00  0.00     0.280 HD
HETATM   34  C   UNL     1       8.726  21.852  55.614  1.00  0.00     0.261 C 
HETATM   35  C   UNL     1       9.306  20.456  55.355  1.00  0.00     0.195 C 
HETATM   36  O   UNL     1       8.555  19.765  54.351  1.00  0.00    -0.388 OA
HETATM   37  C   UNL     1       8.589  20.465  53.102  1.00  0.00     0.195 C 
HETATM   38  C   UNL     1       7.971  21.861  53.240  1.00  0.00     0.261 C 
ENDBRANCH  31  32
ENDBRANCH  30  31
ENDBRANCH  29  30
ENDBRANCH  26  29
ENDBRANCH  24  25
ENDBRANCH   1  24
TORSDOF 11
ENDMDL
MODEL 3
REMARK VINA RESULT:      -9.0      1.622      2.124
REMARK  11 active torsions:
REMARK  status: ('A' for Active; 'I' for Inactive)
REMARK    1  A    between atoms: O_2  and  C_3 
REMARK    2  A    between atoms: C_6  and  C_7 
REMARK    3  A    between atoms: C_7  and  S_8 
REMARK    4  A    between atoms: C_7  and  C_22 
REMARK    5  A    between atoms: S_8  and  C_9 
REMARK    6  A    between atoms: C_12  and  C_13 
REMARK    7  A    between atoms: C_22  and  C_23 
REMARK       I    between atoms: C_23  and  N_24 
REMARK    8  A    between atoms: N_24  and  C_25 
REMARK    9  A    between atoms: C_25  and  C_26 
REMARK   10  A    between atoms: C_26  and  C_27 
REMARK   11  A    between atoms: C_27  and  N_28 
ROOT
HETATM    1  C   UNL     1       6.874  27.365  55.912  1.00  0.00     0.097 C 
ENDROOT
BRANCH   1   2
HETATM    2  C   UNL     1       7.184  26.097  55.127  1.00  0.00    -0.043 A 
HETATM    3  C   UNL     1       7.083  24.820  55.704  1.00  0.00     0.011 A 
HETATM    4  C   UNL     1       7.298  23.674  54.936  1.00  0.00     0.037 A 
HETATM    5  C   UNL     1       7.580  23.783  53.576  1.00  0.00     0.068 A 
HETATM    6  C   UNL     1       7.714  25.040  52.994  1.00  0.00     0.037 A 
HETATM    7  C   UNL     1       7.516  26.189  53.764  1.00  0.00     0.011 A 
BRANCH   5   8
HETATM    8  O   UNL     1       7.752  22.610  52.896  1.00  0.00    -0.356 OA
HETATM    9  C   UNL     1       8.689  21.730  53.517  1.00  0.00     0.210 C 
ENDBRANCH   5   8
ENDBRANCH   1   2
BRANCH   1  10
HETATM   10  S   UNL     1       8.247  27.802  57.065  1.00  0.00    -0.080 SA
BRANCH  10  11
HETATM   11  C   UNL     1       7.727  29.257  57.807  1.00  0.00     0.190 A 
HETATM   12  N   UNL     1       7.131  30.271  57.237  1.00  0.00    -0.122 NA
HETATM   13  N   UNL     1       6.936  31.226  58.200  1.00  0.00    -0.129 NA
HETATM   14  C   UNL     1       7.463  30.797  59.338  1.00  0.00     0.162 A 
HETATM   15  N   UNL     1       7.981  29.542  59.114  1.00  0.00    -0.317 N 
HETATM   16  H   UNL     1       8.437  28.939  59.781  1.00  0.00     0.169 HD
BRANCH  14  17
HETATM   17  C   UNL     1       7.485  31.521  60.609  1.00  0.00     0.012 A 
HETATM   18  C   UNL     1       8.340  31.081  61.634  1.00  0.00     0.017 A 
HETATM   19  C   UNL     1       8.385  31.733  62.869  1.00  0.00     0.025 A 
HETATM   20  C   UNL     1       7.567  32.834  63.097  1.00  0.00     0.034 A 
HETATM   21 CL   UNL     1       7.610  33.635  64.617  1.00  0.00    -0.084 Cl
HETATM   22  C   UNL     1       6.708  33.287  62.097  1.00  0.00     0.025 A 
HETATM   23  C   UNL     1       6.668  32.635  60.858  1.00  0.00     0.017 A 
ENDBRANCH  14  17
ENDBRANCH  10  11
ENDBRANCH   1  10
BRANCH   1  24
HETATM   24  C   UNL     1       5.451  27.296  56.479  1.00  0.00     0.123 C 
BRANCH  24  25
HETATM   25  C   UNL     1       4.474  28.168  55.726  1.00  0.00     0.219 C 
HETATM   26  N   UNL     1       4.285  27.815  54.414  1.00  0.00    -0.361 N 
HETATM   27  H   UNL     1       4.569  26.872  54.132  1.00  0.00     0.162 HD
HETATM   28  O   UNL     1       3.900  29.134  56.230  1.00  0.00    -0.274 OA
BRANCH  26  29
HETATM   29  C   UNL     1       3.524  28.598  53.471  1.00  0.00     0.124 C 
BRANCH  29  30
HETATM   30  C   UNL     1       4.215  28.805  52.126  1.00  0.00     0.047 C 
BRANCH  30  31
HETATM   31  C   UNL     1       4.713  27.557  51.396  1.00  0.00     0.236 C 
BRANCH  31  32
HETATM   32  N   UNL     1       4.511  27.594  49.906  1.00  0.00    -0.067 N 
HETATM   33  H   UNL     1       3.544  27.958  49.755  1.00  0.00     0.280 HD
HETATM   34  C   UNL     1       5.487  28.456  49.130  1.00  0.00     0.261 C 
HETATM   35  C   UNL     1       5.133  28.422  47.638  1.00  0.00     0.195 C 
HETATM   36  O   UNL     1       5.141  27.080  47.139  1.00  0.00    -0.388 OA
HETATM   37  C   UNL     1       4.172  26.269  47.813  1.00  0.00     0.195 C 
HETATM   38  C   UNL     1       4.474  26.188  49.313  1.00  0.00     0.261 C 
ENDBRANCH  31  32
ENDBRANCH  30  31
ENDBRANCH  29  30
ENDBRANCH  26  29
ENDBRANCH  24  25
ENDBRANCH   1  24
TORSDOF 11
ENDMDL
MODEL 4
REMARK VINA RESULT:      -8.9      2.219      3.170
REMARK  11 active torsions:
REMARK  status: ('A' for Active; 'I' for Inactive)
REMARK    1  A    between atoms: O_2  and  C_3 
REMARK    2  A    between atoms: C_6  and  C_7 
REMARK    3  A    between atoms: C_7  and  S_8 
REMARK    4  A    between atoms: C_7  and  C_22 
REMARK    5  A    between atoms: S_8  and  C_9 
REMARK    6  A    between atoms: C_12  and  C_13 
REMARK    7  A    between atoms: C_22  and  C_23 
REMARK       I    between atoms: C_23  and  N_24 
REMARK    8  A    between atoms: N_24  and  C_25 
REMARK    9  A    between atoms: C_25  and  C_26 
REMARK   10  A    between atoms: C_26  and  C_27 
REMARK   11  A    between atoms: C_27  and  N_28 
ROOT
HETATM    1  C   UNL     1       6.149  25.321  53.255  1.00  0.00     0.097 C 
ENDROOT
BRANCH   1   2
HETATM    2  C   UNL     1       6.841  24.025  53.658  1.00  0.00    -0.043 A 
HETATM    3  C   UNL     1       7.461  23.188  52.716  1.00  0.00     0.011 A 
HETATM    4  C   UNL     1       8.154  22.047  53.127  1.00  0.00     0.037 A 
HETATM    5  C   UNL     1       8.272  21.746  54.482  1.00  0.00     0.068 A 
HETATM    6  C   UNL     1       7.638  22.547  55.428  1.00  0.00     0.037 A 
HETATM    7  C   UNL     1       6.929  23.680  55.019  1.00  0.00     0.011 A 
BRANCH   5   8
HETATM    8  O   UNL     1       8.988  20.625  54.794  1.00  0.00    -0.356 OA
HETATM    9  C   UNL     1       9.098  20.400  56.200  1.00  0.00     0.210 C 
ENDBRANCH   5   8
ENDBRANCH   1   2
BRANCH   1  10
HETATM   10  S   UNL     1       5.485  26.221  54.723  1.00  0.00    -0.080 SA
BRANCH  10  11
HETATM   11  C   UNL     1       6.695  27.380  55.088  1.00  0.00     0.190 A 
HETATM   12  N   UNL     1       7.641  27.817  54.298  1.00  0.00    -0.122 NA
HETATM   13  N   UNL     1       8.399  28.703  55.018  1.00  0.00    -0.129 NA
HETATM   14  C   UNL     1       7.931  28.755  56.257  1.00  0.00     0.162 A 
HETATM   15  N   UNL     1       6.844  27.914  56.331  1.00  0.00    -0.317 N 
HETATM   16  H   UNL     1       6.257  27.740  57.132  1.00  0.00     0.169 HD
BRANCH  14  17
HETATM   17  C   UNL     1       8.465  29.567  57.351  1.00  0.00     0.012 A 
HETATM   18  C   UNL     1       7.709  29.717  58.525  1.00  0.00     0.017 A 
HETATM   19  C   UNL     1       8.173  30.493  59.591  1.00  0.00     0.025 A 
HETATM   20  C   UNL     1       9.402  31.136  59.491  1.00  0.00     0.034 A 
HETATM   21 CL   UNL     1       9.975  32.100  60.793  1.00  0.00    -0.084 Cl
HETATM   22  C   UNL     1      10.169  31.004  58.334  1.00  0.00     0.025 A 
HETATM   23  C   UNL     1       9.704  30.222  57.270  1.00  0.00     0.017 A 
ENDBRANCH  14  17
ENDBRANCH  10  11
ENDBRANCH   1  10
BRANCH   1  24
HETATM   24  C   UNL     1       5.201  25.064  52.078  1.00  0.00     0.123 C 
BRANCH  24  25
HETATM   25  C   UNL     1       5.183  26.196  51.078  1.00  0.00     0.219 C 
HETATM   26  N   UNL     1       4.440  25.953  49.951  1.00  0.00    -0.361 N 
HETATM   27  H   UNL     1       3.754  25.195  49.991  1.00  0.00     0.162 HD
HETATM   28  O   UNL     1       5.797  27.252  51.239  1.00  0.00    -0.274 OA
BRANCH  26  29
HETATM   29  C   UNL     1       4.413  26.824  48.801  1.00  0.00     0.124 C 
BRANCH  29  30
HETATM   30  C   UNL     1       3.628  26.272  47.614  1.00  0.00     0.047 C 
BRANCH  30  31
HETATM   31  C   UNL     1       2.103  26.360  47.682  1.00  0.00     0.236 C 
BRANCH  31  32
HETATM   32  N   UNL     1       1.532  27.625  47.102  1.00  0.00    -0.067 N 
HETATM   33  H   UNL     1       2.253  27.991  46.442  1.00  0.00     0.280 HD
HETATM   34  C   UNL     1       0.219  27.474  46.360  1.00  0.00     0.261 C 
HETATM   35  C   UNL     1      -0.215  28.834  45.798  1.00  0.00     0.195 C 
HETATM   36  O   UNL     1      -0.336  29.806  46.842  1.00  0.00    -0.388 OA
HETATM   37  C   UNL     1       0.915  30.013  47.508  1.00  0.00     0.195 C 
HETATM   38  C   UNL     1       1.409  28.718  48.160  1.00  0.00     0.261 C 
ENDBRANCH  31  32
ENDBRANCH  30  31
ENDBRANCH  29  30
ENDBRANCH  26  29
ENDBRANCH  24  25
ENDBRANCH   1  24
TORSDOF 11
ENDMDL
MODEL 5
REMARK VINA RESULT:      -8.9      1.483      1.748
REMARK  11 active torsions:
REMARK  status: ('A' for Active; 'I' for Inactive)
REMARK    1  A    between atoms: O_2  and  C_3 
REMARK    2  A    between atoms: C_6  and  C_7 
REMARK    3  A    between atoms: C_7  and  S_8 
REMARK    4  A    between atoms: C_7  and  C_22 
REMARK    5  A    between atoms: S_8  and  C_9 
REMARK    6  A    between atoms: C_12  and  C_13 
REMARK    7  A    between atoms: C_22  and  C_23 
REMARK       I    between atoms: C_23  and  N_24 
REMARK    8  A    between atoms: N_24  and  C_25 
REMARK    9  A    between atoms: C_25  and  C_26 
REMARK   10  A    between atoms: C_26  and  C_27 
REMARK   11  A    between atoms: C_27  and  N_28 
ROOT
HETATM    1  C   UNL     1       7.045  26.152  54.227  1.00  0.00     0.097 C 
ENDROOT
BRANCH   1   2
HETATM    2  C   UNL     1       7.381  24.667  54.184  1.00  0.00    -0.043 A 
HETATM    3  C   UNL     1       7.374  23.868  55.339  1.00  0.00     0.011 A 
HETATM    4  C   UNL     1       7.610  22.494  55.255  1.00  0.00     0.037 A 
HETATM    5  C   UNL     1       7.818  21.892  54.016  1.00  0.00     0.068 A 
HETATM    6  C   UNL     1       7.859  22.672  52.864  1.00  0.00     0.037 A 
HETATM    7  C   UNL     1       7.640  24.050  52.947  1.00  0.00     0.011 A 
BRANCH   5   8
HETATM    8  O   UNL     1       8.016  20.540  54.025  1.00  0.00    -0.356 OA
HETATM    9  C   UNL     1       8.651  20.070  55.213  1.00  0.00     0.210 C 
ENDBRANCH   5   8
ENDBRANCH   1   2
BRANCH   1  10
HETATM   10  S   UNL     1       5.672  26.504  55.408  1.00  0.00    -0.080 SA
BRANCH  10  11
HETATM   11  C   UNL     1       6.012  28.079  55.992  1.00  0.00     0.190 A 
HETATM   12  N   UNL     1       5.933  29.206  55.333  1.00  0.00    -0.122 NA
HETATM   13  N   UNL     1       6.332  30.205  56.180  1.00  0.00    -0.129 NA
HETATM   14  C   UNL     1       6.697  29.665  57.334  1.00  0.00     0.162 A 
HETATM   15  N   UNL     1       6.506  28.305  57.240  1.00  0.00    -0.317 N 
HETATM   16  H   UNL     1       6.675  27.611  57.952  1.00  0.00     0.169 HD
BRANCH  14  17
HETATM   17  C   UNL     1       7.202  30.382  58.505  1.00  0.00     0.012 A 
HETATM   18  C   UNL     1       8.330  29.884  59.180  1.00  0.00     0.017 A 
HETATM   19  C   UNL     1       8.840  30.528  60.310  1.00  0.00     0.025 A 
HETATM   20  C   UNL     1       8.221  31.680  60.785  1.00  0.00     0.034 A 
HETATM   21 CL   UNL     1       8.837  32.472  62.180  1.00  0.00    -0.084 Cl
HETATM   22  C   UNL     1       7.100  32.191  60.134  1.00  0.00     0.025 A 
HETATM   23  C   UNL     1       6.593  31.547  58.999  1.00  0.00     0.017 A 
ENDBRANCH  14  17
ENDBRANCH  10  11
ENDBRANCH   1  10
BRANCH   1  24
HETATM   24  C   UNL     1       6.931  26.705  52.802  1.00  0.00     0.123 C 
BRANCH  24  25
HETATM   25  C   UNL     1       5.506  27.005  52.399  1.00  0.00     0.219 C 
HETATM   26  N   UNL     1       5.131  28.315  52.553  1.00  0.00    -0.361 N 
HETATM   27  H   UNL     1       5.874  29.013  52.642  1.00  0.00     0.162 HD
HETATM   28  O   UNL     1       4.725  26.148  51.982  1.00  0.00    -0.274 OA
BRANCH  26  29
HETATM   29  C   UNL     1       3.779  28.791  52.383  1.00  0.00     0.124 C 
BRANCH  29  30
HETATM   30  C   UNL     1       3.502  29.420  51.020  1.00  0.00     0.047 C 
BRANCH  30  31
HETATM   31  C   UNL     1       2.367  28.819  50.190  1.00  0.00     0.236 C 
BRANCH  31  32
HETATM   32  N   UNL     1       2.782  27.656  49.331  1.00  0.00    -0.067 N 
HETATM   33  H   UNL     1       2.814  26.827  49.965  1.00  0.00     0.280 HD
HETATM   34  C   UNL     1       1.870  27.344  48.160  1.00  0.00     0.261 C 
HETATM   35  C   UNL     1       2.399  26.119  47.406  1.00  0.00     0.195 C 
HETATM   36  O   UNL     1       3.741  26.333  46.955  1.00  0.00    -0.388 OA
HETATM   37  C   UNL     1       4.630  26.557  48.055  1.00  0.00     0.195 C 
HETATM   38  C   UNL     1       4.220  27.806  48.844  1.00  0.00     0.261 C 
ENDBRANCH  31  32
ENDBRANCH  30  31
ENDBRANCH  29  30
ENDBRANCH  26  29
ENDBRANCH  24  25
ENDBRANCH   1  24
TORSDOF 11
ENDMDL
MODEL 6
REMARK VINA RESULT:      -8.8      4.450      7.636
REMARK  11 active torsions:
REMARK  status: ('A' for Active; 'I' for Inactive)
REMARK    1  A    between atoms: O_2  and  C_3 
REMARK    2  A    between atoms: C_6  and  C_7 
REMARK    3  A    between atoms: C_7  and  S_8 
REMARK    4  A    between atoms: C_7  and  C_22 
REMARK    5  A    between atoms: S_8  and  C_9 
REMARK    6  A    between atoms: C_12  and  C_13 
REMARK    7  A    between atoms: C_22  and  C_23 
REMARK       I    between atoms: C_23  and  N_24 
REMARK    8  A    between atoms: N_24  and  C_25 
REMARK    9  A    between atoms: C_25  and  C_26 
REMARK   10  A    between atoms: C_26  and  C_27 
REMARK   11  A    between atoms: C_27  and  N_28 
ROOT
HETATM    1  C   UNL     1       8.064  29.767  58.185  1.00  0.00     0.097 C 
ENDROOT
BRANCH   1   2
HETATM    2  C   UNL     1       6.691  30.303  57.801  1.00  0.00    -0.043 A 
HETATM    3  C   UNL     1       5.671  29.464  57.324  1.00  0.00     0.011 A 
HETATM    4  C   UNL     1       4.399  29.975  57.054  1.00  0.00     0.037 A 
HETATM    5  C   UNL     1       4.116  31.317  57.291  1.00  0.00     0.068 A 
HETATM    6  C   UNL     1       5.123  32.171  57.734  1.00  0.00     0.037 A 
HETATM    7  C   UNL     1       6.401  31.667  57.989  1.00  0.00     0.011 A 
BRANCH   5   8
HETATM    8  O   UNL     1       2.840  31.726  57.023  1.00  0.00    -0.356 OA
HETATM    9  C   UNL     1       2.468  31.553  55.655  1.00  0.00     0.210 C 
ENDBRANCH   5   8
ENDBRANCH   1   2
BRANCH   1  10
HETATM   10  S   UNL     1       9.147  31.099  58.864  1.00  0.00    -0.080 SA
BRANCH  10  11
HETATM   11  C   UNL     1       8.789  31.118  60.541  1.00  0.00     0.190 A 
HETATM   12  N   UNL     1       9.163  30.249  61.443  1.00  0.00    -0.122 NA
HETATM   13  N   UNL     1       8.618  30.640  62.638  1.00  0.00    -0.129 NA
HETATM   14  C   UNL     1       7.876  31.719  62.435  1.00  0.00     0.162 A 
HETATM   15  N   UNL     1       7.964  32.044  61.101  1.00  0.00    -0.317 N 
HETATM   16  H   UNL     1       7.527  32.821  60.628  1.00  0.00     0.169 HD
BRANCH  14  17
HETATM   17  C   UNL     1       7.107  32.444  63.447  1.00  0.00     0.012 A 
HETATM   18  C   UNL     1       5.708  32.500  63.335  1.00  0.00     0.017 A 
HETATM   19  C   UNL     1       4.934  33.193  64.271  1.00  0.00     0.025 A 
HETATM   20  C   UNL     1       5.555  33.845  65.330  1.00  0.00     0.034 A 
HETATM   21 CL   UNL     1       4.611  34.707  66.479  1.00  0.00    -0.084 Cl
HETATM   22  C   UNL     1       6.942  33.807  65.460  1.00  0.00     0.025 A 
HETATM   23  C   UNL     1       7.715  33.109  64.524  1.00  0.00     0.017 A 
ENDBRANCH  14  17
ENDBRANCH  10  11
ENDBRANCH   1  10
BRANCH   1  24
HETATM   24  C   UNL     1       8.619  28.891  57.056  1.00  0.00     0.123 C 
BRANCH  24  25
HETATM   25  C   UNL     1       8.124  27.466  57.119  1.00  0.00     0.219 C 
HETATM   26  N   UNL     1       7.802  26.917  55.904  1.00  0.00    -0.361 N 
HETATM   27  H   UNL     1       8.173  27.373  55.065  1.00  0.00     0.162 HD
HETATM   28  O   UNL     1       7.996  26.839  58.171  1.00  0.00    -0.274 OA
BRANCH  26  29
HETATM   29  C   UNL     1       7.164  25.633  55.744  1.00  0.00     0.124 C 
BRANCH  29  30
HETATM   30  C   UNL     1       7.613  24.858  54.508  1.00  0.00     0.047 C 
BRANCH  30  31
HETATM   31  C   UNL     1       6.989  23.481  54.281  1.00  0.00     0.236 C 
BRANCH  31  32
HETATM   32  N   UNL     1       7.971  22.344  54.331  1.00  0.00    -0.067 N 
HETATM   33  H   UNL     1       8.908  22.763  54.142  1.00  0.00     0.280 HD
HETATM   34  C   UNL     1       8.030  21.582  55.641  1.00  0.00     0.261 C 
HETATM   35  C   UNL     1       9.097  20.483  55.552  1.00  0.00     0.195 C 
HETATM   36  O   UNL     1       8.827  19.593  54.464  1.00  0.00    -0.388 OA
HETATM   37  C   UNL     1       8.840  20.285  53.210  1.00  0.00     0.195 C 
HETATM   38  C   UNL     1       7.760  21.371  53.174  1.00  0.00     0.261 C 
ENDBRANCH  31  32
ENDBRANCH  30  31
ENDBRANCH  29  30
ENDBRANCH  26  29
ENDBRANCH  24  25
ENDBRANCH   1  24
TORSDOF 11
ENDMDL
MODEL 7
REMARK VINA RESULT:      -8.7      2.367      3.325
REMARK  11 active torsions:
REMARK  status: ('A' for Active; 'I' for Inactive)
REMARK    1  A    between atoms: O_2  and  C_3 
REMARK    2  A    between atoms: C_6  and  C_7 
REMARK    3  A    between atoms: C_7  and  S_8 
REMARK    4  A    between atoms: C_7  and  C_22 
REMARK    5  A    between atoms: S_8  and  C_9 
REMARK    6  A    between atoms: C_12  and  C_13 
REMARK    7  A    between atoms: C_22  and  C_23 
REMARK       I    between atoms: C_23  and  N_24 
REMARK    8  A    between atoms: N_24  and  C_25 
REMARK    9  A    between atoms: C_25  and  C_26 
REMARK   10  A    between atoms: C_26  and  C_27 
REMARK   11  A    between atoms: C_27  and  N_28 
ROOT
HETATM    1  C   UNL     1       6.216  25.309  53.256  1.00  0.00     0.097 C 
ENDROOT
BRANCH   1   2
HETATM    2  C   UNL     1       6.919  24.030  53.696  1.00  0.00    -0.043 A 
HETATM    3  C   UNL     1       7.551  23.175  52.778  1.00  0.00     0.011 A 
HETATM    4  C   UNL     1       8.253  22.052  53.222  1.00  0.00     0.037 A 
HETATM    5  C   UNL     1       8.366  21.786  54.584  1.00  0.00     0.068 A 
HETATM    6  C   UNL     1       7.720  22.605  55.506  1.00  0.00     0.037 A 
HETATM    7  C   UNL     1       7.002  23.720  55.065  1.00  0.00     0.011 A 
BRANCH   5   8
HETATM    8  O   UNL     1       9.090  20.680  54.929  1.00  0.00    -0.356 OA
HETATM    9  C   UNL     1       9.013  20.366  56.319  1.00  0.00     0.210 C 
ENDBRANCH   5   8
ENDBRANCH   1   2
BRANCH   1  10
HETATM   10  S   UNL     1       5.520  26.230  54.696  1.00  0.00    -0.080 SA
BRANCH  10  11
HETATM   11  C   UNL     1       6.722  27.394  55.072  1.00  0.00     0.190 A 
HETATM   12  N   UNL     1       7.673  27.835  54.291  1.00  0.00    -0.122 NA
HETATM   13  N   UNL     1       8.420  28.724  55.017  1.00  0.00    -0.129 NA
HETATM   14  C   UNL     1       7.941  28.774  56.252  1.00  0.00     0.162 A 
HETATM   15  N   UNL     1       6.857  27.929  56.316  1.00  0.00    -0.317 N 
HETATM   16  H   UNL     1       6.263  27.752  57.112  1.00  0.00     0.169 HD
BRANCH  14  17
HETATM   17  C   UNL     1       8.461  29.588  57.350  1.00  0.00     0.012 A 
HETATM   18  C   UNL     1       7.664  29.793  58.489  1.00  0.00     0.017 A 
HETATM   19  C   UNL     1       8.114  30.574  59.557  1.00  0.00     0.025 A 
HETATM   20  C   UNL     1       9.371  31.166  59.496  1.00  0.00     0.034 A 
HETATM   21 CL   UNL     1       9.927  32.136  60.801  1.00  0.00    -0.084 Cl
HETATM   22  C   UNL     1      10.179  30.980  58.375  1.00  0.00     0.025 A 
HETATM   23  C   UNL     1       9.728  30.194  57.308  1.00  0.00     0.017 A 
ENDBRANCH  14  17
ENDBRANCH  10  11
ENDBRANCH   1  10
BRANCH   1  24
HETATM   24  C   UNL     1       5.290  25.016  52.071  1.00  0.00     0.123 C 
BRANCH  24  25
HETATM   25  C   UNL     1       5.251  26.140  51.062  1.00  0.00     0.219 C 
HETATM   26  N   UNL     1       4.343  25.969  50.048  1.00  0.00    -0.361 N 
HETATM   27  H   UNL     1       3.596  25.285  50.193  1.00  0.00     0.162 HD
HETATM   28  O   UNL     1       5.983  27.129  51.121  1.00  0.00    -0.274 OA
BRANCH  26  29
HETATM   29  C   UNL     1       4.248  26.834  48.897  1.00  0.00     0.124 C 
BRANCH  29  30
HETATM   30  C   UNL     1       3.079  27.814  48.943  1.00  0.00     0.047 C 
BRANCH  30  31
HETATM   31  C   UNL     1       3.063  28.831  50.085  1.00  0.00     0.236 C 
BRANCH  31  32
HETATM   32  N   UNL     1       3.705  30.148  49.746  1.00  0.00    -0.067 N 
HETATM   33  H   UNL     1       3.111  30.881  50.191  1.00  0.00     0.280 HD
HETATM   34  C   UNL     1       5.136  30.323  50.218  1.00  0.00     0.261 C 
HETATM   35  C   UNL     1       5.639  31.720  49.834  1.00  0.00     0.195 C 
HETATM   36  O   UNL     1       5.546  31.929  48.420  1.00  0.00    -0.388 OA
HETATM   37  C   UNL     1       4.190  31.838  47.969  1.00  0.00     0.195 C 
HETATM   38  C   UNL     1       3.610  30.448  48.253  1.00  0.00     0.261 C 
ENDBRANCH  31  32
ENDBRANCH  30  31
ENDBRANCH  29  30
ENDBRANCH  26  29
ENDBRANCH  24  25
ENDBRANCH   1  24
TORSDOF 11
ENDMDL
MODEL 8
REMARK VINA RESULT:      -8.6      5.061     11.154
REMARK  11 active torsions:
REMARK  status: ('A' for Active; 'I' for Inactive)
REMARK    1  A    between atoms: O_2  and  C_3 
REMARK    2  A    between atoms: C_6  and  C_7 
REMARK    3  A    between atoms: C_7  and  S_8 
REMARK    4  A    between atoms: C_7  and  C_22 
REMARK    5  A    between atoms: S_8  and  C_9 
REMARK    6  A    between atoms: C_12  and  C_13 
REMARK    7  A    between atoms: C_22  and  C_23 
REMARK       I    between atoms: C_23  and  N_24 
REMARK    8  A    between atoms: N_24  and  C_25 
REMARK    9  A    between atoms: C_25  and  C_26 
REMARK   10  A    between atoms: C_26  and  C_27 
REMARK   11  A    between atoms: C_27  and  N_28 
ROOT
HETATM    1  C   UNL     1       6.092  29.947  56.804  1.00  0.00     0.097 C 
ENDROOT
BRANCH   1   2
HETATM    2  C   UNL     1       5.273  30.952  57.605  1.00  0.00    -0.043 A 
HETATM    3  C   UNL     1       5.557  32.327  57.586  1.00  0.00     0.011 A 
HETATM    4  C   UNL     1       4.740  33.231  58.270  1.00  0.00     0.037 A 
HETATM    5  C   UNL     1       3.610  32.781  58.949  1.00  0.00     0.068 A 
HETATM    6  C   UNL     1       3.331  31.419  59.005  1.00  0.00     0.037 A 
HETATM    7  C   UNL     1       4.156  30.510  58.336  1.00  0.00     0.011 A 
BRANCH   5   8
HETATM    8  O   UNL     1       2.855  33.736  59.569  1.00  0.00    -0.356 OA
HETATM    9  C   UNL     1       3.635  34.726  60.239  1.00  0.00     0.210 C 
ENDBRANCH   5   8
ENDBRANCH   1   2
BRANCH   1  10
HETATM   10  S   UNL     1       5.064  29.098  55.528  1.00  0.00    -0.080 SA
BRANCH  10  11
HETATM   11  C   UNL     1       6.141  27.983  54.794  1.00  0.00     0.190 A 
HETATM   12  N   UNL     1       7.088  28.244  53.932  1.00  0.00    -0.122 NA
HETATM   13  N   UNL     1       7.668  27.051  53.588  1.00  0.00    -0.129 NA
HETATM   14  C   UNL     1       7.029  26.072  54.211  1.00  0.00     0.162 A 
HETATM   15  N   UNL     1       6.044  26.640  54.987  1.00  0.00    -0.317 N 
HETATM   16  H   UNL     1       5.392  26.167  55.594  1.00  0.00     0.169 HD
BRANCH  14  17
HETATM   17  C   UNL     1       7.321  24.642  54.106  1.00  0.00     0.012 A 
HETATM   18  C   UNL     1       7.287  23.848  55.265  1.00  0.00     0.017 A 
HETATM   19  C   UNL     1       7.572  22.481  55.214  1.00  0.00     0.025 A 
HETATM   20  C   UNL     1       7.901  21.890  53.998  1.00  0.00     0.034 A 
HETATM   21 CL   UNL     1       8.263  20.211  53.930  1.00  0.00    -0.084 Cl
HETATM   22  C   UNL     1       7.945  22.658  52.836  1.00  0.00     0.025 A 
HETATM   23  C   UNL     1       7.655  24.027  52.888  1.00  0.00     0.017 A 
ENDBRANCH  14  17
ENDBRANCH  10  11
ENDBRANCH   1  10
BRANCH   1  24
HETATM   24  C   UNL     1       6.929  29.079  57.751  1.00  0.00     0.123 C 
BRANCH  24  25
HETATM   25  C   UNL     1       8.177  29.775  58.239  1.00  0.00     0.219 C 
HETATM   26  N   UNL     1       8.185  30.065  59.581  1.00  0.00    -0.361 N 
HETATM   27  H   UNL     1       7.522  29.562  60.177  1.00  0.00     0.162 HD
HETATM   28  O   UNL     1       9.114  30.082  57.501  1.00  0.00    -0.274 OA
BRANCH  26  29
HETATM   29  C   UNL     1       9.198  30.863  60.226  1.00  0.00     0.124 C 
BRANCH  29  30
HETATM   30  C   UNL     1       8.652  32.041  61.029  1.00  0.00     0.047 C 
BRANCH  30  31
HETATM   31  C   UNL     1       8.308  31.787  62.497  1.00  0.00     0.236 C 
BRANCH  31  32
HETATM   32  N   UNL     1       7.113  32.554  62.992  1.00  0.00    -0.067 N 
HETATM   33  H   UNL     1       7.107  33.452  62.460  1.00  0.00     0.280 HD
HETATM   34  C   UNL     1       5.772  31.870  62.815  1.00  0.00     0.261 C 
HETATM   35  C   UNL     1       4.654  32.785  63.329  1.00  0.00     0.195 C 
HETATM   36  O   UNL     1       4.864  33.132  64.702  1.00  0.00    -0.388 OA
HETATM   37  C   UNL     1       6.095  33.844  64.876  1.00  0.00     0.195 C 
HETATM   38  C   UNL     1       7.289  32.985  64.445  1.00  0.00     0.261 C 
ENDBRANCH  31  32
ENDBRANCH  30  31
ENDBRANCH  29  30
ENDBRANCH  26  29
ENDBRANCH  24  25
ENDBRANCH   1  24
TORSDOF 11
ENDMDL
MODEL 9
REMARK VINA RESULT:      -8.4      3.604      8.041
REMARK  11 active torsions:
REMARK  status: ('A' for Active; 'I' for Inactive)
REMARK    1  A    between atoms: O_2  and  C_3 
REMARK    2  A    between atoms: C_6  and  C_7 
REMARK    3  A    between atoms: C_7  and  S_8 
REMARK    4  A    between atoms: C_7  and  C_22 
REMARK    5  A    between atoms: S_8  and  C_9 
REMARK    6  A    between atoms: C_12  and  C_13 
REMARK    7  A    between atoms: C_22  and  C_23 
REMARK       I    between atoms: C_23  and  N_24 
REMARK    8  A    between atoms: N_24  and  C_25 
REMARK    9  A    between atoms: C_25  and  C_26 
REMARK   10  A    between atoms: C_26  and  C_27 
REMARK   11  A    between atoms: C_27  and  N_28 
ROOT
HETATM    1  C   UNL     1       6.965  30.682  58.858  1.00  0.00     0.097 C 
ENDROOT
BRANCH   1   2
HETATM    2  C   UNL     1       7.279  31.244  60.239  1.00  0.00    -0.043 A 
HETATM    3  C   UNL     1       8.467  30.929  60.919  1.00  0.00     0.011 A 
HETATM    4  C   UNL     1       8.760  31.521  62.150  1.00  0.00     0.037 A 
HETATM    5  C   UNL     1       7.893  32.460  62.701  1.00  0.00     0.068 A 
HETATM    6  C   UNL     1       6.696  32.762  62.057  1.00  0.00     0.037 A 
HETATM    7  C   UNL     1       6.391  32.158  60.834  1.00  0.00     0.011 A 
BRANCH   5   8
HETATM    8  O   UNL     1       8.269  33.007  63.896  1.00  0.00    -0.356 OA
HETATM    9  C   UNL     1       7.170  33.490  64.667  1.00  0.00     0.210 C 
ENDBRANCH   5   8
ENDBRANCH   1   2
BRANCH   1  10
HETATM   10  S   UNL     1       8.371  29.687  58.196  1.00  0.00    -0.080 SA
BRANCH  10  11
HETATM   11  C   UNL     1       7.617  28.345  57.440  1.00  0.00     0.190 A 
HETATM   12  N   UNL     1       6.341  28.059  57.417  1.00  0.00    -0.122 NA
HETATM   13  N   UNL     1       6.198  26.880  56.735  1.00  0.00    -0.129 NA
HETATM   14  C   UNL     1       7.399  26.437  56.393  1.00  0.00     0.162 A 
HETATM   15  N   UNL     1       8.326  27.353  56.835  1.00  0.00    -0.317 N 
HETATM   16  H   UNL     1       9.327  27.317  56.721  1.00  0.00     0.169 HD
BRANCH  14  17
HETATM   17  C   UNL     1       7.693  25.202  55.666  1.00  0.00     0.012 A 
HETATM   18  C   UNL     1       8.139  24.076  56.378  1.00  0.00     0.017 A 
HETATM   19  C   UNL     1       8.443  22.879  55.724  1.00  0.00     0.025 A 
HETATM   20  C   UNL     1       8.310  22.796  54.342  1.00  0.00     0.034 A 
HETATM   21 CL   UNL     1       8.693  21.331  53.530  1.00  0.00    -0.084 Cl
HETATM   22  C   UNL     1       7.873  23.901  53.613  1.00  0.00     0.025 A 
HETATM   23  C   UNL     1       7.564  25.098  54.271  1.00  0.00     0.017 A 
ENDBRANCH  14  17
ENDBRANCH  10  11
ENDBRANCH   1  10
BRANCH   1  24
HETATM   24  C   UNL     1       6.377  31.782  57.967  1.00  0.00     0.123 C 
BRANCH  24  25
HETATM   25  C   UNL     1       5.092  31.367  57.289  1.00  0.00     0.219 C 
HETATM   26  N   UNL     1       5.261  30.683  56.111  1.00  0.00    -0.361 N 
HETATM   27  H   UNL     1       6.179  30.269  55.932  1.00  0.00     0.162 HD
HETATM   28  O   UNL     1       3.975  31.629  57.736  1.00  0.00    -0.274 OA
BRANCH  26  29
HETATM   29  C   UNL     1       4.180  30.333  55.222  1.00  0.00     0.124 C 
BRANCH  29  30
HETATM   30  C   UNL     1       4.611  29.537  53.993  1.00  0.00     0.047 C 
BRANCH  30  31
HETATM   31  C   UNL     1       3.997  28.149  53.808  1.00  0.00     0.236 C 
BRANCH  31  32
HETATM   32  N   UNL     1       4.007  27.656  52.387  1.00  0.00    -0.067 N 
HETATM   33  H   UNL     1       3.213  26.982  52.311  1.00  0.00     0.280 HD
HETATM   34  C   UNL     1       3.851  28.722  51.319  1.00  0.00     0.261 C 
HETATM   35  C   UNL     1       3.842  28.066  49.933  1.00  0.00     0.195 C 
HETATM   36  O   UNL     1       5.037  27.307  49.717  1.00  0.00    -0.388 OA
HETATM   37  C   UNL     1       5.163  26.250  50.674  1.00  0.00     0.195 C 
HETATM   38  C   UNL     1       5.242  26.808  52.099  1.00  0.00     0.261 C 
ENDBRANCH  31  32
ENDBRANCH  30  31
ENDBRANCH  29  30
ENDBRANCH  26  29
ENDBRANCH  24  25
ENDBRANCH   1  24
TORSDOF 11
ENDMDL
MODEL 10
REMARK VINA RESULT:      -8.4      3.620      8.405
REMARK  11 active torsions:
REMARK  status: ('A' for Active; 'I' for Inactive)
REMARK    1  A    between atoms: O_2  and  C_3 
REMARK    2  A    between atoms: C_6  and  C_7 
REMARK    3  A    between atoms: C_7  and  S_8 
REMARK    4  A    between atoms: C_7  and  C_22 
REMARK    5  A    between atoms: S_8  and  C_9 
REMARK    6  A    between atoms: C_12  and  C_13 
REMARK    7  A    between atoms: C_22  and  C_23 
REMARK       I    between atoms: C_23  and  N_24 
REMARK    8  A    between atoms: N_24  and  C_25 
REMARK    9  A    between atoms: C_25  and  C_26 
REMARK   10  A    between atoms: C_26  and  C_27 
REMARK   11  A    between atoms: C_27  and  N_28 
ROOT
HETATM    1  C   UNL     1       4.321  29.495  52.092  1.00  0.00     0.097 C 
ENDROOT
BRANCH   1   2
HETATM    2  C   UNL     1       3.739  29.092  50.743  1.00  0.00    -0.043 A 
HETATM    3  C   UNL     1       2.356  29.103  50.495  1.00  0.00     0.011 A 
HETATM    4  C   UNL     1       1.860  28.802  49.225  1.00  0.00     0.037 A 
HETATM    5  C   UNL     1       2.733  28.523  48.177  1.00  0.00     0.068 A 
HETATM    6  C   UNL     1       4.105  28.477  48.411  1.00  0.00     0.037 A 
HETATM    7  C   UNL     1       4.604  28.761  49.685  1.00  0.00     0.011 A 
BRANCH   5   8
HETATM    8  O   UNL     1       2.162  28.264  46.963  1.00  0.00    -0.356 OA
HETATM    9  C   UNL     1       1.460  27.022  46.923  1.00  0.00     0.210 C 
ENDBRANCH   5   8
ENDBRANCH   1   2
BRANCH   1  10
HETATM   10  S   UNL     1       3.911  28.264  53.404  1.00  0.00    -0.080 SA
BRANCH  10  11
HETATM   11  C   UNL     1       5.351  27.353  53.591  1.00  0.00     0.190 A 
HETATM   12  N   UNL     1       6.580  27.800  53.589  1.00  0.00    -0.122 NA
HETATM   13  N   UNL     1       7.409  26.718  53.731  1.00  0.00    -0.129 NA
HETATM   14  C   UNL     1       6.672  25.618  53.767  1.00  0.00     0.162 A 
HETATM   15  N   UNL     1       5.351  25.995  53.674  1.00  0.00    -0.317 N 
HETATM   16  H   UNL     1       4.540  25.395  53.687  1.00  0.00     0.169 HD
BRANCH  14  17
HETATM   17  C   UNL     1       7.166  24.247  53.893  1.00  0.00     0.012 A 
HETATM   18  C   UNL     1       7.661  23.589  52.754  1.00  0.00     0.017 A 
HETATM   19  C   UNL     1       8.132  22.275  52.824  1.00  0.00     0.025 A 
HETATM   20  C   UNL     1       8.108  21.599  54.039  1.00  0.00     0.034 A 
HETATM   21 CL   UNL     1       8.676  19.980  54.131  1.00  0.00    -0.084 Cl
HETATM   22  C   UNL     1       7.619  22.230  55.182  1.00  0.00     0.025 A 
HETATM   23  C   UNL     1       7.152  23.548  55.110  1.00  0.00     0.017 A 
ENDBRANCH  14  17
ENDBRANCH  10  11
ENDBRANCH   1  10
BRANCH   1  24
HETATM   24  C   UNL     1       4.022  30.973  52.370  1.00  0.00     0.123 C 
BRANCH  24  25
HETATM   25  C   UNL     1       3.837  31.269  53.840  1.00  0.00     0.219 C 
HETATM   26  N   UNL     1       5.003  31.459  54.537  1.00  0.00    -0.361 N 
HETATM   27  H   UNL     1       5.848  31.667  53.998  1.00  0.00     0.162 HD
HETATM   28  O   UNL     1       2.735  31.321  54.387  1.00  0.00    -0.274 OA
BRANCH  26  29
HETATM   29  C   UNL     1       5.071  31.595  55.972  1.00  0.00     0.124 C 
BRANCH  29  30
HETATM   30  C   UNL     1       5.479  30.319  56.704  1.00  0.00     0.047 C 
BRANCH  30  31
HETATM   31  C   UNL     1       6.909  29.820  56.494  1.00  0.00     0.236 C 
BRANCH  31  32
HETATM   32  N   UNL     1       7.058  28.325  56.576  1.00  0.00    -0.067 N 
HETATM   33  H   UNL     1       7.038  27.980  55.591  1.00  0.00     0.280 HD
HETATM   34  C   UNL     1       8.323  27.825  57.246  1.00  0.00     0.261 C 
HETATM   35  C   UNL     1       8.349  26.292  57.220  1.00  0.00     0.195 C 
HETATM   36  O   UNL     1       7.191  25.748  57.862  1.00  0.00    -0.388 OA
HETATM   37  C   UNL     1       5.989  26.152  57.197  1.00  0.00     0.195 C 
HETATM   38  C   UNL     1       5.836  27.677  57.221  1.00  0.00     0.261 C 
ENDBRANCH  31  32
ENDBRANCH  30  31
ENDBRANCH  29  30
ENDBRANCH  26  29
ENDBRANCH  24  25
ENDBRANCH   1  24
TORSDOF 11
ENDMDL
