MODEL 1
REMARK VINA RESULT:      -8.4      0.000      0.000
REMARK  9 active torsions:
REMARK  status: ('A' for Active; 'I' for Inactive)
REMARK    1  A    between atoms: C_2  and  C_3 
REMARK    2  A    between atoms: C_7  and  C_8 
REMARK    3  A    between atoms: C_8  and  C_9 
REMARK       I    between atoms: C_9  and  N_10 
REMARK    4  A    between atoms: N_10  and  C_11 
REMARK    5  A    between atoms: C_11  and  C_12 
REMARK    6  A    between atoms: C_12  and  N_13 
REMARK    7  A    between atoms: C_21  and  C_22 
REMARK    8  A    between atoms: C_32  and  C_33 
REMARK    9  A    between atoms: C_33  and  O_34 
ROOT
HETATM    1  C   UNL     1       6.484  29.756  57.484  1.00  0.00     0.051 C 
HETATM    2  N   UNL     1       5.176  30.212  57.298  1.00  0.00    -0.228 NA
HETATM    3  C   UNL     1       4.607  29.876  56.188  1.00  0.00     0.170 C 
HETATM    4  N   UNL     1       5.224  28.836  55.208  1.00  0.00    -0.318 N 
HETATM    5  C   UNL     1       4.973  29.180  53.986  1.00  0.00     0.011 C 
HETATM    6  C   UNL     1       6.001  27.867  56.007  1.00  0.00     0.166 C 
HETATM    7  S   UNL     1       3.233  30.646  55.491  1.00  0.00    -0.086 SA
HETATM    8  C   UNL     1       3.861  30.210  53.830  1.00  0.00     0.135 C 
HETATM    9  C   UNL     1       6.955  28.659  56.837  1.00  0.00     0.069 C 
ENDROOT
BRANCH   5  10
HETATM   10  C   UNL     1       5.762  28.643  52.827  1.00  0.00     0.156 C 
BRANCH  10  11
HETATM   11  C   UNL     1       5.035  28.804  51.505  1.00  0.00     0.223 C 
HETATM   12  N   UNL     1       5.504  29.779  50.662  1.00  0.00    -0.359 N 
HETATM   13  H   UNL     1       6.329  30.318  50.919  1.00  0.00     0.162 HD
HETATM   14  O   UNL     1       4.041  28.137  51.229  1.00  0.00    -0.273 OA
BRANCH  12  15
HETATM   15  C   UNL     1       4.772  30.252  49.480  1.00  0.00     0.150 C 
BRANCH  15  16
HETATM   16  C   UNL     1       4.954  29.414  48.192  1.00  0.00     0.254 C 
BRANCH  16  17
HETATM   17  N   UNL     1       3.983  28.250  48.118  1.00  0.00    -0.070 N 
HETATM   18  H   UNL     1       3.534  28.176  49.052  1.00  0.00     0.279 HD
HETATM   19  C   UNL     1       2.858  28.467  47.131  1.00  0.00     0.235 C 
HETATM   20  C   UNL     1       1.844  27.339  47.268  1.00  0.00     0.028 C 
HETATM   21  C   UNL     1       2.492  25.973  47.080  1.00  0.00     0.003 C 
HETATM   22  C   UNL     1       3.691  25.795  48.006  1.00  0.00     0.028 C 
HETATM   23  C   UNL     1       4.687  26.937  47.868  1.00  0.00     0.235 C 
ENDBRANCH  16  17
ENDBRANCH  15  16
ENDBRANCH  12  15
ENDBRANCH  10  11
ENDBRANCH   5  10
BRANCH   6  24
HETATM   24  C   UNL     1       6.292  26.537  55.319  1.00  0.00    -0.024 A 
HETATM   25  C   UNL     1       5.788  25.323  55.877  1.00  0.00    -0.053 A 
HETATM   26  C   UNL     1       5.006  25.257  57.169  1.00  0.00     0.049 C 
HETATM   27  C   UNL     1       6.064  24.095  55.251  1.00  0.00     0.008 A 
HETATM   28  C   UNL     1       6.815  24.038  54.083  1.00  0.00     0.007 A 
HETATM   29  C   UNL     1       7.316  25.207  53.518  1.00  0.00    -0.061 A 
HETATM   30  C   UNL     1       8.117  25.138  52.249  1.00  0.00     0.048 C 
HETATM   31  C   UNL     1       7.036  26.441  54.126  1.00  0.00     0.017 A 
ENDBRANCH   6  24
BRANCH   9  32
HETATM   32  C   UNL     1       8.392  28.468  56.698  1.00  0.00     0.293 C 
HETATM   33  O   UNL     1       8.977  27.686  57.433  1.00  0.00    -0.259 OA
BRANCH  32  34
HETATM   34  O   UNL     1       8.893  29.291  55.766  1.00  0.00    -0.323 OA
HETATM   35  C   UNL     1      10.229  29.755  56.001  1.00  0.00     0.213 C 
ENDBRANCH  32  34
ENDBRANCH   9  32
BRANCH   1  36
HETATM   36  C   UNL     1       7.331  30.664  58.359  1.00  0.00     0.056 C 
HETATM   37  C   UNL     1       6.527  31.832  58.913  1.00  0.00     0.011 C 
ENDBRANCH   1  36
TORSDOF 9
ENDMDL
MODEL 2
REMARK VINA RESULT:      -8.0      3.884      9.257
REMARK  9 active torsions:
REMARK  status: ('A' for Active; 'I' for Inactive)
REMARK    1  A    between atoms: C_2  and  C_3 
REMARK    2  A    between atoms: C_7  and  C_8 
REMARK    3  A    between atoms: C_8  and  C_9 
REMARK       I    between atoms: C_9  and  N_10 
REMARK    4  A    between atoms: N_10  and  C_11 
REMARK    5  A    between atoms: C_11  and  C_12 
REMARK    6  A    between atoms: C_12  and  N_13 
REMARK    7  A    between atoms: C_21  and  C_22 
REMARK    8  A    between atoms: C_32  and  C_33 
REMARK    9  A    between atoms: C_33  and  O_34 
ROOT
HETATM    1  C   UNL     1       6.108  26.344  54.822  1.00  0.00     0.051 C 
HETATM    2  N   UNL     1       5.347  27.183  54.002  1.00  0.00    -0.228 NA
HETATM    3  C   UNL     1       5.103  28.364  54.464  1.00  0.00     0.170 C 
HETATM    4  N   UNL     1       5.793  28.927  55.740  1.00  0.00    -0.318 N 
HETATM    5  C   UNL     1       4.962  29.668  56.399  1.00  0.00     0.011 C 
HETATM    6  C   UNL     1       7.136  28.320  55.833  1.00  0.00     0.166 C 
HETATM    7  S   UNL     1       3.850  29.413  53.921  1.00  0.00    -0.086 SA
HETATM    8  C   UNL     1       3.739  30.114  55.607  1.00  0.00     0.135 C 
HETATM    9  C   UNL     1       6.946  26.841  55.767  1.00  0.00     0.069 C 
ENDROOT
BRANCH   5  10
HETATM   10  C   UNL     1       5.170  30.007  57.847  1.00  0.00     0.156 C 
BRANCH  10  11
HETATM   11  C   UNL     1       5.366  31.494  58.073  1.00  0.00     0.223 C 
HETATM   12  N   UNL     1       5.431  31.913  59.377  1.00  0.00    -0.359 N 
HETATM   13  H   UNL     1       5.394  31.231  60.132  1.00  0.00     0.162 HD
HETATM   14  O   UNL     1       5.405  32.290  57.139  1.00  0.00    -0.273 OA
BRANCH  12  15
HETATM   15  C   UNL     1       5.347  33.323  59.784  1.00  0.00     0.150 C 
BRANCH  15  16
HETATM   16  C   UNL     1       4.655  33.594  61.141  1.00  0.00     0.254 C 
BRANCH  16  17
HETATM   17  N   UNL     1       5.526  33.208  62.322  1.00  0.00    -0.070 N 
HETATM   18  H   UNL     1       5.350  32.201  62.505  1.00  0.00     0.279 HD
HETATM   19  C   UNL     1       7.008  33.326  62.041  1.00  0.00     0.235 C 
HETATM   20  C   UNL     1       7.790  32.741  63.209  1.00  0.00     0.028 C 
HETATM   21  C   UNL     1       7.418  33.409  64.528  1.00  0.00     0.003 C 
HETATM   22  C   UNL     1       5.911  33.378  64.760  1.00  0.00     0.028 C 
HETATM   23  C   UNL     1       5.144  33.953  63.579  1.00  0.00     0.235 C 
ENDBRANCH  16  17
ENDBRANCH  15  16
ENDBRANCH  12  15
ENDBRANCH  10  11
ENDBRANCH   5  10
BRANCH   6  24
HETATM   24  C   UNL     1       8.130  29.063  56.720  1.00  0.00    -0.024 A 
HETATM   25  C   UNL     1       9.373  29.507  56.177  1.00  0.00    -0.053 A 
HETATM   26  C   UNL     1       9.809  29.238  54.754  1.00  0.00     0.049 C 
HETATM   27  C   UNL     1      10.296  30.183  56.994  1.00  0.00     0.008 A 
HETATM   28  C   UNL     1      10.015  30.441  58.330  1.00  0.00     0.007 A 
HETATM   29  C   UNL     1       8.809  30.021  58.884  1.00  0.00    -0.061 A 
HETATM   30  C   UNL     1       8.508  30.314  60.327  1.00  0.00     0.048 C 
HETATM   31  C   UNL     1       7.874  29.357  58.075  1.00  0.00     0.017 A 
ENDBRANCH   6  24
BRANCH   9  32
HETATM   32  C   UNL     1       7.371  25.991  56.870  1.00  0.00     0.293 C 
HETATM   33  O   UNL     1       6.658  25.867  57.855  1.00  0.00    -0.259 OA
BRANCH  32  34
HETATM   34  O   UNL     1       8.597  25.497  56.645  1.00  0.00    -0.323 OA
HETATM   35  C   UNL     1       8.812  24.147  57.076  1.00  0.00     0.213 C 
ENDBRANCH  32  34
ENDBRANCH   9  32
BRANCH   1  36
HETATM   36  C   UNL     1       5.808  24.867  54.635  1.00  0.00     0.056 C 
HETATM   37  C   UNL     1       6.767  24.211  53.651  1.00  0.00     0.011 C 
ENDBRANCH   1  36
TORSDOF 9
ENDMDL
MODEL 3
REMARK VINA RESULT:      -7.6      2.318      8.094
REMARK  9 active torsions:
REMARK  status: ('A' for Active; 'I' for Inactive)
REMARK    1  A    between atoms: C_2  and  C_3 
REMARK    2  A    between atoms: C_7  and  C_8 
REMARK    3  A    between atoms: C_8  and  C_9 
REMARK       I    between atoms: C_9  and  N_10 
REMARK    4  A    between atoms: N_10  and  C_11 
REMARK    5  A    between atoms: C_11  and  C_12 
REMARK    6  A    between atoms: C_12  and  N_13 
REMARK    7  A    between atoms: C_21  and  C_22 
REMARK    8  A    between atoms: C_32  and  C_33 
REMARK    9  A    between atoms: C_33  and  O_34 
ROOT
HETATM    1  C   UNL     1       5.473  27.248  50.798  1.00  0.00     0.051 C 
HETATM    2  N   UNL     1       5.547  28.618  50.529  1.00  0.00    -0.228 NA
HETATM    3  C   UNL     1       5.311  29.409  51.522  1.00  0.00     0.170 C 
HETATM    4  N   UNL     1       5.181  28.902  52.988  1.00  0.00    -0.318 N 
HETATM    5  C   UNL     1       4.286  29.595  53.615  1.00  0.00     0.011 C 
HETATM    6  C   UNL     1       6.041  27.711  53.132  1.00  0.00     0.166 C 
HETATM    7  S   UNL     1       4.879  31.071  51.399  1.00  0.00    -0.086 SA
HETATM    8  C   UNL     1       3.910  30.909  52.942  1.00  0.00     0.135 C 
HETATM    9  C   UNL     1       5.644  26.759  52.053  1.00  0.00     0.069 C 
ENDROOT
BRANCH   5  10
HETATM   10  C   UNL     1       3.635  29.104  54.876  1.00  0.00     0.156 C 
BRANCH  10  11
HETATM   11  C   UNL     1       3.983  29.959  56.080  1.00  0.00     0.223 C 
HETATM   12  N   UNL     1       5.262  30.449  56.136  1.00  0.00    -0.359 N 
HETATM   13  H   UNL     1       5.908  30.270  55.369  1.00  0.00     0.162 HD
HETATM   14  O   UNL     1       3.178  30.155  56.987  1.00  0.00    -0.273 OA
BRANCH  12  15
HETATM   15  C   UNL     1       5.848  31.059  57.337  1.00  0.00     0.150 C 
BRANCH  15  16
HETATM   16  C   UNL     1       6.944  30.231  58.049  1.00  0.00     0.254 C 
BRANCH  16  17
HETATM   17  N   UNL     1       7.247  30.749  59.443  1.00  0.00    -0.070 N 
HETATM   18  H   UNL     1       6.633  30.224  60.096  1.00  0.00     0.279 HD
HETATM   19  C   UNL     1       8.664  30.474  59.893  1.00  0.00     0.235 C 
HETATM   20  C   UNL     1       8.811  30.858  61.359  1.00  0.00     0.028 C 
HETATM   21  C   UNL     1       8.422  32.311  61.603  1.00  0.00     0.003 C 
HETATM   22  C   UNL     1       7.031  32.612  61.056  1.00  0.00     0.028 C 
HETATM   23  C   UNL     1       6.896  32.210  59.596  1.00  0.00     0.235 C 
ENDBRANCH  16  17
ENDBRANCH  15  16
ENDBRANCH  12  15
ENDBRANCH  10  11
ENDBRANCH   5  10
BRANCH   6  24
HETATM   24  C   UNL     1       6.416  27.345  54.565  1.00  0.00    -0.024 A 
HETATM   25  C   UNL     1       7.657  27.792  55.111  1.00  0.00    -0.053 A 
HETATM   26  C   UNL     1       8.679  28.583  54.327  1.00  0.00     0.049 C 
HETATM   27  C   UNL     1       8.010  27.447  56.427  1.00  0.00     0.008 A 
HETATM   28  C   UNL     1       7.163  26.683  57.220  1.00  0.00     0.007 A 
HETATM   29  C   UNL     1       5.946  26.236  56.712  1.00  0.00    -0.061 A 
HETATM   30  C   UNL     1       5.030  25.419  57.580  1.00  0.00     0.048 C 
HETATM   31  C   UNL     1       5.576  26.585  55.404  1.00  0.00     0.017 A 
ENDBRANCH   6  24
BRANCH   9  32
HETATM   32  C   UNL     1       5.137  25.435  52.384  1.00  0.00     0.293 C 
HETATM   33  O   UNL     1       4.021  25.312  52.866  1.00  0.00    -0.259 OA
BRANCH  32  34
HETATM   34  O   UNL     1       6.070  24.498  52.156  1.00  0.00    -0.323 OA
HETATM   35  C   UNL     1       6.676  23.929  53.323  1.00  0.00     0.213 C 
ENDBRANCH  32  34
ENDBRANCH   9  32
BRANCH   1  36
HETATM   36  C   UNL     1       5.065  26.409  49.600  1.00  0.00     0.056 C 
HETATM   37  C   UNL     1       3.912  27.038  48.830  1.00  0.00     0.011 C 
ENDBRANCH   1  36
TORSDOF 9
ENDMDL
MODEL 4
REMARK VINA RESULT:      -7.5      4.172      7.214
REMARK  9 active torsions:
REMARK  status: ('A' for Active; 'I' for Inactive)
REMARK    1  A    between atoms: C_2  and  C_3 
REMARK    2  A    between atoms: C_7  and  C_8 
REMARK    3  A    between atoms: C_8  and  C_9 
REMARK       I    between atoms: C_9  and  N_10 
REMARK    4  A    between atoms: N_10  and  C_11 
REMARK    5  A    between atoms: C_11  and  C_12 
REMARK    6  A    between atoms: C_12  and  N_13 
REMARK    7  A    between atoms: C_21  and  C_22 
REMARK    8  A    between atoms: C_32  and  C_33 
REMARK    9  A    between atoms: C_33  and  O_34 
ROOT
HETATM    1  C   UNL     1       5.777  32.626  60.244  1.00  0.00     0.051 C 
HETATM    2  N   UNL     1       7.148  32.355  60.198  1.00  0.00    -0.228 NA
HETATM    3  C   UNL     1       7.542  31.564  59.256  1.00  0.00     0.170 C 
HETATM    4  N   UNL     1       6.612  31.113  58.092  1.00  0.00    -0.318 N 
HETATM    5  C   UNL     1       6.880  29.891  57.763  1.00  0.00     0.011 C 
HETATM    6  C   UNL     1       5.646  32.200  57.839  1.00  0.00     0.166 C 
HETATM    7  S   UNL     1       9.033  30.702  59.228  1.00  0.00    -0.086 SA
HETATM    8  C   UNL     1       8.220  29.373  58.270  1.00  0.00     0.135 C 
HETATM    9  C   UNL     1       4.991  32.508  59.143  1.00  0.00     0.069 C 
ENDROOT
BRANCH   5  10
HETATM   10  C   UNL     1       5.912  29.042  56.990  1.00  0.00     0.156 C 
BRANCH  10  11
HETATM   11  C   UNL     1       6.606  27.971  56.170  1.00  0.00     0.223 C 
HETATM   12  N   UNL     1       6.714  26.731  56.745  1.00  0.00    -0.359 N 
HETATM   13  H   UNL     1       6.297  26.557  57.658  1.00  0.00     0.162 HD
HETATM   14  O   UNL     1       7.099  28.216  55.072  1.00  0.00    -0.273 OA
BRANCH  12  15
HETATM   15  C   UNL     1       7.577  25.663  56.221  1.00  0.00     0.150 C 
BRANCH  15  16
HETATM   16  C   UNL     1       7.117  24.217  56.518  1.00  0.00     0.254 C 
BRANCH  16  17
HETATM   17  N   UNL     1       7.242  23.310  55.308  1.00  0.00    -0.070 N 
HETATM   18  H   UNL     1       6.275  23.106  54.987  1.00  0.00     0.279 HD
HETATM   19  C   UNL     1       7.939  23.963  54.136  1.00  0.00     0.235 C 
HETATM   20  C   UNL     1       7.846  23.050  52.921  1.00  0.00     0.028 C 
HETATM   21  C   UNL     1       8.420  21.667  53.210  1.00  0.00     0.003 C 
HETATM   22  C   UNL     1       7.786  21.052  54.453  1.00  0.00     0.028 C 
HETATM   23  C   UNL     1       7.875  21.983  55.653  1.00  0.00     0.235 C 
ENDBRANCH  16  17
ENDBRANCH  15  16
ENDBRANCH  12  15
ENDBRANCH  10  11
ENDBRANCH   5  10
BRANCH   6  24
HETATM   24  C   UNL     1       4.966  32.166  56.473  1.00  0.00    -0.024 A 
HETATM   25  C   UNL     1       4.694  33.387  55.785  1.00  0.00    -0.053 A 
HETATM   26  C   UNL     1       4.995  34.755  56.354  1.00  0.00     0.049 C 
HETATM   27  C   UNL     1       4.057  33.359  54.531  1.00  0.00     0.008 A 
HETATM   28  C   UNL     1       3.695  32.157  53.937  1.00  0.00     0.007 A 
HETATM   29  C   UNL     1       3.952  30.953  54.587  1.00  0.00    -0.061 A 
HETATM   30  C   UNL     1       3.567  29.655  53.933  1.00  0.00     0.048 C 
HETATM   31  C   UNL     1       4.598  30.966  55.833  1.00  0.00     0.017 A 
ENDBRANCH   6  24
BRANCH   9  32
HETATM   32  C   UNL     1       3.551  32.360  59.301  1.00  0.00     0.293 C 
HETATM   33  O   UNL     1       3.074  31.262  59.548  1.00  0.00    -0.259 OA
BRANCH  32  34
HETATM   34  O   UNL     1       2.925  33.522  59.066  1.00  0.00    -0.323 OA
HETATM   35  C   UNL     1       2.360  34.167  60.215  1.00  0.00     0.213 C 
ENDBRANCH  32  34
ENDBRANCH   9  32
BRANCH   1  36
HETATM   36  C   UNL     1       5.259  32.928  61.639  1.00  0.00     0.056 C 
HETATM   37  C   UNL     1       5.619  34.338  62.087  1.00  0.00     0.011 C 
ENDBRANCH   1  36
TORSDOF 9
ENDMDL
MODEL 5
REMARK VINA RESULT:      -7.3      2.389      8.313
REMARK  9 active torsions:
REMARK  status: ('A' for Active; 'I' for Inactive)
REMARK    1  A    between atoms: C_2  and  C_3 
REMARK    2  A    between atoms: C_7  and  C_8 
REMARK    3  A    between atoms: C_8  and  C_9 
REMARK       I    between atoms: C_9  and  N_10 
REMARK    4  A    between atoms: N_10  and  C_11 
REMARK    5  A    between atoms: C_11  and  C_12 
REMARK    6  A    between atoms: C_12  and  N_13 
REMARK    7  A    between atoms: C_21  and  C_22 
REMARK    8  A    between atoms: C_32  and  C_33 
REMARK    9  A    between atoms: C_33  and  O_34 
ROOT
HETATM    1  C   UNL     1       5.408  27.208  51.691  1.00  0.00     0.051 C 
HETATM    2  N   UNL     1       4.951  28.480  51.336  1.00  0.00    -0.228 NA
HETATM    3  C   UNL     1       4.737  29.302  52.309  1.00  0.00     0.170 C 
HETATM    4  N   UNL     1       5.174  29.004  53.773  1.00  0.00    -0.318 N 
HETATM    5  C   UNL     1       4.299  29.480  54.599  1.00  0.00     0.011 C 
HETATM    6  C   UNL     1       6.385  28.161  53.721  1.00  0.00     0.166 C 
HETATM    7  S   UNL     1       3.764  30.720  52.229  1.00  0.00    -0.086 SA
HETATM    8  C   UNL     1       3.347  30.506  53.997  1.00  0.00     0.135 C 
HETATM    9  C   UNL     1       6.056  26.985  52.863  1.00  0.00     0.069 C 
ENDROOT
BRANCH   5  10
HETATM   10  C   UNL     1       4.205  29.009  56.022  1.00  0.00     0.156 C 
BRANCH  10  11
HETATM   11  C   UNL     1       4.474  30.120  57.020  1.00  0.00     0.223 C 
HETATM   12  N   UNL     1       5.739  30.648  57.023  1.00  0.00    -0.359 N 
HETATM   13  H   UNL     1       6.427  30.324  56.346  1.00  0.00     0.162 HD
HETATM   14  O   UNL     1       3.621  30.486  57.825  1.00  0.00    -0.273 OA
BRANCH  12  15
HETATM   15  C   UNL     1       6.251  31.526  58.084  1.00  0.00     0.150 C 
BRANCH  15  16
HETATM   16  C   UNL     1       7.397  30.945  58.947  1.00  0.00     0.254 C 
BRANCH  16  17
HETATM   17  N   UNL     1       7.255  31.304  60.415  1.00  0.00    -0.070 N 
HETATM   18  H   UNL     1       6.754  30.516  60.868  1.00  0.00     0.279 HD
HETATM   19  C   UNL     1       8.579  31.424  61.135  1.00  0.00     0.235 C 
HETATM   20  C   UNL     1       8.327  31.598  62.627  1.00  0.00     0.028 C 
HETATM   21  C   UNL     1       7.428  32.795  62.911  1.00  0.00     0.003 C 
HETATM   22  C   UNL     1       6.136  32.723  62.105  1.00  0.00     0.028 C 
HETATM   23  C   UNL     1       6.405  32.536  60.620  1.00  0.00     0.235 C 
ENDBRANCH  16  17
ENDBRANCH  15  16
ENDBRANCH  12  15
ENDBRANCH  10  11
ENDBRANCH   5  10
BRANCH   6  24
HETATM   24  C   UNL     1       7.224  28.141  54.995  1.00  0.00    -0.024 A 
HETATM   25  C   UNL     1       6.822  27.329  56.098  1.00  0.00    -0.053 A 
HETATM   26  C   UNL     1       5.557  26.502  56.111  1.00  0.00     0.049 C 
HETATM   27  C   UNL     1       7.588  27.317  57.277  1.00  0.00     0.008 A 
HETATM   28  C   UNL     1       8.745  28.078  57.388  1.00  0.00     0.007 A 
HETATM   29  C   UNL     1       9.160  28.876  56.326  1.00  0.00    -0.061 A 
HETATM   30  C   UNL     1      10.419  29.687  56.449  1.00  0.00     0.048 C 
HETATM   31  C   UNL     1       8.411  28.887  55.138  1.00  0.00     0.017 A 
ENDBRANCH   6  24
BRANCH   9  32
HETATM   32  C   UNL     1       6.122  25.634  53.402  1.00  0.00     0.293 C 
HETATM   33  O   UNL     1       5.095  25.058  53.732  1.00  0.00    -0.259 OA
BRANCH  32  34
HETATM   34  O   UNL     1       7.395  25.233  53.526  1.00  0.00    -0.323 OA
HETATM   35  C   UNL     1       7.976  24.644  52.355  1.00  0.00     0.213 C 
ENDBRANCH  32  34
ENDBRANCH   9  32
BRANCH   1  36
HETATM   36  C   UNL     1       4.999  26.116  50.716  1.00  0.00     0.056 C 
HETATM   37  C   UNL     1       4.614  26.682  49.356  1.00  0.00     0.011 C 
ENDBRANCH   1  36
TORSDOF 9
ENDMDL
MODEL 6
REMARK VINA RESULT:      -7.0      4.001      8.697
REMARK  9 active torsions:
REMARK  status: ('A' for Active; 'I' for Inactive)
REMARK    1  A    between atoms: C_2  and  C_3 
REMARK    2  A    between atoms: C_7  and  C_8 
REMARK    3  A    between atoms: C_8  and  C_9 
REMARK       I    between atoms: C_9  and  N_10 
REMARK    4  A    between atoms: N_10  and  C_11 
REMARK    5  A    between atoms: C_11  and  C_12 
REMARK    6  A    between atoms: C_12  and  N_13 
REMARK    7  A    between atoms: C_21  and  C_22 
REMARK    8  A    between atoms: C_32  and  C_33 
REMARK    9  A    between atoms: C_33  and  O_34 
ROOT
HETATM    1  C   UNL     1       6.547  26.014  55.034  1.00  0.00     0.051 C 
HETATM    2  N   UNL     1       5.800  26.718  54.085  1.00  0.00    -0.228 NA
HETATM    3  C   UNL     1       5.451  27.918  54.409  1.00  0.00     0.170 C 
HETATM    4  N   UNL     1       6.010  28.645  55.667  1.00  0.00    -0.318 N 
HETATM    5  C   UNL     1       5.089  29.388  56.191  1.00  0.00     0.011 C 
HETATM    6  C   UNL     1       7.375  28.141  55.912  1.00  0.00     0.166 C 
HETATM    7  S   UNL     1       4.182  28.826  53.681  1.00  0.00    -0.086 SA
HETATM    8  C   UNL     1       3.904  29.674  55.277  1.00  0.00     0.135 C 
HETATM    9  C   UNL     1       7.280  26.653  55.981  1.00  0.00     0.069 C 
ENDROOT
BRANCH   5  10
HETATM   10  C   UNL     1       5.167  29.876  57.609  1.00  0.00     0.156 C 
BRANCH  10  11
HETATM   11  C   UNL     1       4.342  31.128  57.839  1.00  0.00     0.223 C 
HETATM   12  N   UNL     1       4.983  32.327  57.660  1.00  0.00    -0.359 N 
HETATM   13  H   UNL     1       5.950  32.342  57.343  1.00  0.00     0.162 HD
HETATM   14  O   UNL     1       3.176  31.072  58.223  1.00  0.00    -0.273 OA
BRANCH  12  15
HETATM   15  C   UNL     1       4.430  33.617  58.093  1.00  0.00     0.150 C 
BRANCH  15  16
HETATM   16  C   UNL     1       4.544  33.928  59.604  1.00  0.00     0.254 C 
BRANCH  16  17
HETATM   17  N   UNL     1       3.869  35.234  59.979  1.00  0.00    -0.070 N 
HETATM   18  H   UNL     1       2.866  35.016  60.138  1.00  0.00     0.279 HD
HETATM   19  C   UNL     1       4.377  35.824  61.275  1.00  0.00     0.235 C 
HETATM   20  C   UNL     1       3.514  37.019  61.657  1.00  0.00     0.028 C 
HETATM   21  C   UNL     1       3.475  38.064  60.548  1.00  0.00     0.003 C 
HETATM   22  C   UNL     1       3.060  37.445  59.218  1.00  0.00     0.028 C 
HETATM   23  C   UNL     1       3.921  36.245  58.858  1.00  0.00     0.235 C 
ENDBRANCH  16  17
ENDBRANCH  15  16
ENDBRANCH  12  15
ENDBRANCH  10  11
ENDBRANCH   5  10
BRANCH   6  24
HETATM   24  C   UNL     1       8.254  29.030  56.787  1.00  0.00    -0.024 A 
HETATM   25  C   UNL     1       9.456  29.586  56.253  1.00  0.00    -0.053 A 
HETATM   26  C   UNL     1       9.961  29.305  54.856  1.00  0.00     0.049 C 
HETATM   27  C   UNL     1      10.273  30.397  57.060  1.00  0.00     0.008 A 
HETATM   28  C   UNL     1       9.926  30.681  58.375  1.00  0.00     0.007 A 
HETATM   29  C   UNL     1       8.759  30.153  58.918  1.00  0.00    -0.061 A 
HETATM   30  C   UNL     1       8.384  30.475  60.338  1.00  0.00     0.048 C 
HETATM   31  C   UNL     1       7.927  29.353  58.119  1.00  0.00     0.017 A 
ENDBRANCH   6  24
BRANCH   9  32
HETATM   32  C   UNL     1       7.672  25.942  57.189  1.00  0.00     0.293 C 
HETATM   33  O   UNL     1       6.921  25.917  58.153  1.00  0.00    -0.259 OA
BRANCH  32  34
HETATM   34  O   UNL     1       8.914  25.450  57.069  1.00  0.00    -0.323 OA
HETATM   35  C   UNL     1       9.023  24.021  57.130  1.00  0.00     0.213 C 
ENDBRANCH  32  34
ENDBRANCH   9  32
BRANCH   1  36
HETATM   36  C   UNL     1       6.350  24.509  54.975  1.00  0.00     0.056 C 
HETATM   37  C   UNL     1       7.144  23.875  53.840  1.00  0.00     0.011 C 
ENDBRANCH   1  36
TORSDOF 9
ENDMDL
MODEL 7
REMARK VINA RESULT:      -7.0      3.816      6.754
REMARK  9 active torsions:
REMARK  status: ('A' for Active; 'I' for Inactive)
REMARK    1  A    between atoms: C_2  and  C_3 
REMARK    2  A    between atoms: C_7  and  C_8 
REMARK    3  A    between atoms: C_8  and  C_9 
REMARK       I    between atoms: C_9  and  N_10 
REMARK    4  A    between atoms: N_10  and  C_11 
REMARK    5  A    between atoms: C_11  and  C_12 
REMARK    6  A    between atoms: C_12  and  N_13 
REMARK    7  A    between atoms: C_21  and  C_22 
REMARK    8  A    between atoms: C_32  and  C_33 
REMARK    9  A    between atoms: C_33  and  O_34 
ROOT
HETATM    1  C   UNL     1       6.437  26.347  54.972  1.00  0.00     0.051 C 
HETATM    2  N   UNL     1       5.765  27.119  54.019  1.00  0.00    -0.228 NA
HETATM    3  C   UNL     1       5.460  28.323  54.372  1.00  0.00     0.170 C 
HETATM    4  N   UNL     1       5.999  28.979  55.676  1.00  0.00    -0.318 N 
HETATM    5  C   UNL     1       5.093  29.748  56.189  1.00  0.00     0.011 C 
HETATM    6  C   UNL     1       7.328  28.401  55.958  1.00  0.00     0.166 C 
HETATM    7  S   UNL     1       4.268  29.316  53.625  1.00  0.00    -0.086 SA
HETATM    8  C   UNL     1       3.963  30.122  55.238  1.00  0.00     0.135 C 
HETATM    9  C   UNL     1       7.159  26.918  55.970  1.00  0.00     0.069 C 
ENDROOT
BRANCH   5  10
HETATM   10  C   UNL     1       5.134  30.183  57.626  1.00  0.00     0.156 C 
BRANCH  10  11
HETATM   11  C   UNL     1       4.422  31.503  57.853  1.00  0.00     0.223 C 
HETATM   12  N   UNL     1       5.119  32.639  57.530  1.00  0.00    -0.359 N 
HETATM   13  H   UNL     1       6.046  32.565  57.116  1.00  0.00     0.162 HD
HETATM   14  O   UNL     1       3.303  31.556  58.357  1.00  0.00    -0.273 OA
BRANCH  12  15
HETATM   15  C   UNL     1       4.701  33.990  57.929  1.00  0.00     0.150 C 
BRANCH  15  16
HETATM   16  C   UNL     1       3.932  34.802  56.860  1.00  0.00     0.254 C 
BRANCH  16  17
HETATM   17  N   UNL     1       3.561  33.962  55.652  1.00  0.00    -0.070 N 
HETATM   18  H   UNL     1       3.826  32.983  55.877  1.00  0.00     0.279 HD
HETATM   19  C   UNL     1       2.076  33.936  55.368  1.00  0.00     0.235 C 
HETATM   20  C   UNL     1       1.791  32.926  54.266  1.00  0.00     0.028 C 
HETATM   21  C   UNL     1       2.593  33.226  53.005  1.00  0.00     0.003 C 
HETATM   22  C   UNL     1       4.081  33.353  53.311  1.00  0.00     0.028 C 
HETATM   23  C   UNL     1       4.348  34.354  54.423  1.00  0.00     0.235 C 
ENDBRANCH  16  17
ENDBRANCH  15  16
ENDBRANCH  12  15
ENDBRANCH  10  11
ENDBRANCH   5  10
BRANCH   6  24
HETATM   24  C   UNL     1       8.210  29.215  56.899  1.00  0.00    -0.024 A 
HETATM   25  C   UNL     1       9.472  29.704  56.445  1.00  0.00    -0.053 A 
HETATM   26  C   UNL     1      10.036  29.417  55.072  1.00  0.00     0.049 C 
HETATM   27  C   UNL     1      10.292  30.445  57.313  1.00  0.00     0.008 A 
HETATM   28  C   UNL     1       9.890  30.727  58.613  1.00  0.00     0.007 A 
HETATM   29  C   UNL     1       8.663  30.264  59.080  1.00  0.00    -0.061 A 
HETATM   30  C   UNL     1       8.230  30.583  60.483  1.00  0.00     0.048 C 
HETATM   31  C   UNL     1       7.829  29.534  58.219  1.00  0.00     0.017 A 
ENDBRANCH   6  24
BRANCH   9  32
HETATM   32  C   UNL     1       7.465  26.147  57.167  1.00  0.00     0.293 C 
HETATM   33  O   UNL     1       6.621  26.016  58.041  1.00  0.00    -0.259 OA
BRANCH  32  34
HETATM   34  O   UNL     1       8.740  25.732  57.151  1.00  0.00    -0.323 OA
HETATM   35  C   UNL     1       8.937  24.327  57.356  1.00  0.00     0.213 C 
ENDBRANCH  32  34
ENDBRANCH   9  32
BRANCH   1  36
HETATM   36  C   UNL     1       6.172  24.856  54.850  1.00  0.00     0.056 C 
HETATM   37  C   UNL     1       6.055  24.415  53.398  1.00  0.00     0.011 C 
ENDBRANCH   1  36
TORSDOF 9
ENDMDL
MODEL 8
REMARK VINA RESULT:      -7.0      3.172      7.810
REMARK  9 active torsions:
REMARK  status: ('A' for Active; 'I' for Inactive)
REMARK    1  A    between atoms: C_2  and  C_3 
REMARK    2  A    between atoms: C_7  and  C_8 
REMARK    3  A    between atoms: C_8  and  C_9 
REMARK       I    between atoms: C_9  and  N_10 
REMARK    4  A    between atoms: N_10  and  C_11 
REMARK    5  A    between atoms: C_11  and  C_12 
REMARK    6  A    between atoms: C_12  and  N_13 
REMARK    7  A    between atoms: C_21  and  C_22 
REMARK    8  A    between atoms: C_32  and  C_33 
REMARK    9  A    between atoms: C_33  and  O_34 
ROOT
HETATM    1  C   UNL     1       1.862  32.928  51.415  1.00  0.00     0.051 C 
HETATM    2  N   UNL     1       2.733  33.201  52.473  1.00  0.00    -0.228 NA
HETATM    3  C   UNL     1       3.407  32.199  52.931  1.00  0.00     0.170 C 
HETATM    4  N   UNL     1       3.445  30.815  52.219  1.00  0.00    -0.318 N 
HETATM    5  C   UNL     1       3.490  29.869  53.099  1.00  0.00     0.011 C 
HETATM    6  C   UNL     1       3.288  31.049  50.769  1.00  0.00     0.166 C 
HETATM    7  S   UNL     1       4.173  32.125  54.471  1.00  0.00    -0.086 SA
HETATM    8  C   UNL     1       3.892  30.318  54.499  1.00  0.00     0.135 C 
HETATM    9  C   UNL     1       2.050  31.862  50.594  1.00  0.00     0.069 C 
ENDROOT
BRANCH   5  10
HETATM   10  C   UNL     1       3.119  28.452  52.768  1.00  0.00     0.156 C 
BRANCH  10  11
HETATM   11  C   UNL     1       4.332  27.552  52.624  1.00  0.00     0.223 C 
HETATM   12  N   UNL     1       4.153  26.227  52.926  1.00  0.00    -0.359 N 
HETATM   13  H   UNL     1       3.229  25.886  53.186  1.00  0.00     0.162 HD
HETATM   14  O   UNL     1       5.433  27.997  52.310  1.00  0.00    -0.273 OA
BRANCH  12  15
HETATM   15  C   UNL     1       5.259  25.276  53.103  1.00  0.00     0.150 C 
BRANCH  15  16
HETATM   16  C   UNL     1       6.024  25.372  54.444  1.00  0.00     0.254 C 
BRANCH  16  17
HETATM   17  N   UNL     1       7.152  24.361  54.540  1.00  0.00    -0.070 N 
HETATM   18  H   UNL     1       8.039  24.900  54.516  1.00  0.00     0.279 HD
HETATM   19  C   UNL     1       7.165  23.597  55.845  1.00  0.00     0.235 C 
HETATM   20  C   UNL     1       8.430  22.753  55.922  1.00  0.00     0.028 C 
HETATM   21  C   UNL     1       8.556  21.816  54.727  1.00  0.00     0.003 C 
HETATM   22  C   UNL     1       8.441  22.576  53.410  1.00  0.00     0.028 C 
HETATM   23  C   UNL     1       7.180  23.424  53.355  1.00  0.00     0.235 C 
ENDBRANCH  16  17
ENDBRANCH  15  16
ENDBRANCH  12  15
ENDBRANCH  10  11
ENDBRANCH   5  10
BRANCH   6  24
HETATM   24  C   UNL     1       3.752  29.908  49.869  1.00  0.00    -0.024 A 
HETATM   25  C   UNL     1       5.109  29.858  49.427  1.00  0.00    -0.053 A 
HETATM   26  C   UNL     1       6.136  30.918  49.757  1.00  0.00     0.049 C 
HETATM   27  C   UNL     1       5.537  28.814  48.589  1.00  0.00     0.008 A 
HETATM   28  C   UNL     1       4.662  27.812  48.187  1.00  0.00     0.007 A 
HETATM   29  C   UNL     1       3.334  27.836  48.606  1.00  0.00    -0.061 A 
HETATM   30  C   UNL     1       2.397  26.743  48.177  1.00  0.00     0.048 C 
HETATM   31  C   UNL     1       2.898  28.866  49.454  1.00  0.00     0.017 A 
ENDBRANCH   6  24
BRANCH   9  32
HETATM   32  C   UNL     1       0.933  31.352  49.812  1.00  0.00     0.293 C 
HETATM   33  O   UNL     1       0.097  30.631  50.339  1.00  0.00    -0.259 OA
BRANCH  32  34
HETATM   34  O   UNL     1       1.043  31.723  48.528  1.00  0.00    -0.323 OA
HETATM   35  C   UNL     1       0.337  30.907  47.584  1.00  0.00     0.213 C 
ENDBRANCH  32  34
ENDBRANCH   9  32
BRANCH   1  36
HETATM   36  C   UNL     1       0.652  33.845  51.364  1.00  0.00     0.056 C 
HETATM   37  C   UNL     1      -0.209  33.721  52.614  1.00  0.00     0.011 C 
ENDBRANCH   1  36
TORSDOF 9
ENDMDL
MODEL 9
REMARK VINA RESULT:      -6.7      4.018      7.509
REMARK  9 active torsions:
REMARK  status: ('A' for Active; 'I' for Inactive)
REMARK    1  A    between atoms: C_2  and  C_3 
REMARK    2  A    between atoms: C_7  and  C_8 
REMARK    3  A    between atoms: C_8  and  C_9 
REMARK       I    between atoms: C_9  and  N_10 
REMARK    4  A    between atoms: N_10  and  C_11 
REMARK    5  A    between atoms: C_11  and  C_12 
REMARK    6  A    between atoms: C_12  and  N_13 
REMARK    7  A    between atoms: C_21  and  C_22 
REMARK    8  A    between atoms: C_32  and  C_33 
REMARK    9  A    between atoms: C_33  and  O_34 
ROOT
HETATM    1  C   UNL     1       5.611  26.502  51.298  1.00  0.00     0.051 C 
HETATM    2  N   UNL     1       5.463  26.328  49.919  1.00  0.00    -0.228 NA
HETATM    3  C   UNL     1       4.582  27.075  49.341  1.00  0.00     0.170 C 
HETATM    4  N   UNL     1       3.882  28.263  50.063  1.00  0.00    -0.318 N 
HETATM    5  C   UNL     1       2.655  28.358  49.666  1.00  0.00     0.011 C 
HETATM    6  C   UNL     1       4.827  28.806  51.059  1.00  0.00     0.166 C 
HETATM    7  S   UNL     1       3.866  26.775  47.804  1.00  0.00    -0.086 SA
HETATM    8  C   UNL     1       2.342  27.608  48.377  1.00  0.00     0.135 C 
HETATM    9  C   UNL     1       5.262  27.662  51.912  1.00  0.00     0.069 C 
ENDROOT
BRANCH   5  10
HETATM   10  C   UNL     1       1.616  29.105  50.453  1.00  0.00     0.156 C 
BRANCH  10  11
HETATM   11  C   UNL     1       1.497  30.556  50.026  1.00  0.00     0.223 C 
HETATM   12  N   UNL     1       0.867  31.403  50.900  1.00  0.00    -0.359 N 
HETATM   13  H   UNL     1       0.548  31.056  51.803  1.00  0.00     0.162 HD
HETATM   14  O   UNL     1       1.892  30.941  48.928  1.00  0.00    -0.273 OA
BRANCH  12  15
HETATM   15  C   UNL     1       0.427  32.760  50.545  1.00  0.00     0.150 C 
BRANCH  15  16
HETATM   16  C   UNL     1       0.187  33.724  51.731  1.00  0.00     0.254 C 
BRANCH  16  17
HETATM   17  N   UNL     1      -0.739  33.132  52.778  1.00  0.00    -0.070 N 
HETATM   18  H   UNL     1      -0.450  32.143  52.907  1.00  0.00     0.279 HD
HETATM   19  C   UNL     1      -0.607  33.784  54.136  1.00  0.00     0.235 C 
HETATM   20  C   UNL     1      -1.429  33.004  55.152  1.00  0.00     0.028 C 
HETATM   21  C   UNL     1      -2.889  32.891  54.728  1.00  0.00     0.003 C 
HETATM   22  C   UNL     1      -3.016  32.328  53.317  1.00  0.00     0.028 C 
HETATM   23  C   UNL     1      -2.178  33.109  52.318  1.00  0.00     0.235 C 
ENDBRANCH  16  17
ENDBRANCH  15  16
ENDBRANCH  12  15
ENDBRANCH  10  11
ENDBRANCH   5  10
BRANCH   6  24
HETATM   24  C   UNL     1       4.531  30.225  51.536  1.00  0.00    -0.024 A 
HETATM   25  C   UNL     1       4.997  31.341  50.777  1.00  0.00    -0.053 A 
HETATM   26  C   UNL     1       5.833  31.212  49.525  1.00  0.00     0.049 C 
HETATM   27  C   UNL     1       4.735  32.650  51.220  1.00  0.00     0.008 A 
HETATM   28  C   UNL     1       4.014  32.882  52.385  1.00  0.00     0.007 A 
HETATM   29  C   UNL     1       3.547  31.811  53.141  1.00  0.00    -0.061 A 
HETATM   30  C   UNL     1       2.759  32.070  54.394  1.00  0.00     0.048 C 
HETATM   31  C   UNL     1       3.791  30.500  52.703  1.00  0.00     0.017 A 
ENDBRANCH   6  24
BRANCH   9  32
HETATM   32  C   UNL     1       5.007  27.669  53.346  1.00  0.00     0.293 C 
HETATM   33  O   UNL     1       3.899  27.374  53.770  1.00  0.00    -0.259 OA
BRANCH  32  34
HETATM   34  O   UNL     1       6.086  28.094  54.018  1.00  0.00    -0.323 OA
HETATM   35  C   UNL     1       6.431  27.334  55.183  1.00  0.00     0.213 C 
ENDBRANCH  32  34
ENDBRANCH   9  32
BRANCH   1  36
HETATM   36  C   UNL     1       6.066  25.250  52.028  1.00  0.00     0.056 C 
HETATM   37  C   UNL     1       7.584  25.131  52.063  1.00  0.00     0.011 C 
ENDBRANCH   1  36
TORSDOF 9
ENDMDL
MODEL 10
REMARK VINA RESULT:      -6.7      3.369      6.836
REMARK  9 active torsions:
REMARK  status: ('A' for Active; 'I' for Inactive)
REMARK    1  A    between atoms: C_2  and  C_3 
REMARK    2  A    between atoms: C_7  and  C_8 
REMARK    3  A    between atoms: C_8  and  C_9 
REMARK       I    between atoms: C_9  and  N_10 
REMARK    4  A    between atoms: N_10  and  C_11 
REMARK    5  A    between atoms: C_11  and  C_12 
REMARK    6  A    between atoms: C_12  and  N_13 
REMARK    7  A    between atoms: C_21  and  C_22 
REMARK    8  A    between atoms: C_32  and  C_33 
REMARK    9  A    between atoms: C_33  and  O_34 
ROOT
HETATM    1  C   UNL     1       5.446  26.579  51.293  1.00  0.00     0.051 C 
HETATM    2  N   UNL     1       5.211  26.328  49.938  1.00  0.00    -0.228 NA
HETATM    3  C   UNL     1       4.352  27.096  49.355  1.00  0.00     0.170 C 
HETATM    4  N   UNL     1       3.775  28.375  50.029  1.00  0.00    -0.318 N 
HETATM    5  C   UNL     1       2.537  28.531  49.689  1.00  0.00     0.011 C 
HETATM    6  C   UNL     1       4.808  28.913  50.937  1.00  0.00     0.166 C 
HETATM    7  S   UNL     1       3.534  26.750  47.880  1.00  0.00    -0.086 SA
HETATM    8  C   UNL     1       2.104  27.724  48.472  1.00  0.00     0.135 C 
HETATM    9  C   UNL     1       5.210  27.797  51.843  1.00  0.00     0.069 C 
ENDROOT
BRANCH   5  10
HETATM   10  C   UNL     1       1.596  29.399  50.474  1.00  0.00     0.156 C 
BRANCH  10  11
HETATM   11  C   UNL     1       1.217  30.666  49.731  1.00  0.00     0.223 C 
HETATM   12  N   UNL     1       2.154  31.175  48.868  1.00  0.00    -0.359 N 
HETATM   13  H   UNL     1       3.031  30.679  48.721  1.00  0.00     0.162 HD
HETATM   14  O   UNL     1       0.151  31.241  49.935  1.00  0.00    -0.273 OA
BRANCH  12  15
HETATM   15  C   UNL     1       2.071  32.518  48.278  1.00  0.00     0.150 C 
BRANCH  15  16
HETATM   16  C   UNL     1       2.431  32.618  46.776  1.00  0.00     0.254 C 
BRANCH  16  17
HETATM   17  N   UNL     1       3.792  33.251  46.549  1.00  0.00    -0.070 N 
HETATM   18  H   UNL     1       3.674  33.942  45.782  1.00  0.00     0.279 HD
HETATM   19  C   UNL     1       4.299  34.033  47.740  1.00  0.00     0.235 C 
HETATM   20  C   UNL     1       5.568  34.778  47.349  1.00  0.00     0.028 C 
HETATM   21  C   UNL     1       6.634  33.833  46.809  1.00  0.00     0.003 C 
HETATM   22  C   UNL     1       6.089  32.972  45.674  1.00  0.00     0.028 C 
HETATM   23  C   UNL     1       4.815  32.246  46.075  1.00  0.00     0.235 C 
ENDBRANCH  16  17
ENDBRANCH  15  16
ENDBRANCH  12  15
ENDBRANCH  10  11
ENDBRANCH   5  10
BRANCH   6  24
HETATM   24  C   UNL     1       4.635  30.377  51.331  1.00  0.00    -0.024 A 
HETATM   25  C   UNL     1       5.265  31.400  50.559  1.00  0.00    -0.053 A 
HETATM   26  C   UNL     1       6.161  31.122  49.374  1.00  0.00     0.049 C 
HETATM   27  C   UNL     1       5.116  32.748  50.926  1.00  0.00     0.008 A 
HETATM   28  C   UNL     1       4.351  33.112  52.027  1.00  0.00     0.007 A 
HETATM   29  C   UNL     1       3.725  32.134  52.795  1.00  0.00    -0.061 A 
HETATM   30  C   UNL     1       2.890  32.536  53.978  1.00  0.00     0.048 C 
HETATM   31  C   UNL     1       3.855  30.784  52.431  1.00  0.00     0.017 A 
ENDBRANCH   6  24
BRANCH   9  32
HETATM   32  C   UNL     1       5.036  27.914  53.284  1.00  0.00     0.293 C 
HETATM   33  O   UNL     1       3.956  27.647  53.791  1.00  0.00    -0.259 OA
BRANCH  32  34
HETATM   34  O   UNL     1       6.146  28.398  53.859  1.00  0.00    -0.323 OA
HETATM   35  C   UNL     1       6.741  27.562  54.860  1.00  0.00     0.213 C 
ENDBRANCH  32  34
ENDBRANCH   9  32
BRANCH   1  36
HETATM   36  C   UNL     1       5.855  25.347  52.082  1.00  0.00     0.056 C 
HETATM   37  C   UNL     1       7.352  25.082  51.989  1.00  0.00     0.011 C 
ENDBRANCH   1  36
TORSDOF 9
ENDMDL
