MODEL 1
REMARK VINA RESULT:      -9.4      0.000      0.000
REMARK  6 active torsions:
REMARK  status: ('A' for Active; 'I' for Inactive)
REMARK    1  A    between atoms: C_2  and  S_3 
REMARK    2  A    between atoms: C_2  and  C_18 
REMARK    3  A    between atoms: S_3  and  C_4 
REMARK    4  A    between atoms: C_4  and  C_5 
REMARK       I    between atoms: C_5  and  N_6 
REMARK    5  A    between atoms: N_6  and  C_7 
REMARK    6  A    between atoms: C_10  and  C_11 
REMARK       I    between atoms: C_11  and  N_12 
ROOT
HETATM    1  C   UNL     1       7.871  31.318  60.081  1.00  0.00     0.231 C 
HETATM    2  N   UNL     1       7.544  30.906  61.366  1.00  0.00    -0.327 N 
HETATM    3  O   UNL     1       7.818  32.468  59.654  1.00  0.00    -0.272 OA
HETATM    4  H   UNL     1       7.634  29.917  61.563  1.00  0.00     0.169 HD
ENDROOT
BRANCH   1   5
HETATM    5  C   UNL     1       8.314  30.174  59.182  1.00  0.00     0.177 C 
BRANCH   5   6
HETATM    6  S   UNL     1       7.050  29.881  57.899  1.00  0.00    -0.147 SA
BRANCH   6   7
HETATM    7  C   UNL     1       8.153  29.229  56.589  1.00  0.00     0.113 C 
HETATM    8  C   UNL     1       9.582  29.702  56.839  1.00  0.00     0.029 C 
BRANCH   7   9
HETATM    9  C   UNL     1       8.052  27.737  56.524  1.00  0.00     0.118 A 
HETATM   10  N   UNL     1       8.619  26.881  57.352  1.00  0.00    -0.232 NA
HETATM   11  C   UNL     1       8.272  25.634  56.895  1.00  0.00     0.085 A 
HETATM   12  C   UNL     1       7.493  25.725  55.748  1.00  0.00     0.062 A 
HETATM   13  C   UNL     1       8.593  24.368  57.406  1.00  0.00     0.034 A 
HETATM   14  N   UNL     1       7.370  27.073  55.529  1.00  0.00    -0.342 N 
HETATM   15  C   UNL     1       7.005  24.613  55.060  1.00  0.00     0.032 A 
HETATM   16  H   UNL     1       6.880  27.508  54.762  1.00  0.00     0.167 HD
HETATM   17  C   UNL     1       7.334  23.357  55.585  1.00  0.00     0.002 A 
HETATM   18  C   UNL     1       8.114  23.234  56.737  1.00  0.00     0.002 A 
ENDBRANCH   7   9
ENDBRANCH   6   7
ENDBRANCH   5   6
ENDBRANCH   1   5
BRANCH   2  19
HETATM   19  C   UNL     1       7.089  31.709  62.432  1.00  0.00     0.034 A 
HETATM   20  C   UNL     1       5.742  31.903  62.745  1.00  0.00     0.030 A 
HETATM   21  C   UNL     1       5.365  32.710  63.828  1.00  0.00     0.019 A 
HETATM   22  C   UNL     1       6.337  33.321  64.624  1.00  0.00     0.032 A 
HETATM   23  C   UNL     1       7.688  33.148  64.301  1.00  0.00     0.019 A 
HETATM   24  C   UNL     1       8.059  32.349  63.213  1.00  0.00     0.030 A 
BRANCH  22  25
HETATM   25  C   UNL     1       5.991  34.179  65.796  1.00  0.00     0.251 C 
HETATM   26  N   UNL     1       6.722  33.977  66.948  1.00  0.00    -0.361 N 
HETATM   27  C   UNL     1       6.524  34.788  68.125  1.00  0.00     0.149 C 
HETATM   28  H   UNL     1       7.548  33.397  66.918  1.00  0.00     0.162 HD
HETATM   29  O   UNL     1       5.116  35.031  65.691  1.00  0.00    -0.268 OA
ENDBRANCH  22  25
ENDBRANCH   2  19
TORSDOF 6
ENDMDL
MODEL 2
REMARK VINA RESULT:      -9.2      0.513      1.261
REMARK  6 active torsions:
REMARK  status: ('A' for Active; 'I' for Inactive)
REMARK    1  A    between atoms: C_2  and  S_3 
REMARK    2  A    between atoms: C_2  and  C_18 
REMARK    3  A    between atoms: S_3  and  C_4 
REMARK    4  A    between atoms: C_4  and  C_5 
REMARK       I    between atoms: C_5  and  N_6 
REMARK    5  A    between atoms: N_6  and  C_7 
REMARK    6  A    between atoms: C_10  and  C_11 
REMARK       I    between atoms: C_11  and  N_12 
ROOT
HETATM    1  C   UNL     1       7.976  31.268  60.017  1.00  0.00     0.231 C 
HETATM    2  N   UNL     1       7.651  30.861  61.304  1.00  0.00    -0.327 N 
HETATM    3  O   UNL     1       7.895  32.412  59.576  1.00  0.00    -0.272 OA
HETATM    4  H   UNL     1       7.766  29.876  61.512  1.00  0.00     0.169 HD
ENDROOT
BRANCH   1   5
HETATM    5  C   UNL     1       8.456  30.126  59.133  1.00  0.00     0.177 C 
BRANCH   5   6
HETATM    6  S   UNL     1       7.163  29.711  57.915  1.00  0.00    -0.147 SA
BRANCH   6   7
HETATM    7  C   UNL     1       8.256  29.238  56.523  1.00  0.00     0.113 C 
HETATM    8  C   UNL     1       9.715  29.426  56.929  1.00  0.00     0.029 C 
BRANCH   7   9
HETATM    9  C   UNL     1       7.963  27.834  56.091  1.00  0.00     0.118 A 
HETATM   10  N   UNL     1       7.525  27.460  54.905  1.00  0.00    -0.232 NA
HETATM   11  C   UNL     1       7.380  26.096  54.974  1.00  0.00     0.085 A 
HETATM   12  C   UNL     1       7.715  25.625  56.238  1.00  0.00     0.062 A 
HETATM   13  C   UNL     1       6.956  25.187  53.994  1.00  0.00     0.034 A 
HETATM   14  N   UNL     1       8.079  26.750  56.932  1.00  0.00    -0.342 N 
HETATM   15  C   UNL     1       7.651  24.278  56.598  1.00  0.00     0.032 A 
HETATM   16  H   UNL     1       8.366  26.785  57.899  1.00  0.00     0.167 HD
HETATM   17  C   UNL     1       7.228  23.384  55.607  1.00  0.00     0.002 A 
HETATM   18  C   UNL     1       6.886  23.828  54.327  1.00  0.00     0.002 A 
ENDBRANCH   7   9
ENDBRANCH   6   7
ENDBRANCH   5   6
ENDBRANCH   1   5
BRANCH   2  19
HETATM   19  C   UNL     1       7.168  31.663  62.358  1.00  0.00     0.034 A 
HETATM   20  C   UNL     1       5.813  31.825  62.658  1.00  0.00     0.030 A 
HETATM   21  C   UNL     1       5.407  32.633  63.730  1.00  0.00     0.019 A 
HETATM   22  C   UNL     1       6.357  33.278  64.527  1.00  0.00     0.032 A 
HETATM   23  C   UNL     1       7.714  33.136  64.215  1.00  0.00     0.019 A 
HETATM   24  C   UNL     1       8.114  32.336  63.139  1.00  0.00     0.030 A 
BRANCH  22  25
HETATM   25  C   UNL     1       5.979  34.139  65.687  1.00  0.00     0.251 C 
HETATM   26  N   UNL     1       6.560  33.832  66.900  1.00  0.00    -0.361 N 
HETATM   27  C   UNL     1       6.324  34.630  68.078  1.00  0.00     0.149 C 
HETATM   28  H   UNL     1       7.321  33.169  66.934  1.00  0.00     0.162 HD
HETATM   29  O   UNL     1       5.213  35.081  65.522  1.00  0.00    -0.268 OA
ENDBRANCH  22  25
ENDBRANCH   2  19
TORSDOF 6
ENDMDL
MODEL 3
REMARK VINA RESULT:      -9.1      3.317      6.061
REMARK  6 active torsions:
REMARK  status: ('A' for Active; 'I' for Inactive)
REMARK    1  A    between atoms: C_2  and  S_3 
REMARK    2  A    between atoms: C_2  and  C_18 
REMARK    3  A    between atoms: S_3  and  C_4 
REMARK    4  A    between atoms: C_4  and  C_5 
REMARK       I    between atoms: C_5  and  N_6 
REMARK    5  A    between atoms: N_6  and  C_7 
REMARK    6  A    between atoms: C_10  and  C_11 
REMARK       I    between atoms: C_11  and  N_12 
ROOT
HETATM    1  C   UNL     1       7.129  27.388  54.906  1.00  0.00     0.231 C 
HETATM    2  N   UNL     1       7.210  28.754  55.142  1.00  0.00    -0.327 N 
HETATM    3  O   UNL     1       7.360  26.497  55.720  1.00  0.00    -0.272 OA
HETATM    4  H   UNL     1       6.994  29.364  54.363  1.00  0.00     0.169 HD
ENDROOT
BRANCH   1   5
HETATM    5  C   UNL     1       6.720  27.052  53.479  1.00  0.00     0.177 C 
BRANCH   5   6
HETATM    6  S   UNL     1       5.531  25.668  53.495  1.00  0.00    -0.147 SA
BRANCH   6   7
HETATM    7  C   UNL     1       6.532  24.452  52.560  1.00  0.00     0.113 C 
HETATM    8  C   UNL     1       7.622  25.178  51.778  1.00  0.00     0.029 C 
BRANCH   7   9
HETATM    9  C   UNL     1       7.091  23.420  53.489  1.00  0.00     0.118 A 
HETATM   10  N   UNL     1       7.490  22.207  53.158  1.00  0.00    -0.232 NA
HETATM   11  C   UNL     1       7.900  21.617  54.327  1.00  0.00     0.085 A 
HETATM   12  C   UNL     1       7.728  22.478  55.405  1.00  0.00     0.062 A 
HETATM   13  C   UNL     1       8.427  20.336  54.550  1.00  0.00     0.034 A 
HETATM   14  N   UNL     1       7.209  23.617  54.847  1.00  0.00    -0.342 N 
HETATM   15  C   UNL     1       8.053  22.138  56.719  1.00  0.00     0.032 A 
HETATM   16  H   UNL     1       6.940  24.453  55.344  1.00  0.00     0.167 HD
HETATM   17  C   UNL     1       8.578  20.856  56.924  1.00  0.00     0.002 A 
HETATM   18  C   UNL     1       8.763  19.969  55.860  1.00  0.00     0.002 A 
ENDBRANCH   7   9
ENDBRANCH   6   7
ENDBRANCH   5   6
ENDBRANCH   1   5
BRANCH   2  19
HETATM   19  C   UNL     1       7.570  29.394  56.346  1.00  0.00     0.034 A 
HETATM   20  C   UNL     1       8.866  29.403  56.869  1.00  0.00     0.030 A 
HETATM   21  C   UNL     1       9.151  30.070  58.069  1.00  0.00     0.019 A 
HETATM   22  C   UNL     1       8.142  30.752  58.754  1.00  0.00     0.032 A 
HETATM   23  C   UNL     1       6.838  30.726  58.246  1.00  0.00     0.019 A 
HETATM   24  C   UNL     1       6.556  30.052  57.052  1.00  0.00     0.030 A 
BRANCH  22  25
HETATM   25  C   UNL     1       8.393  31.488  60.028  1.00  0.00     0.251 C 
HETATM   26  N   UNL     1       7.904  30.913  61.182  1.00  0.00    -0.361 N 
HETATM   27  C   UNL     1       8.140  31.496  62.480  1.00  0.00     0.149 C 
HETATM   28  H   UNL     1       7.552  29.967  61.156  1.00  0.00     0.162 HD
HETATM   29  O   UNL     1       9.034  32.533  60.012  1.00  0.00    -0.268 OA
ENDBRANCH  22  25
ENDBRANCH   2  19
TORSDOF 6
ENDMDL
MODEL 4
REMARK VINA RESULT:      -8.9      7.016     11.170
REMARK  6 active torsions:
REMARK  status: ('A' for Active; 'I' for Inactive)
REMARK    1  A    between atoms: C_2  and  S_3 
REMARK    2  A    between atoms: C_2  and  C_18 
REMARK    3  A    between atoms: S_3  and  C_4 
REMARK    4  A    between atoms: C_4  and  C_5 
REMARK       I    between atoms: C_5  and  N_6 
REMARK    5  A    between atoms: N_6  and  C_7 
REMARK    6  A    between atoms: C_10  and  C_11 
REMARK       I    between atoms: C_11  and  N_12 
ROOT
HETATM    1  C   UNL     1       5.243  28.947  54.337  1.00  0.00     0.231 C 
HETATM    2  N   UNL     1       6.058  28.576  53.276  1.00  0.00    -0.327 N 
HETATM    3  O   UNL     1       4.015  28.956  54.339  1.00  0.00    -0.272 OA
HETATM    4  H   UNL     1       7.058  28.630  53.430  1.00  0.00     0.169 HD
ENDROOT
BRANCH   1   5
HETATM    5  C   UNL     1       6.026  29.378  55.569  1.00  0.00     0.177 C 
BRANCH   5   6
HETATM    6  S   UNL     1       7.709  28.676  55.499  1.00  0.00    -0.147 SA
BRANCH   6   7
HETATM    7  C   UNL     1       7.426  27.213  56.565  1.00  0.00     0.113 C 
HETATM    8  C   UNL     1       6.069  27.333  57.253  1.00  0.00     0.029 C 
BRANCH   7   9
HETATM    9  C   UNL     1       7.544  25.956  55.759  1.00  0.00     0.118 A 
HETATM   10  N   UNL     1       7.590  25.876  54.443  1.00  0.00    -0.232 NA
HETATM   11  C   UNL     1       7.675  24.537  54.154  1.00  0.00     0.085 A 
HETATM   12  C   UNL     1       7.658  23.776  55.317  1.00  0.00     0.062 A 
HETATM   13  C   UNL     1       7.763  23.890  52.913  1.00  0.00     0.034 A 
HETATM   14  N   UNL     1       7.570  24.701  56.324  1.00  0.00    -0.342 N 
HETATM   15  C   UNL     1       7.722  22.381  55.323  1.00  0.00     0.032 A 
HETATM   16  H   UNL     1       7.515  24.501  57.312  1.00  0.00     0.167 HD
HETATM   17  C   UNL     1       7.810  21.752  54.076  1.00  0.00     0.002 A 
HETATM   18  C   UNL     1       7.831  22.491  52.890  1.00  0.00     0.002 A 
ENDBRANCH   7   9
ENDBRANCH   6   7
ENDBRANCH   5   6
ENDBRANCH   1   5
BRANCH   2  19
HETATM   19  C   UNL     1       5.652  28.141  51.998  1.00  0.00     0.034 A 
HETATM   20  C   UNL     1       5.407  28.997  50.922  1.00  0.00     0.030 A 
HETATM   21  C   UNL     1       5.014  28.490  49.675  1.00  0.00     0.019 A 
HETATM   22  C   UNL     1       4.878  27.111  49.486  1.00  0.00     0.032 A 
HETATM   23  C   UNL     1       5.101  26.252  50.567  1.00  0.00     0.019 A 
HETATM   24  C   UNL     1       5.484  26.763  51.812  1.00  0.00     0.030 A 
BRANCH  22  25
HETATM   25  C   UNL     1       4.476  26.518  48.176  1.00  0.00     0.251 C 
HETATM   26  N   UNL     1       3.247  25.892  48.132  1.00  0.00    -0.361 N 
HETATM   27  C   UNL     1       2.721  25.338  46.909  1.00  0.00     0.149 C 
HETATM   28  H   UNL     1       2.608  25.995  48.907  1.00  0.00     0.162 HD
HETATM   29  O   UNL     1       5.214  26.629  47.204  1.00  0.00    -0.268 OA
ENDBRANCH  22  25
ENDBRANCH   2  19
TORSDOF 6
ENDMDL
MODEL 5
REMARK VINA RESULT:      -8.8      1.482      2.412
REMARK  6 active torsions:
REMARK  status: ('A' for Active; 'I' for Inactive)
REMARK    1  A    between atoms: C_2  and  S_3 
REMARK    2  A    between atoms: C_2  and  C_18 
REMARK    3  A    between atoms: S_3  and  C_4 
REMARK    4  A    between atoms: C_4  and  C_5 
REMARK       I    between atoms: C_5  and  N_6 
REMARK    5  A    between atoms: N_6  and  C_7 
REMARK    6  A    between atoms: C_10  and  C_11 
REMARK       I    between atoms: C_11  and  N_12 
ROOT
HETATM    1  C   UNL     1       9.727  30.969  58.627  1.00  0.00     0.231 C 
HETATM    2  N   UNL     1       8.940  30.544  59.689  1.00  0.00    -0.327 N 
HETATM    3  O   UNL     1      10.076  32.125  58.401  1.00  0.00    -0.272 OA
HETATM    4  H   UNL     1       8.732  29.553  59.733  1.00  0.00     0.169 HD
ENDROOT
BRANCH   1   5
HETATM    5  C   UNL     1      10.141  29.836  57.699  1.00  0.00     0.177 C 
BRANCH   5   6
HETATM    6  S   UNL     1       8.835  29.560  56.454  1.00  0.00    -0.147 SA
BRANCH   6   7
HETATM    7  C   UNL     1       7.798  28.396  57.417  1.00  0.00     0.113 C 
HETATM    8  C   UNL     1       6.385  28.956  57.548  1.00  0.00     0.029 C 
BRANCH   7   9
HETATM    9  C   UNL     1       7.815  27.041  56.780  1.00  0.00     0.118 A 
HETATM   10  N   UNL     1       7.276  26.719  55.620  1.00  0.00    -0.232 NA
HETATM   11  C   UNL     1       7.518  25.377  55.456  1.00  0.00     0.085 A 
HETATM   12  C   UNL     1       8.200  24.859  56.550  1.00  0.00     0.062 A 
HETATM   13  C   UNL     1       7.176  24.526  54.396  1.00  0.00     0.034 A 
HETATM   14  N   UNL     1       8.375  25.936  57.381  1.00  0.00    -0.342 N 
HETATM   15  C   UNL     1       8.570  23.517  56.660  1.00  0.00     0.032 A 
HETATM   16  H   UNL     1       8.820  25.922  58.286  1.00  0.00     0.167 HD
HETATM   17  C   UNL     1       8.221  22.682  55.592  1.00  0.00     0.002 A 
HETATM   18  C   UNL     1       7.536  23.175  54.478  1.00  0.00     0.002 A 
ENDBRANCH   7   9
ENDBRANCH   6   7
ENDBRANCH   5   6
ENDBRANCH   1   5
BRANCH   2  19
HETATM   19  C   UNL     1       8.386  31.337  60.714  1.00  0.00     0.034 A 
HETATM   20  C   UNL     1       8.954  31.484  61.982  1.00  0.00     0.030 A 
HETATM   21  C   UNL     1       8.350  32.298  62.950  1.00  0.00     0.019 A 
HETATM   22  C   UNL     1       7.173  32.992  62.653  1.00  0.00     0.032 A 
HETATM   23  C   UNL     1       6.589  32.831  61.392  1.00  0.00     0.019 A 
HETATM   24  C   UNL     1       7.191  32.009  60.432  1.00  0.00     0.030 A 
BRANCH  22  25
HETATM   25  C   UNL     1       6.496  33.883  63.642  1.00  0.00     0.251 C 
HETATM   26  N   UNL     1       6.398  33.411  64.934  1.00  0.00    -0.361 N 
HETATM   27  C   UNL     1       5.823  34.206  65.992  1.00  0.00     0.149 C 
HETATM   28  H   UNL     1       6.914  32.585  65.203  1.00  0.00     0.162 HD
HETATM   29  O   UNL     1       6.089  34.985  63.291  1.00  0.00    -0.268 OA
ENDBRANCH  22  25
ENDBRANCH   2  19
TORSDOF 6
ENDMDL
MODEL 6
REMARK VINA RESULT:      -8.7      3.156     11.129
REMARK  6 active torsions:
REMARK  status: ('A' for Active; 'I' for Inactive)
REMARK    1  A    between atoms: C_2  and  S_3 
REMARK    2  A    between atoms: C_2  and  C_18 
REMARK    3  A    between atoms: S_3  and  C_4 
REMARK    4  A    between atoms: C_4  and  C_5 
REMARK       I    between atoms: C_5  and  N_6 
REMARK    5  A    between atoms: N_6  and  C_7 
REMARK    6  A    between atoms: C_10  and  C_11 
REMARK       I    between atoms: C_11  and  N_12 
ROOT
HETATM    1  C   UNL     1       7.952  28.185  57.291  1.00  0.00     0.231 C 
HETATM    2  N   UNL     1       7.155  27.086  57.003  1.00  0.00    -0.327 N 
HETATM    3  O   UNL     1       9.174  28.242  57.182  1.00  0.00    -0.272 OA
HETATM    4  H   UNL     1       6.159  27.195  57.152  1.00  0.00     0.169 HD
ENDROOT
BRANCH   1   5
HETATM    5  C   UNL     1       7.159  29.383  57.794  1.00  0.00     0.177 C 
BRANCH   5   6
HETATM    6  S   UNL     1       8.127  30.267  59.063  1.00  0.00    -0.147 SA
BRANCH   6   7
HETATM    7  C   UNL     1       7.100  31.781  59.167  1.00  0.00     0.113 C 
HETATM    8  C   UNL     1       5.787  31.563  58.421  1.00  0.00     0.029 C 
BRANCH   7   9
HETATM    9  C   UNL     1       6.884  32.160  60.599  1.00  0.00     0.118 A 
HETATM   10  N   UNL     1       5.723  32.409  61.172  1.00  0.00    -0.232 NA
HETATM   11  C   UNL     1       6.012  32.735  62.475  1.00  0.00     0.085 A 
HETATM   12  C   UNL     1       7.383  32.707  62.700  1.00  0.00     0.062 A 
HETATM   13  C   UNL     1       5.151  33.075  63.527  1.00  0.00     0.034 A 
HETATM   14  N   UNL     1       7.917  32.343  61.491  1.00  0.00    -0.342 N 
HETATM   15  C   UNL     1       7.965  33.005  63.934  1.00  0.00     0.032 A 
HETATM   16  H   UNL     1       8.899  32.242  61.282  1.00  0.00     0.167 HD
HETATM   17  C   UNL     1       7.090  33.342  64.974  1.00  0.00     0.002 A 
HETATM   18  C   UNL     1       5.707  33.377  64.777  1.00  0.00     0.002 A 
ENDBRANCH   7   9
ENDBRANCH   6   7
ENDBRANCH   5   6
ENDBRANCH   1   5
BRANCH   2  19
HETATM   19  C   UNL     1       7.575  25.824  56.533  1.00  0.00     0.034 A 
HETATM   20  C   UNL     1       8.360  24.936  57.272  1.00  0.00     0.030 A 
HETATM   21  C   UNL     1       8.731  23.693  56.741  1.00  0.00     0.019 A 
HETATM   22  C   UNL     1       8.306  23.316  55.465  1.00  0.00     0.032 A 
HETATM   23  C   UNL     1       7.539  24.211  54.712  1.00  0.00     0.019 A 
HETATM   24  C   UNL     1       7.177  25.455  55.242  1.00  0.00     0.030 A 
BRANCH  22  25
HETATM   25  C   UNL     1       8.662  21.999  54.857  1.00  0.00     0.251 C 
HETATM   26  N   UNL     1       8.045  21.680  53.666  1.00  0.00    -0.361 N 
HETATM   27  C   UNL     1       8.356  20.467  52.950  1.00  0.00     0.149 C 
HETATM   28  H   UNL     1       7.520  22.388  53.172  1.00  0.00     0.162 HD
HETATM   29  O   UNL     1       9.490  21.280  55.404  1.00  0.00    -0.268 OA
ENDBRANCH  22  25
ENDBRANCH   2  19
TORSDOF 6
ENDMDL
MODEL 7
REMARK VINA RESULT:      -8.5      3.884     10.624
REMARK  6 active torsions:
REMARK  status: ('A' for Active; 'I' for Inactive)
REMARK    1  A    between atoms: C_2  and  S_3 
REMARK    2  A    between atoms: C_2  and  C_18 
REMARK    3  A    between atoms: S_3  and  C_4 
REMARK    4  A    between atoms: C_4  and  C_5 
REMARK       I    between atoms: C_5  and  N_6 
REMARK    5  A    between atoms: N_6  and  C_7 
REMARK    6  A    between atoms: C_10  and  C_11 
REMARK       I    between atoms: C_11  and  N_12 
ROOT
HETATM    1  C   UNL     1       5.463  28.122  56.383  1.00  0.00     0.231 C 
HETATM    2  N   UNL     1       5.094  27.026  55.615  1.00  0.00    -0.327 N 
HETATM    3  O   UNL     1       6.495  28.230  57.041  1.00  0.00    -0.272 OA
HETATM    4  H   UNL     1       4.204  27.087  55.134  1.00  0.00     0.169 HD
ENDROOT
BRANCH   1   5
HETATM    5  C   UNL     1       4.433  29.242  56.361  1.00  0.00     0.177 C 
BRANCH   5   6
HETATM    6  S   UNL     1       5.283  30.849  56.208  1.00  0.00    -0.147 SA
BRANCH   6   7
HETATM    7  C   UNL     1       4.684  31.611  57.763  1.00  0.00     0.113 C 
HETATM    8  C   UNL     1       3.442  30.871  58.251  1.00  0.00     0.029 C 
BRANCH   7   9
HETATM    9  C   UNL     1       5.777  31.623  58.786  1.00  0.00     0.118 A 
HETATM   10  N   UNL     1       5.890  32.464  59.795  1.00  0.00    -0.232 NA
HETATM   11  C   UNL     1       7.047  32.113  60.446  1.00  0.00     0.085 A 
HETATM   12  C   UNL     1       7.671  31.048  59.808  1.00  0.00     0.062 A 
HETATM   13  C   UNL     1       7.637  32.668  61.591  1.00  0.00     0.034 A 
HETATM   14  N   UNL     1       6.846  30.756  58.753  1.00  0.00    -0.342 N 
HETATM   15  C   UNL     1       8.873  30.488  60.246  1.00  0.00     0.032 A 
HETATM   16  H   UNL     1       7.001  30.041  58.057  1.00  0.00     0.167 HD
HETATM   17  C   UNL     1       9.447  31.053  61.391  1.00  0.00     0.002 A 
HETATM   18  C   UNL     1       8.842  32.123  62.054  1.00  0.00     0.002 A 
ENDBRANCH   7   9
ENDBRANCH   6   7
ENDBRANCH   5   6
ENDBRANCH   1   5
BRANCH   2  19
HETATM   19  C   UNL     1       5.813  25.827  55.433  1.00  0.00     0.034 A 
HETATM   20  C   UNL     1       6.339  25.065  56.479  1.00  0.00     0.030 A 
HETATM   21  C   UNL     1       7.036  23.876  56.222  1.00  0.00     0.019 A 
HETATM   22  C   UNL     1       7.203  23.426  54.909  1.00  0.00     0.032 A 
HETATM   23  C   UNL     1       6.698  24.198  53.857  1.00  0.00     0.019 A 
HETATM   24  C   UNL     1       6.009  25.389  54.118  1.00  0.00     0.030 A 
BRANCH  22  25
HETATM   25  C   UNL     1       7.925  22.162  54.580  1.00  0.00     0.251 C 
HETATM   26  N   UNL     1       7.723  21.644  53.318  1.00  0.00    -0.361 N 
HETATM   27  C   UNL     1       8.415  20.464  52.861  1.00  0.00     0.149 C 
HETATM   28  H   UNL     1       7.245  22.199  52.622  1.00  0.00     0.162 HD
HETATM   29  O   UNL     1       8.677  21.657  55.406  1.00  0.00    -0.268 OA
ENDBRANCH  22  25
ENDBRANCH   2  19
TORSDOF 6
ENDMDL
MODEL 8
REMARK VINA RESULT:      -8.5      7.330     10.769
REMARK  6 active torsions:
REMARK  status: ('A' for Active; 'I' for Inactive)
REMARK    1  A    between atoms: C_2  and  S_3 
REMARK    2  A    between atoms: C_2  and  C_18 
REMARK    3  A    between atoms: S_3  and  C_4 
REMARK    4  A    between atoms: C_4  and  C_5 
REMARK       I    between atoms: C_5  and  N_6 
REMARK    5  A    between atoms: N_6  and  C_7 
REMARK    6  A    between atoms: C_10  and  C_11 
REMARK       I    between atoms: C_11  and  N_12 
ROOT
HETATM    1  C   UNL     1       5.574  27.687  55.373  1.00  0.00     0.231 C 
HETATM    2  N   UNL     1       4.821  26.947  54.472  1.00  0.00    -0.327 N 
HETATM    3  O   UNL     1       6.319  28.624  55.098  1.00  0.00    -0.272 OA
HETATM    4  H   UNL     1       4.258  26.198  54.857  1.00  0.00     0.169 HD
ENDROOT
BRANCH   1   5
HETATM    5  C   UNL     1       5.410  27.221  56.813  1.00  0.00     0.177 C 
BRANCH   5   6
HETATM    6  S   UNL     1       5.607  25.409  56.893  1.00  0.00    -0.147 SA
BRANCH   6   7
HETATM    7  C   UNL     1       7.388  25.321  56.476  1.00  0.00     0.113 C 
HETATM    8  C   UNL     1       8.220  25.427  57.751  1.00  0.00     0.029 C 
BRANCH   7   9
HETATM    9  C   UNL     1       7.678  24.066  55.711  1.00  0.00     0.118 A 
HETATM   10  N   UNL     1       7.451  23.867  54.427  1.00  0.00    -0.232 NA
HETATM   11  C   UNL     1       7.848  22.577  54.175  1.00  0.00     0.085 A 
HETATM   12  C   UNL     1       8.308  21.963  55.334  1.00  0.00     0.062 A 
HETATM   13  C   UNL     1       7.839  21.854  52.974  1.00  0.00     0.034 A 
HETATM   14  N   UNL     1       8.186  22.929  56.299  1.00  0.00    -0.342 N 
HETATM   15  C   UNL     1       8.766  20.645  55.375  1.00  0.00     0.032 A 
HETATM   16  H   UNL     1       8.411  22.824  57.277  1.00  0.00     0.167 HD
HETATM   17  C   UNL     1       8.751  19.938  54.167  1.00  0.00     0.002 A 
HETATM   18  C   UNL     1       8.296  20.529  52.985  1.00  0.00     0.002 A 
ENDBRANCH   7   9
ENDBRANCH   6   7
ENDBRANCH   5   6
ENDBRANCH   1   5
BRANCH   2  19
HETATM   19  C   UNL     1       4.756  27.112  53.073  1.00  0.00     0.034 A 
HETATM   20  C   UNL     1       5.272  26.196  52.153  1.00  0.00     0.030 A 
HETATM   21  C   UNL     1       5.162  26.424  50.774  1.00  0.00     0.019 A 
HETATM   22  C   UNL     1       4.517  27.569  50.297  1.00  0.00     0.032 A 
HETATM   23  C   UNL     1       4.019  28.500  51.215  1.00  0.00     0.019 A 
HETATM   24  C   UNL     1       4.139  28.273  52.591  1.00  0.00     0.030 A 
BRANCH  22  25
HETATM   25  C   UNL     1       4.361  27.853  48.840  1.00  0.00     0.251 C 
HETATM   26  N   UNL     1       3.894  29.106  48.501  1.00  0.00    -0.361 N 
HETATM   27  C   UNL     1       3.763  29.521  47.126  1.00  0.00     0.149 C 
HETATM   28  H   UNL     1       3.834  29.823  49.209  1.00  0.00     0.162 HD
HETATM   29  O   UNL     1       4.673  27.001  48.016  1.00  0.00    -0.268 OA
ENDBRANCH  22  25
ENDBRANCH   2  19
TORSDOF 6
ENDMDL
MODEL 9
REMARK VINA RESULT:      -8.5      3.647     10.666
REMARK  6 active torsions:
REMARK  status: ('A' for Active; 'I' for Inactive)
REMARK    1  A    between atoms: C_2  and  S_3 
REMARK    2  A    between atoms: C_2  and  C_18 
REMARK    3  A    between atoms: S_3  and  C_4 
REMARK    4  A    between atoms: C_4  and  C_5 
REMARK       I    between atoms: C_5  and  N_6 
REMARK    5  A    between atoms: N_6  and  C_7 
REMARK    6  A    between atoms: C_10  and  C_11 
REMARK       I    between atoms: C_11  and  N_12 
ROOT
HETATM    1  C   UNL     1       5.637  27.527  56.775  1.00  0.00     0.231 C 
HETATM    2  N   UNL     1       6.851  27.233  56.170  1.00  0.00    -0.327 N 
HETATM    3  O   UNL     1       4.777  26.715  57.105  1.00  0.00    -0.272 OA
HETATM    4  H   UNL     1       7.453  28.018  55.951  1.00  0.00     0.169 HD
ENDROOT
BRANCH   1   5
HETATM    5  C   UNL     1       5.428  29.017  57.002  1.00  0.00     0.177 C 
BRANCH   5   6
HETATM    6  S   UNL     1       6.960  29.918  56.588  1.00  0.00    -0.147 SA
BRANCH   6   7
HETATM    7  C   UNL     1       8.013  29.280  57.944  1.00  0.00     0.113 C 
HETATM    8  C   UNL     1       9.444  29.103  57.444  1.00  0.00     0.029 C 
BRANCH   7   9
HETATM    9  C   UNL     1       7.935  30.190  59.130  1.00  0.00     0.118 A 
HETATM   10  N   UNL     1       8.742  30.181  60.173  1.00  0.00    -0.232 NA
HETATM   11  C   UNL     1       8.279  31.166  61.011  1.00  0.00     0.085 A 
HETATM   12  C   UNL     1       7.149  31.777  60.482  1.00  0.00     0.062 A 
HETATM   13  C   UNL     1       8.770  31.592  62.253  1.00  0.00     0.034 A 
HETATM   14  N   UNL     1       6.948  31.136  59.287  1.00  0.00    -0.342 N 
HETATM   15  C   UNL     1       6.460  32.807  61.125  1.00  0.00     0.032 A 
HETATM   16  H   UNL     1       6.195  31.312  58.637  1.00  0.00     0.167 HD
HETATM   17  C   UNL     1       6.965  33.221  62.363  1.00  0.00     0.002 A 
HETATM   18  C   UNL     1       8.100  32.626  62.920  1.00  0.00     0.002 A 
ENDBRANCH   7   9
ENDBRANCH   6   7
ENDBRANCH   5   6
ENDBRANCH   1   5
BRANCH   2  19
HETATM   19  C   UNL     1       7.344  25.961  55.813  1.00  0.00     0.034 A 
HETATM   20  C   UNL     1       8.098  25.149  56.664  1.00  0.00     0.030 A 
HETATM   21  C   UNL     1       8.546  23.889  56.242  1.00  0.00     0.019 A 
HETATM   22  C   UNL     1       8.229  23.418  54.965  1.00  0.00     0.032 A 
HETATM   23  C   UNL     1       7.493  24.237  54.102  1.00  0.00     0.019 A 
HETATM   24  C   UNL     1       7.055  25.498  54.524  1.00  0.00     0.030 A 
BRANCH  22  25
HETATM   25  C   UNL     1       8.670  22.080  54.471  1.00  0.00     0.251 C 
HETATM   26  N   UNL     1       8.036  21.596  53.345  1.00  0.00    -0.361 N 
HETATM   27  C   UNL     1       8.419  20.346  52.736  1.00  0.00     0.149 C 
HETATM   28  H   UNL     1       7.436  22.208  52.810  1.00  0.00     0.162 HD
HETATM   29  O   UNL     1       9.574  21.485  55.047  1.00  0.00    -0.268 OA
ENDBRANCH  22  25
ENDBRANCH   2  19
TORSDOF 6
ENDMDL
MODEL 10
REMARK VINA RESULT:      -8.4      2.745     10.505
REMARK  6 active torsions:
REMARK  status: ('A' for Active; 'I' for Inactive)
REMARK    1  A    between atoms: C_2  and  S_3 
REMARK    2  A    between atoms: C_2  and  C_18 
REMARK    3  A    between atoms: S_3  and  C_4 
REMARK    4  A    between atoms: C_4  and  C_5 
REMARK       I    between atoms: C_5  and  N_6 
REMARK    5  A    between atoms: N_6  and  C_7 
REMARK    6  A    between atoms: C_10  and  C_11 
REMARK       I    between atoms: C_11  and  N_12 
ROOT
HETATM    1  C   UNL     1       7.803  29.750  58.067  1.00  0.00     0.231 C 
HETATM    2  N   UNL     1       6.892  28.827  57.571  1.00  0.00    -0.327 N 
HETATM    3  O   UNL     1       9.026  29.647  58.040  1.00  0.00    -0.272 OA
HETATM    4  H   UNL     1       5.910  29.055  57.675  1.00  0.00     0.169 HD
ENDROOT
BRANCH   1   5
HETATM    5  C   UNL     1       7.138  30.967  58.694  1.00  0.00     0.177 C 
BRANCH   5   6
HETATM    6  S   UNL     1       8.357  31.875  59.703  1.00  0.00    -0.147 SA
BRANCH   6   7
HETATM    7  C   UNL     1       8.209  30.890  61.241  1.00  0.00     0.113 C 
HETATM    8  C   UNL     1       9.587  30.392  61.666  1.00  0.00     0.029 C 
BRANCH   7   9
HETATM    9  C   UNL     1       7.543  31.699  62.310  1.00  0.00     0.118 A 
HETATM   10  N   UNL     1       8.148  32.362  63.277  1.00  0.00    -0.232 NA
HETATM   11  C   UNL     1       7.146  32.929  64.024  1.00  0.00     0.085 A 
HETATM   12  C   UNL     1       5.897  32.588  63.519  1.00  0.00     0.062 A 
HETATM   13  C   UNL     1       7.226  33.746  65.161  1.00  0.00     0.034 A 
HETATM   14  N   UNL     1       6.175  31.802  62.431  1.00  0.00    -0.342 N 
HETATM   15  C   UNL     1       4.695  33.016  64.087  1.00  0.00     0.032 A 
HETATM   16  H   UNL     1       5.497  31.357  61.830  1.00  0.00     0.167 HD
HETATM   17  C   UNL     1       4.794  33.832  65.221  1.00  0.00     0.002 A 
HETATM   18  C   UNL     1       6.036  34.193  65.750  1.00  0.00     0.002 A 
ENDBRANCH   7   9
ENDBRANCH   6   7
ENDBRANCH   5   6
ENDBRANCH   1   5
BRANCH   2  19
HETATM   19  C   UNL     1       7.176  27.597  56.944  1.00  0.00     0.034 A 
HETATM   20  C   UNL     1       7.108  27.388  55.564  1.00  0.00     0.030 A 
HETATM   21  C   UNL     1       7.415  26.137  55.011  1.00  0.00     0.019 A 
HETATM   22  C   UNL     1       7.811  25.080  55.834  1.00  0.00     0.032 A 
HETATM   23  C   UNL     1       7.859  25.277  57.219  1.00  0.00     0.019 A 
HETATM   24  C   UNL     1       7.543  26.526  57.768  1.00  0.00     0.030 A 
BRANCH  22  25
HETATM   25  C   UNL     1       8.161  23.732  55.296  1.00  0.00     0.251 C 
HETATM   26  N   UNL     1       8.540  22.777  56.217  1.00  0.00    -0.361 N 
HETATM   27  C   UNL     1       8.839  21.421  55.825  1.00  0.00     0.149 C 
HETATM   28  H   UNL     1       8.413  22.958  57.202  1.00  0.00     0.162 HD
HETATM   29  O   UNL     1       8.074  23.515  54.093  1.00  0.00    -0.268 OA
ENDBRANCH  22  25
ENDBRANCH   2  19
TORSDOF 6
ENDMDL
