MODEL 1
REMARK VINA RESULT:     -10.8      0.000      0.000
REMARK  8 active torsions:
REMARK  status: ('A' for Active; 'I' for Inactive)
REMARK    1  A    between atoms: O_2  and  C_3 
REMARK    2  A    between atoms: C_6  and  N_7 
REMARK    3  A    between atoms: N_7  and  C_8 
REMARK    4  A    between atoms: C_12  and  C_13 
REMARK       I    between atoms: C_13  and  N_14 
REMARK    5  A    between atoms: N_14  and  C_15 
REMARK    6  A    between atoms: C_15  and  C_16 
REMARK    7  A    between atoms: C_16  and  N_17 
REMARK    8  A    between atoms: N_21  and  C_22 
ROOT
HETATM    1  C   UNL     1       7.068  31.905  59.251  1.00  0.00     0.129 A 
HETATM    2  N   UNL     1       8.402  31.956  59.087  1.00  0.00    -0.231 NA
HETATM    3  C   UNL     1       9.027  31.072  58.298  1.00  0.00     0.070 A 
HETATM    4  C   UNL     1       8.343  30.087  57.561  1.00  0.00     0.009 A 
HETATM    5  C   UNL     1       6.935  30.106  57.678  1.00  0.00     0.048 A 
HETATM    6  C   UNL     1       6.303  30.981  58.564  1.00  0.00     0.068 A 
HETATM    7  C   UNL     1      10.410  31.139  58.212  1.00  0.00     0.032 A 
HETATM    8  C   UNL     1      11.147  30.245  57.434  1.00  0.00     0.002 A 
HETATM    9  C   UNL     1      10.491  29.246  56.731  1.00  0.00     0.001 A 
HETATM   10  C   UNL     1       9.101  29.161  56.795  1.00  0.00     0.015 A 
ENDROOT
BRANCH   5  11
HETATM   11  C   UNL     1       6.030  29.275  56.845  1.00  0.00     0.252 C 
HETATM   12  N   UNL     1       5.903  29.640  55.523  1.00  0.00    -0.355 N 
HETATM   13  H   UNL     1       6.488  30.409  55.202  1.00  0.00     0.162 HD
HETATM   14  O   UNL     1       5.317  28.413  57.351  1.00  0.00    -0.268 OA
BRANCH  12  15
HETATM   15  C   UNL     1       5.268  28.842  54.475  1.00  0.00     0.150 C 
BRANCH  15  16
HETATM   16  C   UNL     1       5.933  27.523  54.021  1.00  0.00     0.254 C 
BRANCH  16  17
HETATM   17  N   UNL     1       6.370  26.642  55.162  1.00  0.00    -0.067 N 
HETATM   18  H   UNL     1       6.383  27.287  55.976  1.00  0.00     0.280 HD
HETATM   19  C   UNL     1       5.446  25.481  55.485  1.00  0.00     0.254 C 
HETATM   20  C   UNL     1       5.938  24.741  56.747  1.00  0.00     0.150 C 
HETATM   21  N   UNL     1       7.344  24.326  56.609  1.00  0.00    -0.378 N 
HETATM   22  C   UNL     1       8.279  25.423  56.279  1.00  0.00     0.150 C 
HETATM   23  C   UNL     1       7.814  26.172  55.009  1.00  0.00     0.254 C 
BRANCH  21  24
HETATM   24  C   UNL     1       7.688  23.026  56.249  1.00  0.00     0.031 A 
HETATM   25  C   UNL     1       7.575  22.608  54.911  1.00  0.00     0.053 A 
HETATM   26  C   UNL     1       7.939  21.319  54.510  1.00  0.00     0.036 A 
HETATM   27 CL   UNL     1       7.785  20.866  52.857  1.00  0.00    -0.084 Cl
HETATM   28  C   UNL     1       8.431  20.406  55.432  1.00  0.00     0.024 A 
HETATM   29  C   UNL     1       8.566  20.793  56.760  1.00  0.00     0.004 A 
HETATM   30  C   UNL     1       8.205  22.088  57.157  1.00  0.00     0.029 A 
ENDBRANCH  21  24
ENDBRANCH  16  17
ENDBRANCH  15  16
ENDBRANCH  12  15
ENDBRANCH   5  11
BRANCH   1  31
HETATM   31  N   UNL     1       6.403  32.807  60.109  1.00  0.00    -0.341 N 
HETATM   32  H   UNL     1       5.404  32.781  59.932  1.00  0.00     0.167 HD
BRANCH  31  33
HETATM   33  C   UNL     1       6.690  33.078  61.465  1.00  0.00     0.033 A 
HETATM   34  C   UNL     1       5.946  33.987  62.222  1.00  0.00     0.032 A 
HETATM   35  C   UNL     1       6.188  34.156  63.589  1.00  0.00     0.039 A 
HETATM   36  C   UNL     1       7.168  33.403  64.236  1.00  0.00     0.068 A 
HETATM   37  C   UNL     1       7.909  32.482  63.499  1.00  0.00     0.039 A 
HETATM   38  C   UNL     1       7.661  32.313  62.129  1.00  0.00     0.032 A 
BRANCH  36  39
HETATM   39  O   UNL     1       7.291  33.654  65.573  1.00  0.00    -0.356 OA
HETATM   40  C   UNL     1       6.140  34.149  66.245  1.00  0.00     0.210 C 
ENDBRANCH  36  39
ENDBRANCH  31  33
ENDBRANCH   1  31
TORSDOF 8
ENDMDL
MODEL 2
REMARK VINA RESULT:     -10.8      1.124      1.720
REMARK  8 active torsions:
REMARK  status: ('A' for Active; 'I' for Inactive)
REMARK    1  A    between atoms: O_2  and  C_3 
REMARK    2  A    between atoms: C_6  and  N_7 
REMARK    3  A    between atoms: N_7  and  C_8 
REMARK    4  A    between atoms: C_12  and  C_13 
REMARK       I    between atoms: C_13  and  N_14 
REMARK    5  A    between atoms: N_14  and  C_15 
REMARK    6  A    between atoms: C_15  and  C_16 
REMARK    7  A    between atoms: C_16  and  N_17 
REMARK    8  A    between atoms: N_21  and  C_22 
ROOT
HETATM    1  C   UNL     1       7.141  31.767  59.267  1.00  0.00     0.129 A 
HETATM    2  N   UNL     1       8.460  31.911  59.052  1.00  0.00    -0.231 NA
HETATM    3  C   UNL     1       9.127  31.034  58.288  1.00  0.00     0.070 A 
HETATM    4  C   UNL     1       8.500  29.961  57.630  1.00  0.00     0.009 A 
HETATM    5  C   UNL     1       7.098  29.878  57.798  1.00  0.00     0.048 A 
HETATM    6  C   UNL     1       6.429  30.749  58.659  1.00  0.00     0.068 A 
HETATM    7  C   UNL     1      10.498  31.203  58.149  1.00  0.00     0.032 A 
HETATM    8  C   UNL     1      11.277  30.326  57.393  1.00  0.00     0.002 A 
HETATM    9  C   UNL     1      10.679  29.243  56.768  1.00  0.00     0.001 A 
HETATM   10  C   UNL     1       9.303  29.055  56.887  1.00  0.00     0.015 A 
ENDROOT
BRANCH   5  11
HETATM   11  C   UNL     1       6.236  28.934  57.044  1.00  0.00     0.252 C 
HETATM   12  N   UNL     1       5.571  29.447  55.952  1.00  0.00    -0.355 N 
HETATM   13  H   UNL     1       5.771  30.415  55.707  1.00  0.00     0.162 HD
HETATM   14  O   UNL     1       6.009  27.805  57.470  1.00  0.00    -0.268 OA
BRANCH  12  15
HETATM   15  C   UNL     1       4.867  28.665  54.937  1.00  0.00     0.150 C 
BRANCH  15  16
HETATM   16  C   UNL     1       5.431  28.610  53.499  1.00  0.00     0.254 C 
BRANCH  16  17
HETATM   17  N   UNL     1       5.831  27.227  53.059  1.00  0.00    -0.067 N 
HETATM   18  H   UNL     1       5.543  27.196  52.061  1.00  0.00     0.280 HD
HETATM   19  C   UNL     1       7.316  26.916  53.138  1.00  0.00     0.254 C 
HETATM   20  C   UNL     1       7.604  25.523  52.540  1.00  0.00     0.150 C 
HETATM   21  N   UNL     1       6.773  24.487  53.175  1.00  0.00    -0.378 N 
HETATM   22  C   UNL     1       5.319  24.755  53.134  1.00  0.00     0.150 C 
HETATM   23  C   UNL     1       5.003  26.141  53.741  1.00  0.00     0.254 C 
BRANCH  21  24
HETATM   24  C   UNL     1       7.272  23.670  54.186  1.00  0.00     0.031 A 
HETATM   25  C   UNL     1       7.737  22.378  53.888  1.00  0.00     0.053 A 
HETATM   26  C   UNL     1       8.270  21.542  54.874  1.00  0.00     0.036 A 
HETATM   27 CL   UNL     1       8.830  19.972  54.449  1.00  0.00    -0.084 Cl
HETATM   28  C   UNL     1       8.362  21.974  56.190  1.00  0.00     0.024 A 
HETATM   29  C   UNL     1       7.923  23.252  56.514  1.00  0.00     0.004 A 
HETATM   30  C   UNL     1       7.392  24.088  55.521  1.00  0.00     0.029 A 
ENDBRANCH  21  24
ENDBRANCH  16  17
ENDBRANCH  15  16
ENDBRANCH  12  15
ENDBRANCH   5  11
BRANCH   1  31
HETATM   31  N   UNL     1       6.434  32.661  60.100  1.00  0.00    -0.341 N 
HETATM   32  H   UNL     1       5.438  32.586  59.923  1.00  0.00     0.167 HD
BRANCH  31  33
HETATM   33  C   UNL     1       6.707  32.982  61.448  1.00  0.00     0.033 A 
HETATM   34  C   UNL     1       5.958  33.922  62.161  1.00  0.00     0.032 A 
HETATM   35  C   UNL     1       6.186  34.141  63.523  1.00  0.00     0.039 A 
HETATM   36  C   UNL     1       7.154  33.409  64.210  1.00  0.00     0.068 A 
HETATM   37  C   UNL     1       7.900  32.459  63.516  1.00  0.00     0.039 A 
HETATM   38  C   UNL     1       7.667  32.239  62.152  1.00  0.00     0.032 A 
BRANCH  36  39
HETATM   39  O   UNL     1       7.264  33.711  65.538  1.00  0.00    -0.356 OA
HETATM   40  C   UNL     1       6.075  34.109  66.208  1.00  0.00     0.210 C 
ENDBRANCH  36  39
ENDBRANCH  31  33
ENDBRANCH   1  31
TORSDOF 8
ENDMDL
MODEL 3
REMARK VINA RESULT:     -10.5      3.699     10.677
REMARK  8 active torsions:
REMARK  status: ('A' for Active; 'I' for Inactive)
REMARK    1  A    between atoms: O_2  and  C_3 
REMARK    2  A    between atoms: C_6  and  N_7 
REMARK    3  A    between atoms: N_7  and  C_8 
REMARK    4  A    between atoms: C_12  and  C_13 
REMARK       I    between atoms: C_13  and  N_14 
REMARK    5  A    between atoms: N_14  and  C_15 
REMARK    6  A    between atoms: C_15  and  C_16 
REMARK    7  A    between atoms: C_16  and  N_17 
REMARK    8  A    between atoms: N_21  and  C_22 
ROOT
HETATM    1  C   UNL     1       6.752  27.373  54.364  1.00  0.00     0.129 A 
HETATM    2  N   UNL     1       5.664  28.124  54.120  1.00  0.00    -0.231 NA
HETATM    3  C   UNL     1       5.312  29.109  54.958  1.00  0.00     0.070 A 
HETATM    4  C   UNL     1       6.069  29.453  56.094  1.00  0.00     0.009 A 
HETATM    5  C   UNL     1       7.256  28.710  56.284  1.00  0.00     0.048 A 
HETATM    6  C   UNL     1       7.569  27.636  55.448  1.00  0.00     0.068 A 
HETATM    7  C   UNL     1       4.148  29.813  54.685  1.00  0.00     0.032 A 
HETATM    8  C   UNL     1       3.693  30.839  55.514  1.00  0.00     0.002 A 
HETATM    9  C   UNL     1       4.407  31.165  56.656  1.00  0.00     0.001 A 
HETATM   10  C   UNL     1       5.583  30.477  56.950  1.00  0.00     0.015 A 
ENDROOT
BRANCH   5  11
HETATM   11  C   UNL     1       8.276  29.040  57.311  1.00  0.00     0.252 C 
HETATM   12  N   UNL     1       9.401  29.700  56.869  1.00  0.00    -0.355 N 
HETATM   13  H   UNL     1       9.420  29.969  55.887  1.00  0.00     0.162 HD
HETATM   14  O   UNL     1       8.187  28.604  58.455  1.00  0.00    -0.268 OA
BRANCH  12  15
HETATM   15  C   UNL     1      10.411  30.328  57.721  1.00  0.00     0.150 C 
BRANCH  15  16
HETATM   16  C   UNL     1      10.027  31.567  58.560  1.00  0.00     0.254 C 
BRANCH  16  17
HETATM   17  N   UNL     1       9.042  31.270  59.661  1.00  0.00    -0.067 N 
HETATM   18  H   UNL     1       8.717  30.307  59.443  1.00  0.00     0.280 HD
HETATM   19  C   UNL     1       9.610  31.277  61.069  1.00  0.00     0.254 C 
HETATM   20  C   UNL     1       8.535  30.834  62.083  1.00  0.00     0.150 C 
HETATM   21  N   UNL     1       7.315  31.649  61.959  1.00  0.00    -0.378 N 
HETATM   22  C   UNL     1       6.734  31.684  60.600  1.00  0.00     0.150 C 
HETATM   23  C   UNL     1       7.790  32.139  59.566  1.00  0.00     0.254 C 
BRANCH  21  24
HETATM   24  C   UNL     1       7.059  32.712  62.820  1.00  0.00     0.031 A 
HETATM   25  C   UNL     1       6.186  33.743  62.434  1.00  0.00     0.053 A 
HETATM   26  C   UNL     1       5.885  34.811  63.285  1.00  0.00     0.036 A 
HETATM   27 CL   UNL     1       4.803  36.041  62.759  1.00  0.00    -0.084 Cl
HETATM   28  C   UNL     1       6.444  34.881  64.553  1.00  0.00     0.024 A 
HETATM   29  C   UNL     1       7.301  33.870  64.970  1.00  0.00     0.004 A 
HETATM   30  C   UNL     1       7.597  32.799  64.115  1.00  0.00     0.029 A 
ENDBRANCH  21  24
ENDBRANCH  16  17
ENDBRANCH  15  16
ENDBRANCH  12  15
ENDBRANCH   5  11
BRANCH   1  31
HETATM   31  N   UNL     1       7.111  26.308  53.509  1.00  0.00    -0.341 N 
HETATM   32  H   UNL     1       7.719  26.647  52.770  1.00  0.00     0.167 HD
BRANCH  31  33
HETATM   33  C   UNL     1       7.413  24.977  53.870  1.00  0.00     0.033 A 
HETATM   34  C   UNL     1       6.990  24.413  55.077  1.00  0.00     0.032 A 
HETATM   35  C   UNL     1       7.215  23.062  55.359  1.00  0.00     0.039 A 
HETATM   36  C   UNL     1       7.850  22.237  54.430  1.00  0.00     0.068 A 
HETATM   37  C   UNL     1       8.266  22.781  53.218  1.00  0.00     0.039 A 
HETATM   38  C   UNL     1       8.036  24.135  52.936  1.00  0.00     0.032 A 
BRANCH  36  39
HETATM   39  O   UNL     1       7.993  20.937  54.825  1.00  0.00    -0.356 OA
HETATM   40  C   UNL     1       8.776  20.093  53.990  1.00  0.00     0.210 C 
ENDBRANCH  36  39
ENDBRANCH  31  33
ENDBRANCH   1  31
TORSDOF 8
ENDMDL
MODEL 4
REMARK VINA RESULT:     -10.4      2.253      5.932
REMARK  8 active torsions:
REMARK  status: ('A' for Active; 'I' for Inactive)
REMARK    1  A    between atoms: O_2  and  C_3 
REMARK    2  A    between atoms: C_6  and  N_7 
REMARK    3  A    between atoms: N_7  and  C_8 
REMARK    4  A    between atoms: C_12  and  C_13 
REMARK       I    between atoms: C_13  and  N_14 
REMARK    5  A    between atoms: N_14  and  C_15 
REMARK    6  A    between atoms: C_15  and  C_16 
REMARK    7  A    between atoms: C_16  and  N_17 
REMARK    8  A    between atoms: N_21  and  C_22 
ROOT
HETATM    1  C   UNL     1       4.905  32.311  59.607  1.00  0.00     0.129 A 
HETATM    2  N   UNL     1       4.815  32.729  60.881  1.00  0.00    -0.231 NA
HETATM    3  C   UNL     1       5.883  32.694  61.689  1.00  0.00     0.070 A 
HETATM    4  C   UNL     1       7.156  32.278  61.256  1.00  0.00     0.009 A 
HETATM    5  C   UNL     1       7.250  31.925  59.891  1.00  0.00     0.048 A 
HETATM    6  C   UNL     1       6.114  31.891  59.081  1.00  0.00     0.068 A 
HETATM    7  C   UNL     1       5.715  33.087  63.009  1.00  0.00     0.032 A 
HETATM    8  C   UNL     1       6.765  33.060  63.928  1.00  0.00     0.002 A 
HETATM    9  C   UNL     1       8.016  32.618  63.527  1.00  0.00     0.001 A 
HETATM   10  C   UNL     1       8.213  32.225  62.204  1.00  0.00     0.015 A 
ENDROOT
BRANCH   5  11
HETATM   11  C   UNL     1       8.534  31.638  59.204  1.00  0.00     0.252 C 
HETATM   12  N   UNL     1       8.699  30.360  58.717  1.00  0.00    -0.355 N 
HETATM   13  H   UNL     1       7.904  29.730  58.807  1.00  0.00     0.162 HD
HETATM   14  O   UNL     1       9.455  32.451  59.216  1.00  0.00    -0.268 OA
BRANCH  12  15
HETATM   15  C   UNL     1       9.761  29.922  57.812  1.00  0.00     0.150 C 
BRANCH  15  16
HETATM   16  C   UNL     1       9.409  29.566  56.350  1.00  0.00     0.254 C 
BRANCH  16  17
HETATM   17  N   UNL     1       8.311  28.542  56.225  1.00  0.00    -0.067 N 
HETATM   18  H   UNL     1       7.530  28.955  56.772  1.00  0.00     0.280 HD
HETATM   19  C   UNL     1       7.818  28.278  54.812  1.00  0.00     0.254 C 
HETATM   20  C   UNL     1       6.615  27.313  54.837  1.00  0.00     0.150 C 
HETATM   21  N   UNL     1       6.937  26.075  55.567  1.00  0.00    -0.378 N 
HETATM   22  C   UNL     1       7.435  26.286  56.943  1.00  0.00     0.150 C 
HETATM   23  C   UNL     1       8.651  27.240  56.944  1.00  0.00     0.254 C 
BRANCH  21  24
HETATM   24  C   UNL     1       7.296  24.909  54.899  1.00  0.00     0.031 A 
HETATM   25  C   UNL     1       7.289  23.675  55.573  1.00  0.00     0.053 A 
HETATM   26  C   UNL     1       7.618  22.481  54.925  1.00  0.00     0.036 A 
HETATM   27 CL   UNL     1       7.585  21.000  55.801  1.00  0.00    -0.084 Cl
HETATM   28  C   UNL     1       7.959  22.479  53.580  1.00  0.00     0.024 A 
HETATM   29  C   UNL     1       7.962  23.680  52.882  1.00  0.00     0.004 A 
HETATM   30  C   UNL     1       7.628  24.876  53.535  1.00  0.00     0.029 A 
ENDBRANCH  21  24
ENDBRANCH  16  17
ENDBRANCH  15  16
ENDBRANCH  12  15
ENDBRANCH   5  11
BRANCH   1  31
HETATM   31  N   UNL     1       3.778  32.307  58.757  1.00  0.00    -0.341 N 
HETATM   32  H   UNL     1       3.271  33.181  58.850  1.00  0.00     0.167 HD
BRANCH  31  33
HETATM   33  C   UNL     1       3.685  31.782  57.449  1.00  0.00     0.033 A 
HETATM   34  C   UNL     1       3.604  32.598  56.317  1.00  0.00     0.032 A 
HETATM   35  C   UNL     1       3.620  32.049  55.031  1.00  0.00     0.039 A 
HETATM   36  C   UNL     1       3.738  30.672  54.846  1.00  0.00     0.068 A 
HETATM   37  C   UNL     1       3.833  29.846  55.964  1.00  0.00     0.039 A 
HETATM   38  C   UNL     1       3.821  30.399  57.252  1.00  0.00     0.032 A 
BRANCH  36  39
HETATM   39  O   UNL     1       3.755  30.270  53.540  1.00  0.00    -0.356 OA
HETATM   40  C   UNL     1       3.516  28.892  53.287  1.00  0.00     0.210 C 
ENDBRANCH  36  39
ENDBRANCH  31  33
ENDBRANCH   1  31
TORSDOF 8
ENDMDL
MODEL 5
REMARK VINA RESULT:     -10.4      4.161     10.985
REMARK  8 active torsions:
REMARK  status: ('A' for Active; 'I' for Inactive)
REMARK    1  A    between atoms: O_2  and  C_3 
REMARK    2  A    between atoms: C_6  and  N_7 
REMARK    3  A    between atoms: N_7  and  C_8 
REMARK    4  A    between atoms: C_12  and  C_13 
REMARK       I    between atoms: C_13  and  N_14 
REMARK    5  A    between atoms: N_14  and  C_15 
REMARK    6  A    between atoms: C_15  and  C_16 
REMARK    7  A    between atoms: C_16  and  N_17 
REMARK    8  A    between atoms: N_21  and  C_22 
ROOT
HETATM    1  C   UNL     1       5.713  24.933  52.818  1.00  0.00     0.129 A 
HETATM    2  N   UNL     1       6.394  23.804  52.557  1.00  0.00    -0.231 NA
HETATM    3  C   UNL     1       7.311  23.346  53.421  1.00  0.00     0.070 A 
HETATM    4  C   UNL     1       7.579  23.968  54.654  1.00  0.00     0.009 A 
HETATM    5  C   UNL     1       6.790  25.103  54.948  1.00  0.00     0.048 A 
HETATM    6  C   UNL     1       5.895  25.616  54.007  1.00  0.00     0.068 A 
HETATM    7  C   UNL     1       8.023  22.206  53.072  1.00  0.00     0.032 A 
HETATM    8  C   UNL     1       9.012  21.671  53.897  1.00  0.00     0.002 A 
HETATM    9  C   UNL     1       9.313  22.293  55.099  1.00  0.00     0.001 A 
HETATM   10  C   UNL     1       8.609  23.436  55.475  1.00  0.00     0.015 A 
ENDROOT
BRANCH   5  11
HETATM   11  C   UNL     1       6.793  25.786  56.266  1.00  0.00     0.252 C 
HETATM   12  N   UNL     1       7.632  26.871  56.395  1.00  0.00    -0.355 N 
HETATM   13  H   UNL     1       8.136  27.162  55.560  1.00  0.00     0.162 HD
HETATM   14  O   UNL     1       6.199  25.307  57.228  1.00  0.00    -0.268 OA
BRANCH  12  15
HETATM   15  C   UNL     1       7.626  27.826  57.502  1.00  0.00     0.150 C 
BRANCH  15  16
HETATM   16  C   UNL     1       6.444  28.813  57.642  1.00  0.00     0.254 C 
BRANCH  16  17
HETATM   17  N   UNL     1       6.853  30.183  58.117  1.00  0.00    -0.067 N 
HETATM   18  H   UNL     1       7.244  30.629  57.264  1.00  0.00     0.280 HD
HETATM   19  C   UNL     1       5.728  31.058  58.643  1.00  0.00     0.254 C 
HETATM   20  C   UNL     1       6.258  32.469  58.973  1.00  0.00     0.150 C 
HETATM   21  N   UNL     1       7.407  32.408  59.892  1.00  0.00    -0.378 N 
HETATM   22  C   UNL     1       8.521  31.554  59.426  1.00  0.00     0.150 C 
HETATM   23  C   UNL     1       8.017  30.129  59.102  1.00  0.00     0.254 C 
BRANCH  21  24
HETATM   24  C   UNL     1       7.258  32.624  61.259  1.00  0.00     0.031 A 
HETATM   25  C   UNL     1       6.046  33.117  61.770  1.00  0.00     0.053 A 
HETATM   26  C   UNL     1       5.853  33.319  63.140  1.00  0.00     0.036 A 
HETATM   27 CL   UNL     1       4.344  33.918  63.709  1.00  0.00    -0.084 Cl
HETATM   28  C   UNL     1       6.865  33.030  64.045  1.00  0.00     0.024 A 
HETATM   29  C   UNL     1       8.072  32.528  63.572  1.00  0.00     0.004 A 
HETATM   30  C   UNL     1       8.259  32.323  62.197  1.00  0.00     0.029 A 
ENDBRANCH  21  24
ENDBRANCH  16  17
ENDBRANCH  15  16
ENDBRANCH  12  15
ENDBRANCH   5  11
BRANCH   1  31
HETATM   31  N   UNL     1       4.772  25.447  51.899  1.00  0.00    -0.341 N 
HETATM   32  H   UNL     1       3.853  25.481  52.327  1.00  0.00     0.167 HD
BRANCH  31  33
HETATM   33  C   UNL     1       4.958  26.492  50.968  1.00  0.00     0.033 A 
HETATM   34  C   UNL     1       4.656  26.351  49.611  1.00  0.00     0.032 A 
HETATM   35  C   UNL     1       4.752  27.436  48.734  1.00  0.00     0.039 A 
HETATM   36  C   UNL     1       5.132  28.695  49.198  1.00  0.00     0.068 A 
HETATM   37  C   UNL     1       5.423  28.856  50.551  1.00  0.00     0.039 A 
HETATM   38  C   UNL     1       5.322  27.767  51.428  1.00  0.00     0.032 A 
BRANCH  36  39
HETATM   39  O   UNL     1       5.171  29.669  48.242  1.00  0.00    -0.356 OA
HETATM   40  C   UNL     1       4.204  29.590  47.202  1.00  0.00     0.210 C 
ENDBRANCH  36  39
ENDBRANCH  31  33
ENDBRANCH   1  31
TORSDOF 8
ENDMDL
MODEL 6
REMARK VINA RESULT:     -10.3      5.457      9.487
REMARK  8 active torsions:
REMARK  status: ('A' for Active; 'I' for Inactive)
REMARK    1  A    between atoms: O_2  and  C_3 
REMARK    2  A    between atoms: C_6  and  N_7 
REMARK    3  A    between atoms: N_7  and  C_8 
REMARK    4  A    between atoms: C_12  and  C_13 
REMARK       I    between atoms: C_13  and  N_14 
REMARK    5  A    between atoms: N_14  and  C_15 
REMARK    6  A    between atoms: C_15  and  C_16 
REMARK    7  A    between atoms: C_16  and  N_17 
REMARK    8  A    between atoms: N_21  and  C_22 
ROOT
HETATM    1  C   UNL     1       7.429  24.412  56.270  1.00  0.00     0.129 A 
HETATM    2  N   UNL     1       7.929  23.175  56.443  1.00  0.00    -0.231 NA
HETATM    3  C   UNL     1       8.052  22.337  55.404  1.00  0.00     0.070 A 
HETATM    4  C   UNL     1       7.727  22.703  54.084  1.00  0.00     0.009 A 
HETATM    5  C   UNL     1       7.287  24.035  53.911  1.00  0.00     0.048 A 
HETATM    6  C   UNL     1       7.088  24.871  55.011  1.00  0.00     0.068 A 
HETATM    7  C   UNL     1       8.522  21.056  55.652  1.00  0.00     0.032 A 
HETATM    8  C   UNL     1       8.660  20.109  54.637  1.00  0.00     0.002 A 
HETATM    9  C   UNL     1       8.309  20.441  53.337  1.00  0.00     0.001 A 
HETATM   10  C   UNL     1       7.841  21.725  53.060  1.00  0.00     0.015 A 
ENDROOT
BRANCH   5  11
HETATM   11  C   UNL     1       7.072  24.662  52.583  1.00  0.00     0.252 C 
HETATM   12  N   UNL     1       5.764  24.893  52.217  1.00  0.00    -0.355 N 
HETATM   13  H   UNL     1       5.049  24.678  52.909  1.00  0.00     0.162 HD
HETATM   14  O   UNL     1       8.002  24.815  51.797  1.00  0.00    -0.268 OA
BRANCH  12  15
HETATM   15  C   UNL     1       5.328  25.704  51.081  1.00  0.00     0.150 C 
BRANCH  15  16
HETATM   16  C   UNL     1       4.995  27.198  51.301  1.00  0.00     0.254 C 
BRANCH  16  17
HETATM   17  N   UNL     1       4.761  27.960  50.023  1.00  0.00    -0.067 N 
HETATM   18  H   UNL     1       5.616  28.543  49.928  1.00  0.00     0.280 HD
HETATM   19  C   UNL     1       4.617  27.112  48.771  1.00  0.00     0.254 C 
HETATM   20  C   UNL     1       4.512  28.015  47.524  1.00  0.00     0.150 C 
HETATM   21  N   UNL     1       3.430  29.003  47.668  1.00  0.00    -0.378 N 
HETATM   22  C   UNL     1       3.522  29.841  48.882  1.00  0.00     0.150 C 
HETATM   23  C   UNL     1       3.614  28.959  50.148  1.00  0.00     0.254 C 
BRANCH  21  24
HETATM   24  C   UNL     1       2.181  28.805  47.087  1.00  0.00     0.031 A 
HETATM   25  C   UNL     1       1.456  29.895  46.577  1.00  0.00     0.053 A 
HETATM   26  C   UNL     1       0.211  29.728  45.963  1.00  0.00     0.036 A 
HETATM   27 CL   UNL     1      -0.628  31.101  45.352  1.00  0.00    -0.084 Cl
HETATM   28  C   UNL     1      -0.348  28.465  45.832  1.00  0.00     0.024 A 
HETATM   29  C   UNL     1       0.351  27.364  46.314  1.00  0.00     0.004 A 
HETATM   30  C   UNL     1       1.601  27.536  46.927  1.00  0.00     0.029 A 
ENDBRANCH  21  24
ENDBRANCH  16  17
ENDBRANCH  15  16
ENDBRANCH  12  15
ENDBRANCH   5  11
BRANCH   1  31
HETATM   31  N   UNL     1       7.259  25.289  57.362  1.00  0.00    -0.341 N 
HETATM   32  H   UNL     1       7.847  24.998  58.136  1.00  0.00     0.167 HD
BRANCH  31  33
HETATM   33  C   UNL     1       7.097  26.692  57.324  1.00  0.00     0.033 A 
HETATM   34  C   UNL     1       5.842  27.299  57.217  1.00  0.00     0.032 A 
HETATM   35  C   UNL     1       5.706  28.689  57.288  1.00  0.00     0.039 A 
HETATM   36  C   UNL     1       6.820  29.504  57.489  1.00  0.00     0.068 A 
HETATM   37  C   UNL     1       8.075  28.914  57.611  1.00  0.00     0.039 A 
HETATM   38  C   UNL     1       8.208  27.520  57.543  1.00  0.00     0.032 A 
BRANCH  36  39
HETATM   39  O   UNL     1       6.545  30.841  57.553  1.00  0.00    -0.356 OA
HETATM   40  C   UNL     1       5.285  31.214  58.096  1.00  0.00     0.210 C 
ENDBRANCH  36  39
ENDBRANCH  31  33
ENDBRANCH   1  31
TORSDOF 8
ENDMDL
MODEL 7
REMARK VINA RESULT:     -10.2      4.080     11.423
REMARK  8 active torsions:
REMARK  status: ('A' for Active; 'I' for Inactive)
REMARK    1  A    between atoms: O_2  and  C_3 
REMARK    2  A    between atoms: C_6  and  N_7 
REMARK    3  A    between atoms: N_7  and  C_8 
REMARK    4  A    between atoms: C_12  and  C_13 
REMARK       I    between atoms: C_13  and  N_14 
REMARK    5  A    between atoms: N_14  and  C_15 
REMARK    6  A    between atoms: C_15  and  C_16 
REMARK    7  A    between atoms: C_16  and  N_17 
REMARK    8  A    between atoms: N_21  and  C_22 
ROOT
HETATM    1  C   UNL     1       6.591  26.334  57.054  1.00  0.00     0.129 A 
HETATM    2  N   UNL     1       5.617  26.773  56.237  1.00  0.00    -0.231 NA
HETATM    3  C   UNL     1       5.370  28.084  56.111  1.00  0.00     0.070 A 
HETATM    4  C   UNL     1       6.131  29.072  56.764  1.00  0.00     0.009 A 
HETATM    5  C   UNL     1       7.206  28.594  57.548  1.00  0.00     0.048 A 
HETATM    6  C   UNL     1       7.402  27.224  57.734  1.00  0.00     0.068 A 
HETATM    7  C   UNL     1       4.316  28.473  55.297  1.00  0.00     0.032 A 
HETATM    8  C   UNL     1       3.971  29.814  55.124  1.00  0.00     0.002 A 
HETATM    9  C   UNL     1       4.687  30.797  55.790  1.00  0.00     0.001 A 
HETATM   10  C   UNL     1       5.756  30.433  56.608  1.00  0.00     0.015 A 
ENDROOT
BRANCH   5  11
HETATM   11  C   UNL     1       8.228  29.477  58.164  1.00  0.00     0.252 C 
HETATM   12  N   UNL     1       7.960  29.933  59.436  1.00  0.00    -0.355 N 
HETATM   13  H   UNL     1       7.116  29.579  59.882  1.00  0.00     0.162 HD
HETATM   14  O   UNL     1       9.176  29.900  57.510  1.00  0.00    -0.268 OA
BRANCH  12  15
HETATM   15  C   UNL     1       8.913  30.606  60.318  1.00  0.00     0.150 C 
BRANCH  15  16
HETATM   16  C   UNL     1       8.455  31.050  61.727  1.00  0.00     0.254 C 
BRANCH  16  17
HETATM   17  N   UNL     1       7.078  31.661  61.750  1.00  0.00    -0.067 N 
HETATM   18  H   UNL     1       6.640  31.307  60.877  1.00  0.00     0.280 HD
HETATM   19  C   UNL     1       6.201  31.257  62.923  1.00  0.00     0.254 C 
HETATM   20  C   UNL     1       4.785  31.846  62.759  1.00  0.00     0.150 C 
HETATM   21  N   UNL     1       4.831  33.304  62.560  1.00  0.00    -0.378 N 
HETATM   22  C   UNL     1       5.686  33.744  61.437  1.00  0.00     0.150 C 
HETATM   23  C   UNL     1       7.116  33.177  61.585  1.00  0.00     0.254 C 
BRANCH  21  24
HETATM   24  C   UNL     1       4.600  34.190  63.609  1.00  0.00     0.031 A 
HETATM   25  C   UNL     1       4.591  33.729  64.936  1.00  0.00     0.053 A 
HETATM   26  C   UNL     1       4.390  34.596  66.015  1.00  0.00     0.036 A 
HETATM   27 CL   UNL     1       4.397  33.975  67.619  1.00  0.00    -0.084 Cl
HETATM   28  C   UNL     1       4.196  35.953  65.802  1.00  0.00     0.024 A 
HETATM   29  C   UNL     1       4.213  36.442  64.501  1.00  0.00     0.004 A 
HETATM   30  C   UNL     1       4.419  35.570  63.423  1.00  0.00     0.029 A 
ENDBRANCH  21  24
ENDBRANCH  16  17
ENDBRANCH  15  16
ENDBRANCH  12  15
ENDBRANCH   5  11
BRANCH   1  31
HETATM   31  N   UNL     1       6.835  24.955  57.224  1.00  0.00    -0.341 N 
HETATM   32  H   UNL     1       6.047  24.519  57.691  1.00  0.00     0.167 HD
BRANCH  31  33
HETATM   33  C   UNL     1       7.466  24.072  56.320  1.00  0.00     0.033 A 
HETATM   34  C   UNL     1       8.282  23.020  56.745  1.00  0.00     0.032 A 
HETATM   35  C   UNL     1       8.807  22.101  55.831  1.00  0.00     0.039 A 
HETATM   36  C   UNL     1       8.510  22.200  54.472  1.00  0.00     0.068 A 
HETATM   37  C   UNL     1       7.687  23.235  54.034  1.00  0.00     0.039 A 
HETATM   38  C   UNL     1       7.160  24.153  54.953  1.00  0.00     0.032 A 
BRANCH  36  39
HETATM   39  O   UNL     1       9.074  21.230  53.692  1.00  0.00    -0.356 OA
HETATM   40  C   UNL     1       8.197  20.481  52.861  1.00  0.00     0.210 C 
ENDBRANCH  36  39
ENDBRANCH  31  33
ENDBRANCH   1  31
TORSDOF 8
ENDMDL
MODEL 8
REMARK VINA RESULT:     -10.2      1.588      2.183
REMARK  8 active torsions:
REMARK  status: ('A' for Active; 'I' for Inactive)
REMARK    1  A    between atoms: O_2  and  C_3 
REMARK    2  A    between atoms: C_6  and  N_7 
REMARK    3  A    between atoms: N_7  and  C_8 
REMARK    4  A    between atoms: C_12  and  C_13 
REMARK       I    between atoms: C_13  and  N_14 
REMARK    5  A    between atoms: N_14  and  C_15 
REMARK    6  A    between atoms: C_15  and  C_16 
REMARK    7  A    between atoms: C_16  and  N_17 
REMARK    8  A    between atoms: N_21  and  C_22 
ROOT
HETATM    1  C   UNL     1       8.345  32.288  60.238  1.00  0.00     0.129 A 
HETATM    2  N   UNL     1       9.569  31.994  59.765  1.00  0.00    -0.231 NA
HETATM    3  C   UNL     1       9.715  31.194  58.700  1.00  0.00     0.070 A 
HETATM    4  C   UNL     1       8.625  30.663  57.986  1.00  0.00     0.009 A 
HETATM    5  C   UNL     1       7.347  31.055  58.445  1.00  0.00     0.048 A 
HETATM    6  C   UNL     1       7.208  31.824  59.602  1.00  0.00     0.068 A 
HETATM    7  C   UNL     1      11.004  30.881  58.293  1.00  0.00     0.032 A 
HETATM    8  C   UNL     1      11.253  30.037  57.209  1.00  0.00     0.002 A 
HETATM    9  C   UNL     1      10.190  29.477  56.518  1.00  0.00     0.001 A 
HETATM   10  C   UNL     1       8.885  29.781  56.903  1.00  0.00     0.015 A 
ENDROOT
BRANCH   5  11
HETATM   11  C   UNL     1       6.086  30.754  57.722  1.00  0.00     0.252 C 
HETATM   12  N   UNL     1       5.761  29.422  57.584  1.00  0.00    -0.355 N 
HETATM   13  H   UNL     1       6.373  28.750  58.043  1.00  0.00     0.162 HD
HETATM   14  O   UNL     1       5.460  31.637  57.144  1.00  0.00    -0.268 OA
BRANCH  12  15
HETATM   15  C   UNL     1       4.472  28.902  57.127  1.00  0.00     0.150 C 
BRANCH  15  16
HETATM   16  C   UNL     1       4.442  27.664  56.202  1.00  0.00     0.254 C 
BRANCH  16  17
HETATM   17  N   UNL     1       5.806  27.100  55.902  1.00  0.00    -0.067 N 
HETATM   18  H   UNL     1       6.441  27.911  56.045  1.00  0.00     0.280 HD
HETATM   19  C   UNL     1       6.262  25.968  56.806  1.00  0.00     0.254 C 
HETATM   20  C   UNL     1       7.716  25.573  56.476  1.00  0.00     0.150 C 
HETATM   21  N   UNL     1       7.873  25.256  55.047  1.00  0.00    -0.378 N 
HETATM   22  C   UNL     1       7.428  26.326  54.128  1.00  0.00     0.150 C 
HETATM   23  C   UNL     1       5.967  26.731  54.430  1.00  0.00     0.254 C 
BRANCH  21  24
HETATM   24  C   UNL     1       7.877  23.942  54.588  1.00  0.00     0.031 A 
HETATM   25  C   UNL     1       7.811  22.874  55.499  1.00  0.00     0.053 A 
HETATM   26  C   UNL     1       7.785  21.542  55.071  1.00  0.00     0.036 A 
HETATM   27 CL   UNL     1       7.698  20.276  56.233  1.00  0.00    -0.084 Cl
HETATM   28  C   UNL     1       7.819  21.236  53.718  1.00  0.00     0.024 A 
HETATM   29  C   UNL     1       7.870  22.271  52.792  1.00  0.00     0.004 A 
HETATM   30  C   UNL     1       7.892  23.604  53.225  1.00  0.00     0.029 A 
ENDBRANCH  21  24
ENDBRANCH  16  17
ENDBRANCH  15  16
ENDBRANCH  12  15
ENDBRANCH   5  11
BRANCH   1  31
HETATM   31  N   UNL     1       8.179  33.099  61.381  1.00  0.00    -0.341 N 
HETATM   32  H   UNL     1       8.608  34.005  61.229  1.00  0.00     0.167 HD
BRANCH  31  33
HETATM   33  C   UNL     1       7.045  33.187  62.218  1.00  0.00     0.033 A 
HETATM   34  C   UNL     1       7.084  32.847  63.573  1.00  0.00     0.032 A 
HETATM   35  C   UNL     1       5.972  33.046  64.398  1.00  0.00     0.039 A 
HETATM   36  C   UNL     1       4.801  33.609  63.892  1.00  0.00     0.068 A 
HETATM   37  C   UNL     1       4.751  33.966  62.547  1.00  0.00     0.039 A 
HETATM   38  C   UNL     1       5.868  33.769  61.723  1.00  0.00     0.032 A 
BRANCH  36  39
HETATM   39  O   UNL     1       3.798  33.761  64.807  1.00  0.00    -0.356 OA
HETATM   40  C   UNL     1       3.919  34.843  65.721  1.00  0.00     0.210 C 
ENDBRANCH  36  39
ENDBRANCH  31  33
ENDBRANCH   1  31
TORSDOF 8
ENDMDL
MODEL 9
REMARK VINA RESULT:     -10.0      1.963      3.192
REMARK  8 active torsions:
REMARK  status: ('A' for Active; 'I' for Inactive)
REMARK    1  A    between atoms: O_2  and  C_3 
REMARK    2  A    between atoms: C_6  and  N_7 
REMARK    3  A    between atoms: N_7  and  C_8 
REMARK    4  A    between atoms: C_12  and  C_13 
REMARK       I    between atoms: C_13  and  N_14 
REMARK    5  A    between atoms: N_14  and  C_15 
REMARK    6  A    between atoms: C_15  and  C_16 
REMARK    7  A    between atoms: C_16  and  N_17 
REMARK    8  A    between atoms: N_21  and  C_22 
ROOT
HETATM    1  C   UNL     1       6.870  31.664  60.044  1.00  0.00     0.129 A 
HETATM    2  N   UNL     1       6.006  32.662  59.789  1.00  0.00    -0.231 NA
HETATM    3  C   UNL     1       5.443  32.786  58.579  1.00  0.00     0.070 A 
HETATM    4  C   UNL     1       5.669  31.871  57.534  1.00  0.00     0.009 A 
HETATM    5  C   UNL     1       6.512  30.781  57.849  1.00  0.00     0.048 A 
HETATM    6  C   UNL     1       7.153  30.708  59.087  1.00  0.00     0.068 A 
HETATM    7  C   UNL     1       4.602  33.868  58.359  1.00  0.00     0.032 A 
HETATM    8  C   UNL     1       3.991  34.089  57.124  1.00  0.00     0.002 A 
HETATM    9  C   UNL     1       4.233  33.218  56.073  1.00  0.00     0.001 A 
HETATM   10  C   UNL     1       5.068  32.120  56.271  1.00  0.00     0.015 A 
ENDROOT
BRANCH   5  11
HETATM   11  C   UNL     1       6.725  29.621  56.948  1.00  0.00     0.252 C 
HETATM   12  N   UNL     1       7.833  29.673  56.131  1.00  0.00    -0.355 N 
HETATM   13  H   UNL     1       8.456  30.469  56.253  1.00  0.00     0.162 HD
HETATM   14  O   UNL     1       5.872  28.746  56.828  1.00  0.00    -0.268 OA
BRANCH  12  15
HETATM   15  C   UNL     1       8.368  28.560  55.348  1.00  0.00     0.150 C 
BRANCH  15  16
HETATM   16  C   UNL     1       7.725  28.217  53.985  1.00  0.00     0.254 C 
BRANCH  16  17
HETATM   17  N   UNL     1       6.974  26.911  53.982  1.00  0.00    -0.067 N 
HETATM   18  H   UNL     1       5.978  27.204  54.021  1.00  0.00     0.280 HD
HETATM   19  C   UNL     1       7.171  26.044  52.751  1.00  0.00     0.254 C 
HETATM   20  C   UNL     1       6.253  24.806  52.816  1.00  0.00     0.150 C 
HETATM   21  N   UNL     1       6.447  24.062  54.072  1.00  0.00    -0.378 N 
HETATM   22  C   UNL     1       6.279  24.871  55.298  1.00  0.00     0.150 C 
HETATM   23  C   UNL     1       7.200  26.112  55.262  1.00  0.00     0.254 C 
BRANCH  21  24
HETATM   24  C   UNL     1       7.247  22.924  54.128  1.00  0.00     0.031 A 
HETATM   25  C   UNL     1       7.637  22.393  55.370  1.00  0.00     0.053 A 
HETATM   26  C   UNL     1       8.417  21.236  55.463  1.00  0.00     0.036 A 
HETATM   27 CL   UNL     1       8.858  20.629  57.011  1.00  0.00    -0.084 Cl
HETATM   28  C   UNL     1       8.829  20.570  54.318  1.00  0.00     0.024 A 
HETATM   29  C   UNL     1       8.449  21.062  53.075  1.00  0.00     0.004 A 
HETATM   30  C   UNL     1       7.663  22.220  52.987  1.00  0.00     0.029 A 
ENDBRANCH  21  24
ENDBRANCH  16  17
ENDBRANCH  15  16
ENDBRANCH  12  15
ENDBRANCH   5  11
BRANCH   1  31
HETATM   31  N   UNL     1       7.498  31.546  61.303  1.00  0.00    -0.341 N 
HETATM   32  H   UNL     1       8.506  31.596  61.193  1.00  0.00     0.167 HD
BRANCH  31  33
HETATM   33  C   UNL     1       7.075  32.096  62.533  1.00  0.00     0.033 A 
HETATM   34  C   UNL     1       7.954  32.743  63.407  1.00  0.00     0.032 A 
HETATM   35  C   UNL     1       7.485  33.368  64.567  1.00  0.00     0.039 A 
HETATM   36  C   UNL     1       6.124  33.379  64.870  1.00  0.00     0.068 A 
HETATM   37  C   UNL     1       5.234  32.750  64.002  1.00  0.00     0.039 A 
HETATM   38  C   UNL     1       5.706  32.128  62.838  1.00  0.00     0.032 A 
BRANCH  36  39
HETATM   39  O   UNL     1       5.800  34.037  66.023  1.00  0.00    -0.356 OA
HETATM   40  C   UNL     1       4.417  34.177  66.318  1.00  0.00     0.210 C 
ENDBRANCH  36  39
ENDBRANCH  31  33
ENDBRANCH   1  31
TORSDOF 8
ENDMDL
MODEL 10
REMARK VINA RESULT:      -9.9      3.414      5.683
REMARK  8 active torsions:
REMARK  status: ('A' for Active; 'I' for Inactive)
REMARK    1  A    between atoms: O_2  and  C_3 
REMARK    2  A    between atoms: C_6  and  N_7 
REMARK    3  A    between atoms: N_7  and  C_8 
REMARK    4  A    between atoms: C_12  and  C_13 
REMARK       I    between atoms: C_13  and  N_14 
REMARK    5  A    between atoms: N_14  and  C_15 
REMARK    6  A    between atoms: C_15  and  C_16 
REMARK    7  A    between atoms: C_16  and  N_17 
REMARK    8  A    between atoms: N_21  and  C_22 
ROOT
HETATM    1  C   UNL     1       4.624  33.640  60.327  1.00  0.00     0.129 A 
HETATM    2  N   UNL     1       4.801  34.055  61.593  1.00  0.00    -0.231 NA
HETATM    3  C   UNL     1       5.866  33.653  62.302  1.00  0.00     0.070 A 
HETATM    4  C   UNL     1       6.875  32.833  61.765  1.00  0.00     0.009 A 
HETATM    5  C   UNL     1       6.716  32.479  60.406  1.00  0.00     0.048 A 
HETATM    6  C   UNL     1       5.564  32.839  59.704  1.00  0.00     0.068 A 
HETATM    7  C   UNL     1       5.965  34.069  63.622  1.00  0.00     0.032 A 
HETATM    8  C   UNL     1       7.025  33.681  64.441  1.00  0.00     0.002 A 
HETATM    9  C   UNL     1       8.009  32.843  63.939  1.00  0.00     0.001 A 
HETATM   10  C   UNL     1       7.936  32.416  62.614  1.00  0.00     0.015 A 
ENDROOT
BRANCH   5  11
HETATM   11  C   UNL     1       7.756  31.778  59.613  1.00  0.00     0.252 C 
HETATM   12  N   UNL     1       7.606  30.416  59.470  1.00  0.00    -0.355 N 
HETATM   13  H   UNL     1       6.762  30.004  59.863  1.00  0.00     0.162 HD
HETATM   14  O   UNL     1       8.772  32.360  59.245  1.00  0.00    -0.268 OA
BRANCH  12  15
HETATM   15  C   UNL     1       8.361  29.567  58.549  1.00  0.00     0.150 C 
BRANCH  15  16
HETATM   16  C   UNL     1       7.868  29.406  57.093  1.00  0.00     0.254 C 
BRANCH  16  17
HETATM   17  N   UNL     1       7.080  28.144  56.858  1.00  0.00    -0.067 N 
HETATM   18  H   UNL     1       6.275  28.235  57.508  1.00  0.00     0.280 HD
HETATM   19  C   UNL     1       6.541  27.959  55.450  1.00  0.00     0.254 C 
HETATM   20  C   UNL     1       5.651  26.701  55.378  1.00  0.00     0.150 C 
HETATM   21  N   UNL     1       6.364  25.512  55.873  1.00  0.00    -0.378 N 
HETATM   22  C   UNL     1       6.920  25.652  57.236  1.00  0.00     0.150 C 
HETATM   23  C   UNL     1       7.828  26.900  57.330  1.00  0.00     0.254 C 
BRANCH  21  24
HETATM   24  C   UNL     1       6.958  24.604  55.001  1.00  0.00     0.031 A 
HETATM   25  C   UNL     1       7.129  23.263  55.384  1.00  0.00     0.053 A 
HETATM   26  C   UNL     1       7.696  22.318  54.522  1.00  0.00     0.036 A 
HETATM   27 CL   UNL     1       7.874  20.688  55.044  1.00  0.00    -0.084 Cl
HETATM   28  C   UNL     1       8.105  22.682  53.248  1.00  0.00     0.024 A 
HETATM   29  C   UNL     1       7.937  23.999  52.834  1.00  0.00     0.004 A 
HETATM   30  C   UNL     1       7.365  24.942  53.700  1.00  0.00     0.029 A 
ENDBRANCH  21  24
ENDBRANCH  16  17
ENDBRANCH  15  16
ENDBRANCH  12  15
ENDBRANCH   5  11
BRANCH   1  31
HETATM   31  N   UNL     1       3.488  34.027  59.583  1.00  0.00    -0.341 N 
HETATM   32  H   UNL     1       2.734  34.284  60.212  1.00  0.00     0.167 HD
BRANCH  31  33
HETATM   33  C   UNL     1       3.455  34.776  58.387  1.00  0.00     0.033 A 
HETATM   34  C   UNL     1       3.836  36.120  58.332  1.00  0.00     0.032 A 
HETATM   35  C   UNL     1       3.891  36.804  57.114  1.00  0.00     0.039 A 
HETATM   36  C   UNL     1       3.588  36.154  55.918  1.00  0.00     0.068 A 
HETATM   37  C   UNL     1       3.219  34.812  55.954  1.00  0.00     0.039 A 
HETATM   38  C   UNL     1       3.168  34.127  57.176  1.00  0.00     0.032 A 
BRANCH  36  39
HETATM   39  O   UNL     1       3.696  36.933  54.801  1.00  0.00    -0.356 OA
HETATM   40  C   UNL     1       4.050  38.296  54.998  1.00  0.00     0.210 C 
ENDBRANCH  36  39
ENDBRANCH  31  33
ENDBRANCH   1  31
TORSDOF 8
ENDMDL
