MODEL 1
REMARK VINA RESULT:     -11.0      0.000      0.000
REMARK  7 active torsions:
REMARK  status: ('A' for Active; 'I' for Inactive)
REMARK    1  A    between atoms: C_10  and  C_11 
REMARK    2  A    between atoms: C_11  and  C_12 
REMARK       I    between atoms: C_12  and  N_13 
REMARK    3  A    between atoms: N_13  and  N_14 
REMARK       I    between atoms: N_14  and  C_15 
REMARK    4  A    between atoms: C_15  and  C_16 
REMARK    5  A    between atoms: C_16  and  C_17 
REMARK    6  A    between atoms: C_17  and  C_18 
REMARK       I    between atoms: C_18  and  N_19 
REMARK    7  A    between atoms: N_19  and  C_20 
ROOT
HETATM    1  C   UNL     1       8.141  32.353  60.940  1.00  0.00     0.034 A 
HETATM    2  C   UNL     1       8.612  32.285  62.252  1.00  0.00     0.031 A 
HETATM    3  C   UNL     1       7.749  32.515  63.331  1.00  0.00     0.025 A 
HETATM    4  C   UNL     1       6.403  32.812  63.106  1.00  0.00     0.044 A 
HETATM    5  C   UNL     1       5.520  33.043  64.210  1.00  0.00     0.099 C 
HETATM    6  N   UNL     1       4.800  33.232  65.101  1.00  0.00    -0.191 NA
HETATM    7  C   UNL     1       5.925  32.881  61.795  1.00  0.00     0.025 A 
HETATM    8  C   UNL     1       6.791  32.657  60.719  1.00  0.00     0.031 A 
ENDROOT
BRANCH   1   9
HETATM    9  N   UNL     1       8.945  32.142  59.802  1.00  0.00    -0.327 N 
HETATM   10  C   UNL     1       9.345  30.933  59.267  1.00  0.00     0.222 C 
HETATM   11  O   UNL     1       9.044  29.816  59.674  1.00  0.00    -0.273 OA
HETATM   12  H   UNL     1       9.238  32.982  59.298  1.00  0.00     0.169 HD
BRANCH  10  13
HETATM   13  C   UNL     1      10.223  31.088  58.039  1.00  0.00     0.112 C 
BRANCH  13  14
HETATM   14  C   UNL     1      10.534  29.743  57.393  1.00  0.00     0.114 C 
BRANCH  14  15
HETATM   15  C   UNL     1       9.340  29.189  56.644  1.00  0.00     0.236 C 
HETATM   16  N   UNL     1       8.626  28.260  57.365  1.00  0.00    -0.268 N 
HETATM   17  H   UNL     1       8.914  27.912  58.280  1.00  0.00     0.190 HD
HETATM   18  O   UNL     1       9.018  29.563  55.517  1.00  0.00    -0.272 OA
BRANCH  16  19
HETATM   19  N   UNL     1       7.618  27.533  56.723  1.00  0.00    -0.267 N 
HETATM   20  C   UNL     1       7.318  26.279  57.221  1.00  0.00     0.240 C 
HETATM   21  O   UNL     1       7.948  25.779  58.154  1.00  0.00    -0.272 OA
HETATM   22  H   UNL     1       6.983  28.048  56.113  1.00  0.00     0.190 HD
BRANCH  20  23
HETATM   23  C   UNL     1       6.213  25.563  56.484  1.00  0.00     0.146 C 
BRANCH  23  24
HETATM   24  C   UNL     1       6.585  24.881  55.199  1.00  0.00    -0.015 A 
HETATM   25  C   UNL     1       7.188  23.594  54.962  1.00  0.00    -0.000 A 
HETATM   26  C   UNL     1       7.665  22.538  55.774  1.00  0.00     0.021 A 
HETATM   27  C   UNL     1       7.281  23.429  53.579  1.00  0.00     0.043 A 
HETATM   28  C   UNL     1       8.201  21.372  55.195  1.00  0.00    -0.061 A 
HETATM   29  C   UNL     1       8.662  20.243  56.069  1.00  0.00     0.048 C 
HETATM   30  C   UNL     1       8.249  21.249  53.806  1.00  0.00     0.009 A 
HETATM   31  C   UNL     1       7.801  22.278  52.975  1.00  0.00     0.031 A 
HETATM   32  N   UNL     1       6.787  24.568  52.995  1.00  0.00    -0.359 N 
HETATM   33  H   UNL     1       6.748  24.721  51.997  1.00  0.00     0.166 HD
HETATM   34  C   UNL     1       6.359  25.450  53.949  1.00  0.00     0.013 A 
HETATM   35  C   UNL     1       5.772  26.765  53.575  1.00  0.00     0.068 C 
ENDBRANCH  23  24
ENDBRANCH  20  23
ENDBRANCH  16  19
ENDBRANCH  14  15
ENDBRANCH  13  14
ENDBRANCH  10  13
ENDBRANCH   1   9
TORSDOF 7
ENDMDL
MODEL 2
REMARK VINA RESULT:     -10.9      1.249      1.596
REMARK  7 active torsions:
REMARK  status: ('A' for Active; 'I' for Inactive)
REMARK    1  A    between atoms: C_10  and  C_11 
REMARK    2  A    between atoms: C_11  and  C_12 
REMARK       I    between atoms: C_12  and  N_13 
REMARK    3  A    between atoms: N_13  and  N_14 
REMARK       I    between atoms: N_14  and  C_15 
REMARK    4  A    between atoms: C_15  and  C_16 
REMARK    5  A    between atoms: C_16  and  C_17 
REMARK    6  A    between atoms: C_17  and  C_18 
REMARK       I    between atoms: C_18  and  N_19 
REMARK    7  A    between atoms: N_19  and  C_20 
ROOT
HETATM    1  C   UNL     1       7.214  31.667  62.304  1.00  0.00     0.034 A 
HETATM    2  C   UNL     1       5.844  31.895  62.451  1.00  0.00     0.031 A 
HETATM    3  C   UNL     1       5.364  32.700  63.492  1.00  0.00     0.025 A 
HETATM    4  C   UNL     1       6.253  33.287  64.396  1.00  0.00     0.044 A 
HETATM    5  C   UNL     1       5.761  34.113  65.459  1.00  0.00     0.099 C 
HETATM    6  N   UNL     1       5.369  34.783  66.322  1.00  0.00    -0.191 NA
HETATM    7  C   UNL     1       7.624  33.063  64.254  1.00  0.00     0.025 A 
HETATM    8  C   UNL     1       8.100  32.254  63.216  1.00  0.00     0.031 A 
ENDROOT
BRANCH   1   9
HETATM    9  N   UNL     1       7.775  30.867  61.289  1.00  0.00    -0.327 N 
HETATM   10  C   UNL     1       8.120  31.251  60.008  1.00  0.00     0.222 C 
HETATM   11  O   UNL     1       8.026  32.377  59.531  1.00  0.00    -0.273 OA
HETATM   12  H   UNL     1       7.978  29.898  61.544  1.00  0.00     0.169 HD
BRANCH  10  13
HETATM   13  C   UNL     1       8.688  30.114  59.179  1.00  0.00     0.112 C 
BRANCH  13  14
HETATM   14  C   UNL     1       8.618  30.415  57.686  1.00  0.00     0.114 C 
BRANCH  14  15
HETATM   15  C   UNL     1       7.735  29.427  56.953  1.00  0.00     0.236 C 
HETATM   16  N   UNL     1       6.965  28.656  57.793  1.00  0.00    -0.268 N 
HETATM   17  H   UNL     1       7.037  28.682  58.811  1.00  0.00     0.190 HD
HETATM   18  O   UNL     1       7.683  29.351  55.726  1.00  0.00    -0.272 OA
BRANCH  16  19
HETATM   19  N   UNL     1       6.250  27.579  57.258  1.00  0.00    -0.267 N 
HETATM   20  C   UNL     1       6.791  26.315  57.408  1.00  0.00     0.240 C 
HETATM   21  O   UNL     1       7.890  26.134  57.934  1.00  0.00    -0.272 OA
HETATM   22  H   UNL     1       5.267  27.732  57.033  1.00  0.00     0.190 HD
BRANCH  20  23
HETATM   23  C   UNL     1       5.956  25.206  56.816  1.00  0.00     0.146 C 
BRANCH  23  24
HETATM   24  C   UNL     1       6.366  24.694  55.466  1.00  0.00    -0.015 A 
HETATM   25  C   UNL     1       7.141  23.537  55.098  1.00  0.00    -0.000 A 
HETATM   26  C   UNL     1       7.806  22.503  55.800  1.00  0.00     0.021 A 
HETATM   27  C   UNL     1       7.195  23.500  53.704  1.00  0.00     0.043 A 
HETATM   28  C   UNL     1       8.482  21.482  55.105  1.00  0.00    -0.061 A 
HETATM   29  C   UNL     1       9.145  20.369  55.862  1.00  0.00     0.048 C 
HETATM   30  C   UNL     1       8.485  21.481  53.710  1.00  0.00     0.009 A 
HETATM   31  C   UNL     1       7.853  22.494  52.986  1.00  0.00     0.031 A 
HETATM   32  N   UNL     1       6.513  24.594  53.238  1.00  0.00    -0.359 N 
HETATM   33  H   UNL     1       6.406  24.820  52.258  1.00  0.00     0.166 HD
HETATM   34  C   UNL     1       6.002  25.321  54.278  1.00  0.00     0.013 A 
HETATM   35  C   UNL     1       5.211  26.558  54.039  1.00  0.00     0.068 C 
ENDBRANCH  23  24
ENDBRANCH  20  23
ENDBRANCH  16  19
ENDBRANCH  14  15
ENDBRANCH  13  14
ENDBRANCH  10  13
ENDBRANCH   1   9
TORSDOF 7
ENDMDL
MODEL 3
REMARK VINA RESULT:     -10.4      2.719     11.178
REMARK  7 active torsions:
REMARK  status: ('A' for Active; 'I' for Inactive)
REMARK    1  A    between atoms: C_10  and  C_11 
REMARK    2  A    between atoms: C_11  and  C_12 
REMARK       I    between atoms: C_12  and  N_13 
REMARK    3  A    between atoms: N_13  and  N_14 
REMARK       I    between atoms: N_14  and  C_15 
REMARK    4  A    between atoms: C_15  and  C_16 
REMARK    5  A    between atoms: C_16  and  C_17 
REMARK    6  A    between atoms: C_17  and  C_18 
REMARK       I    between atoms: C_18  and  N_19 
REMARK    7  A    between atoms: N_19  and  C_20 
ROOT
HETATM    1  C   UNL     1       7.090  24.936  54.575  1.00  0.00     0.034 A 
HETATM    2  C   UNL     1       7.066  23.838  55.436  1.00  0.00     0.031 A 
HETATM    3  C   UNL     1       7.442  22.568  54.981  1.00  0.00     0.025 A 
HETATM    4  C   UNL     1       7.850  22.386  53.658  1.00  0.00     0.044 A 
HETATM    5  C   UNL     1       8.239  21.087  53.193  1.00  0.00     0.099 C 
HETATM    6  N   UNL     1       8.554  20.037  52.812  1.00  0.00    -0.191 NA
HETATM    7  C   UNL     1       7.876  23.481  52.791  1.00  0.00     0.025 A 
HETATM    8  C   UNL     1       7.494  24.747  53.247  1.00  0.00     0.031 A 
ENDROOT
BRANCH   1   9
HETATM    9  N   UNL     1       6.720  26.242  54.953  1.00  0.00    -0.327 N 
HETATM   10  C   UNL     1       5.634  26.971  54.510  1.00  0.00     0.222 C 
HETATM   11  O   UNL     1       4.771  26.596  53.723  1.00  0.00    -0.273 OA
HETATM   12  H   UNL     1       7.309  26.688  55.660  1.00  0.00     0.169 HD
BRANCH  10  13
HETATM   13  C   UNL     1       5.557  28.357  55.123  1.00  0.00     0.112 C 
BRANCH  13  14
HETATM   14  C   UNL     1       5.207  28.300  56.605  1.00  0.00     0.114 C 
BRANCH  14  15
HETATM   15  C   UNL     1       5.534  29.599  57.312  1.00  0.00     0.236 C 
HETATM   16  N   UNL     1       4.547  30.014  58.175  1.00  0.00    -0.268 N 
HETATM   17  H   UNL     1       3.645  29.544  58.273  1.00  0.00     0.190 HD
HETATM   18  O   UNL     1       6.596  30.201  57.159  1.00  0.00    -0.272 OA
BRANCH  16  19
HETATM   19  N   UNL     1       4.636  31.289  58.745  1.00  0.00    -0.267 N 
HETATM   20  C   UNL     1       3.646  31.663  59.634  1.00  0.00     0.240 C 
HETATM   21  O   UNL     1       2.680  30.939  59.878  1.00  0.00    -0.272 OA
HETATM   22  H   UNL     1       5.538  31.763  58.696  1.00  0.00     0.190 HD
BRANCH  20  23
HETATM   23  C   UNL     1       3.819  33.045  60.213  1.00  0.00     0.146 C 
BRANCH  23  24
HETATM   24  C   UNL     1       4.394  33.134  61.597  1.00  0.00    -0.015 A 
HETATM   25  C   UNL     1       5.727  32.870  62.077  1.00  0.00    -0.000 A 
HETATM   26  C   UNL     1       6.939  32.428  61.496  1.00  0.00     0.021 A 
HETATM   27  C   UNL     1       5.737  33.145  63.445  1.00  0.00     0.043 A 
HETATM   28  C   UNL     1       8.101  32.286  62.278  1.00  0.00    -0.061 A 
HETATM   29  C   UNL     1       9.390  31.858  61.639  1.00  0.00     0.048 C 
HETATM   30  C   UNL     1       8.062  32.598  63.637  1.00  0.00     0.009 A 
HETATM   31  C   UNL     1       6.879  33.021  64.246  1.00  0.00     0.031 A 
HETATM   32  N   UNL     1       4.469  33.532  63.796  1.00  0.00    -0.359 N 
HETATM   33  H   UNL     1       4.192  33.779  64.736  1.00  0.00     0.166 HD
HETATM   34  C   UNL     1       3.649  33.537  62.701  1.00  0.00     0.013 A 
HETATM   35  C   UNL     1       2.217  33.928  62.812  1.00  0.00     0.068 C 
ENDBRANCH  23  24
ENDBRANCH  20  23
ENDBRANCH  16  19
ENDBRANCH  14  15
ENDBRANCH  13  14
ENDBRANCH  10  13
ENDBRANCH   1   9
TORSDOF 7
ENDMDL
MODEL 4
REMARK VINA RESULT:      -9.8      2.300     10.875
REMARK  7 active torsions:
REMARK  status: ('A' for Active; 'I' for Inactive)
REMARK    1  A    between atoms: C_10  and  C_11 
REMARK    2  A    between atoms: C_11  and  C_12 
REMARK       I    between atoms: C_12  and  N_13 
REMARK    3  A    between atoms: N_13  and  N_14 
REMARK       I    between atoms: N_14  and  C_15 
REMARK    4  A    between atoms: C_15  and  C_16 
REMARK    5  A    between atoms: C_16  and  C_17 
REMARK    6  A    between atoms: C_17  and  C_18 
REMARK       I    between atoms: C_18  and  N_19 
REMARK    7  A    between atoms: N_19  and  C_20 
ROOT
HETATM    1  C   UNL     1       7.471  25.115  54.546  1.00  0.00     0.034 A 
HETATM    2  C   UNL     1       7.404  24.051  55.448  1.00  0.00     0.031 A 
HETATM    3  C   UNL     1       7.632  22.738  55.018  1.00  0.00     0.025 A 
HETATM    4  C   UNL     1       7.933  22.477  53.679  1.00  0.00     0.044 A 
HETATM    5  C   UNL     1       8.170  21.134  53.240  1.00  0.00     0.099 C 
HETATM    6  N   UNL     1       8.363  20.048  52.879  1.00  0.00    -0.191 NA
HETATM    7  C   UNL     1       8.002  23.538  52.772  1.00  0.00     0.025 A 
HETATM    8  C   UNL     1       7.767  24.848  53.203  1.00  0.00     0.031 A 
ENDROOT
BRANCH   1   9
HETATM    9  N   UNL     1       7.248  26.461  54.898  1.00  0.00    -0.327 N 
HETATM   10  C   UNL     1       6.105  27.208  54.687  1.00  0.00     0.222 C 
HETATM   11  O   UNL     1       5.059  26.819  54.179  1.00  0.00    -0.273 OA
HETATM   12  H   UNL     1       8.011  26.927  55.393  1.00  0.00     0.169 HD
BRANCH  10  13
HETATM   13  C   UNL     1       6.228  28.636  55.185  1.00  0.00     0.112 C 
BRANCH  13  14
HETATM   14  C   UNL     1       7.466  28.828  56.052  1.00  0.00     0.114 C 
BRANCH  14  15
HETATM   15  C   UNL     1       7.122  29.412  57.406  1.00  0.00     0.236 C 
HETATM   16  N   UNL     1       8.227  29.757  58.148  1.00  0.00    -0.268 N 
HETATM   17  H   UNL     1       9.187  29.564  57.858  1.00  0.00     0.190 HD
HETATM   18  O   UNL     1       5.966  29.598  57.786  1.00  0.00    -0.272 OA
BRANCH  16  19
HETATM   19  N   UNL     1       8.056  30.128  59.486  1.00  0.00    -0.267 N 
HETATM   20  C   UNL     1       8.503  31.380  59.866  1.00  0.00     0.240 C 
HETATM   21  O   UNL     1       9.089  32.128  59.083  1.00  0.00    -0.272 OA
HETATM   22  H   UNL     1       7.387  29.592  60.040  1.00  0.00     0.190 HD
BRANCH  20  23
HETATM   23  C   UNL     1       8.271  31.710  61.320  1.00  0.00     0.146 C 
BRANCH  23  24
HETATM   24  C   UNL     1       7.099  32.593  61.637  1.00  0.00    -0.015 A 
HETATM   25  C   UNL     1       5.981  32.995  60.822  1.00  0.00    -0.000 A 
HETATM   26  C   UNL     1       5.571  32.766  59.487  1.00  0.00     0.021 A 
HETATM   27  C   UNL     1       5.155  33.791  61.617  1.00  0.00     0.043 A 
HETATM   28  C   UNL     1       4.372  33.318  58.999  1.00  0.00    -0.061 A 
HETATM   29  C   UNL     1       3.928  33.029  57.595  1.00  0.00     0.048 C 
HETATM   30  C   UNL     1       3.571  34.087  59.844  1.00  0.00     0.009 A 
HETATM   31  C   UNL     1       3.953  34.347  61.161  1.00  0.00     0.031 A 
HETATM   32  N   UNL     1       5.748  33.898  62.848  1.00  0.00    -0.359 N 
HETATM   33  H   UNL     1       5.366  34.432  63.617  1.00  0.00     0.166 HD
HETATM   34  C   UNL     1       6.913  33.182  62.884  1.00  0.00     0.013 A 
HETATM   35  C   UNL     1       7.748  33.128  64.114  1.00  0.00     0.068 C 
ENDBRANCH  23  24
ENDBRANCH  20  23
ENDBRANCH  16  19
ENDBRANCH  14  15
ENDBRANCH  13  14
ENDBRANCH  10  13
ENDBRANCH   1   9
TORSDOF 7
ENDMDL
MODEL 5
REMARK VINA RESULT:      -9.7      2.045      2.799
REMARK  7 active torsions:
REMARK  status: ('A' for Active; 'I' for Inactive)
REMARK    1  A    between atoms: C_10  and  C_11 
REMARK    2  A    between atoms: C_11  and  C_12 
REMARK       I    between atoms: C_12  and  N_13 
REMARK    3  A    between atoms: N_13  and  N_14 
REMARK       I    between atoms: N_14  and  C_15 
REMARK    4  A    between atoms: C_15  and  C_16 
REMARK    5  A    between atoms: C_16  and  C_17 
REMARK    6  A    between atoms: C_17  and  C_18 
REMARK       I    between atoms: C_18  and  N_19 
REMARK    7  A    between atoms: N_19  and  C_20 
ROOT
HETATM    1  C   UNL     1       7.095  31.948  61.607  1.00  0.00     0.034 A 
HETATM    2  C   UNL     1       8.086  32.254  62.541  1.00  0.00     0.031 A 
HETATM    3  C   UNL     1       7.750  32.828  63.774  1.00  0.00     0.025 A 
HETATM    4  C   UNL     1       6.415  33.097  64.085  1.00  0.00     0.044 A 
HETATM    5  C   UNL     1       6.071  33.680  65.348  1.00  0.00     0.099 C 
HETATM    6  N   UNL     1       5.787  34.153  66.369  1.00  0.00    -0.191 NA
HETATM    7  C   UNL     1       5.418  32.793  63.154  1.00  0.00     0.025 A 
HETATM    8  C   UNL     1       5.759  32.225  61.921  1.00  0.00     0.031 A 
ENDROOT
BRANCH   1   9
HETATM    9  N   UNL     1       7.352  31.377  60.345  1.00  0.00    -0.327 N 
HETATM   10  C   UNL     1       8.392  30.539  59.996  1.00  0.00     0.222 C 
HETATM   11  O   UNL     1       9.271  30.113  60.738  1.00  0.00    -0.273 OA
HETATM   12  H   UNL     1       6.669  31.585  59.612  1.00  0.00     0.169 HD
BRANCH  10  13
HETATM   13  C   UNL     1       8.361  30.128  58.535  1.00  0.00     0.112 C 
BRANCH  13  14
HETATM   14  C   UNL     1       6.972  30.295  57.931  1.00  0.00     0.114 C 
BRANCH  14  15
HETATM   15  C   UNL     1       6.778  29.418  56.711  1.00  0.00     0.236 C 
HETATM   16  N   UNL     1       6.059  30.027  55.709  1.00  0.00    -0.268 N 
HETATM   17  H   UNL     1       5.625  30.945  55.803  1.00  0.00     0.190 HD
HETATM   18  O   UNL     1       7.253  28.286  56.613  1.00  0.00    -0.272 OA
BRANCH  16  19
HETATM   19  N   UNL     1       5.647  29.264  54.612  1.00  0.00    -0.267 N 
HETATM   20  C   UNL     1       4.474  28.543  54.738  1.00  0.00     0.240 C 
HETATM   21  O   UNL     1       3.838  28.512  55.792  1.00  0.00    -0.272 OA
HETATM   22  H   UNL     1       6.063  29.480  53.706  1.00  0.00     0.190 HD
BRANCH  20  23
HETATM   23  C   UNL     1       4.091  27.756  53.509  1.00  0.00     0.146 C 
BRANCH  23  24
HETATM   24  C   UNL     1       5.162  26.914  52.880  1.00  0.00    -0.015 A 
HETATM   25  C   UNL     1       6.059  25.949  53.463  1.00  0.00    -0.000 A 
HETATM   26  C   UNL     1       6.301  25.456  54.767  1.00  0.00     0.021 A 
HETATM   27  C   UNL     1       6.832  25.422  52.427  1.00  0.00     0.043 A 
HETATM   28  C   UNL     1       7.278  24.467  54.991  1.00  0.00    -0.061 A 
HETATM   29  C   UNL     1       7.492  23.922  56.373  1.00  0.00     0.048 C 
HETATM   30  C   UNL     1       8.006  23.958  53.916  1.00  0.00     0.009 A 
HETATM   31  C   UNL     1       7.804  24.434  52.619  1.00  0.00     0.031 A 
HETATM   32  N   UNL     1       6.450  26.051  51.269  1.00  0.00    -0.359 N 
HETATM   33  H   UNL     1       6.860  25.868  50.363  1.00  0.00     0.166 HD
HETATM   34  C   UNL     1       5.446  26.946  51.518  1.00  0.00     0.013 A 
HETATM   35  C   UNL     1       4.847  27.756  50.423  1.00  0.00     0.068 C 
ENDBRANCH  23  24
ENDBRANCH  20  23
ENDBRANCH  16  19
ENDBRANCH  14  15
ENDBRANCH  13  14
ENDBRANCH  10  13
ENDBRANCH   1   9
TORSDOF 7
ENDMDL
MODEL 6
REMARK VINA RESULT:      -9.7      2.112      3.557
REMARK  7 active torsions:
REMARK  status: ('A' for Active; 'I' for Inactive)
REMARK    1  A    between atoms: C_10  and  C_11 
REMARK    2  A    between atoms: C_11  and  C_12 
REMARK       I    between atoms: C_12  and  N_13 
REMARK    3  A    between atoms: N_13  and  N_14 
REMARK       I    between atoms: N_14  and  C_15 
REMARK    4  A    between atoms: C_15  and  C_16 
REMARK    5  A    between atoms: C_16  and  C_17 
REMARK    6  A    between atoms: C_17  and  C_18 
REMARK       I    between atoms: C_18  and  N_19 
REMARK    7  A    between atoms: N_19  and  C_20 
ROOT
HETATM    1  C   UNL     1       6.021  33.854  63.968  1.00  0.00     0.034 A 
HETATM    2  C   UNL     1       4.747  34.045  64.505  1.00  0.00     0.031 A 
HETATM    3  C   UNL     1       4.572  34.199  65.886  1.00  0.00     0.025 A 
HETATM    4  C   UNL     1       5.674  34.168  66.744  1.00  0.00     0.044 A 
HETATM    5  C   UNL     1       5.494  34.330  68.156  1.00  0.00     0.099 C 
HETATM    6  N   UNL     1       5.355  34.460  69.301  1.00  0.00    -0.191 NA
HETATM    7  C   UNL     1       6.952  33.977  66.213  1.00  0.00     0.025 A 
HETATM    8  C   UNL     1       7.123  33.817  64.833  1.00  0.00     0.031 A 
ENDROOT
BRANCH   1   9
HETATM    9  N   UNL     1       6.281  33.684  62.594  1.00  0.00    -0.327 N 
HETATM   10  C   UNL     1       6.551  32.505  61.928  1.00  0.00     0.222 C 
HETATM   11  O   UNL     1       6.584  31.380  62.414  1.00  0.00    -0.273 OA
HETATM   12  H   UNL     1       6.232  34.529  62.021  1.00  0.00     0.169 HD
BRANCH  10  13
HETATM   13  C   UNL     1       6.797  32.703  60.443  1.00  0.00     0.112 C 
BRANCH  13  14
HETATM   14  C   UNL     1       8.199  32.264  60.039  1.00  0.00     0.114 C 
BRANCH  14  15
HETATM   15  C   UNL     1       8.264  30.777  59.755  1.00  0.00     0.236 C 
HETATM   16  N   UNL     1       7.362  30.364  58.802  1.00  0.00    -0.268 N 
HETATM   17  H   UNL     1       6.660  30.976  58.385  1.00  0.00     0.190 HD
HETATM   18  O   UNL     1       9.072  30.022  60.295  1.00  0.00    -0.272 OA
BRANCH  16  19
HETATM   19  N   UNL     1       7.187  28.994  58.585  1.00  0.00    -0.267 N 
HETATM   20  C   UNL     1       7.680  28.464  57.407  1.00  0.00     0.240 C 
HETATM   21  O   UNL     1       8.202  29.170  56.542  1.00  0.00    -0.272 OA
HETATM   22  H   UNL     1       6.958  28.416  59.393  1.00  0.00     0.190 HD
BRANCH  20  23
HETATM   23  C   UNL     1       7.463  26.979  57.252  1.00  0.00     0.146 C 
BRANCH  23  24
HETATM   24  C   UNL     1       6.682  26.529  56.051  1.00  0.00    -0.015 A 
HETATM   25  C   UNL     1       6.929  25.458  55.120  1.00  0.00    -0.000 A 
HETATM   26  C   UNL     1       7.941  24.483  54.949  1.00  0.00     0.021 A 
HETATM   27  C   UNL     1       5.871  25.447  54.210  1.00  0.00     0.043 A 
HETATM   28  C   UNL     1       7.863  23.542  53.905  1.00  0.00    -0.061 A 
HETATM   29  C   UNL     1       8.921  22.487  53.763  1.00  0.00     0.048 C 
HETATM   30  C   UNL     1       6.770  23.561  53.037  1.00  0.00     0.009 A 
HETATM   31  C   UNL     1       5.763  24.519  53.167  1.00  0.00     0.031 A 
HETATM   32  N   UNL     1       5.030  26.477  54.546  1.00  0.00    -0.359 N 
HETATM   33  H   UNL     1       4.185  26.706  54.041  1.00  0.00     0.166 HD
HETATM   34  C   UNL     1       5.495  27.136  55.651  1.00  0.00     0.013 A 
HETATM   35  C   UNL     1       4.758  28.294  56.225  1.00  0.00     0.068 C 
ENDBRANCH  23  24
ENDBRANCH  20  23
ENDBRANCH  16  19
ENDBRANCH  14  15
ENDBRANCH  13  14
ENDBRANCH  10  13
ENDBRANCH   1   9
TORSDOF 7
ENDMDL
MODEL 7
REMARK VINA RESULT:      -9.2      2.343      2.898
REMARK  7 active torsions:
REMARK  status: ('A' for Active; 'I' for Inactive)
REMARK    1  A    between atoms: C_10  and  C_11 
REMARK    2  A    between atoms: C_11  and  C_12 
REMARK       I    between atoms: C_12  and  N_13 
REMARK    3  A    between atoms: N_13  and  N_14 
REMARK       I    between atoms: N_14  and  C_15 
REMARK    4  A    between atoms: C_15  and  C_16 
REMARK    5  A    between atoms: C_16  and  C_17 
REMARK    6  A    between atoms: C_17  and  C_18 
REMARK       I    between atoms: C_18  and  N_19 
REMARK    7  A    between atoms: N_19  and  C_20 
ROOT
HETATM    1  C   UNL     1       5.201  33.186  61.097  1.00  0.00     0.034 A 
HETATM    2  C   UNL     1       4.466  34.241  61.641  1.00  0.00     0.031 A 
HETATM    3  C   UNL     1       4.392  34.416  63.029  1.00  0.00     0.025 A 
HETATM    4  C   UNL     1       5.058  33.537  63.886  1.00  0.00     0.044 A 
HETATM    5  C   UNL     1       4.986  33.719  65.306  1.00  0.00     0.099 C 
HETATM    6  N   UNL     1       4.930  33.861  66.456  1.00  0.00    -0.191 NA
HETATM    7  C   UNL     1       5.795  32.479  63.348  1.00  0.00     0.025 A 
HETATM    8  C   UNL     1       5.862  32.304  61.961  1.00  0.00     0.031 A 
ENDROOT
BRANCH   1   9
HETATM    9  N   UNL     1       5.319  32.938  59.715  1.00  0.00    -0.327 N 
HETATM   10  C   UNL     1       4.335  32.494  58.853  1.00  0.00     0.222 C 
HETATM   11  O   UNL     1       3.164  32.264  59.134  1.00  0.00    -0.273 OA
HETATM   12  H   UNL     1       6.230  33.140  59.300  1.00  0.00     0.169 HD
BRANCH  10  13
HETATM   13  C   UNL     1       4.827  32.323  57.427  1.00  0.00     0.112 C 
BRANCH  13  14
HETATM   14  C   UNL     1       5.819  31.172  57.307  1.00  0.00     0.114 C 
BRANCH  14  15
HETATM   15  C   UNL     1       5.123  29.851  57.057  1.00  0.00     0.236 C 
HETATM   16  N   UNL     1       5.820  28.767  57.539  1.00  0.00    -0.268 N 
HETATM   17  H   UNL     1       6.752  28.831  57.950  1.00  0.00     0.190 HD
HETATM   18  O   UNL     1       4.023  29.761  56.512  1.00  0.00    -0.272 OA
BRANCH  16  19
HETATM   19  N   UNL     1       5.384  27.480  57.208  1.00  0.00    -0.267 N 
HETATM   20  C   UNL     1       6.345  26.551  56.854  1.00  0.00     0.240 C 
HETATM   21  O   UNL     1       7.538  26.847  56.767  1.00  0.00    -0.272 OA
HETATM   22  H   UNL     1       4.443  27.214  57.496  1.00  0.00     0.190 HD
BRANCH  20  23
HETATM   23  C   UNL     1       5.798  25.184  56.523  1.00  0.00     0.146 C 
BRANCH  23  24
HETATM   24  C   UNL     1       6.256  24.564  55.234  1.00  0.00    -0.015 A 
HETATM   25  C   UNL     1       7.081  23.408  54.992  1.00  0.00    -0.000 A 
HETATM   26  C   UNL     1       7.769  22.472  55.800  1.00  0.00     0.021 A 
HETATM   27  C   UNL     1       7.166  23.243  53.608  1.00  0.00     0.043 A 
HETATM   28  C   UNL     1       8.497  21.417  55.217  1.00  0.00    -0.061 A 
HETATM   29  C   UNL     1       9.184  20.407  56.088  1.00  0.00     0.048 C 
HETATM   30  C   UNL     1       8.529  21.285  53.828  1.00  0.00     0.009 A 
HETATM   31  C   UNL     1       7.876  22.200  53.001  1.00  0.00     0.031 A 
HETATM   32  N   UNL     1       6.454  24.261  53.028  1.00  0.00    -0.359 N 
HETATM   33  H   UNL     1       6.359  24.390  52.030  1.00  0.00     0.166 HD
HETATM   34  C   UNL     1       5.895  25.062  53.986  1.00  0.00     0.013 A 
HETATM   35  C   UNL     1       5.063  26.239  53.617  1.00  0.00     0.068 C 
ENDBRANCH  23  24
ENDBRANCH  20  23
ENDBRANCH  16  19
ENDBRANCH  14  15
ENDBRANCH  13  14
ENDBRANCH  10  13
ENDBRANCH   1   9
TORSDOF 7
ENDMDL
MODEL 8
REMARK VINA RESULT:      -9.1      2.183      4.687
REMARK  7 active torsions:
REMARK  status: ('A' for Active; 'I' for Inactive)
REMARK    1  A    between atoms: C_10  and  C_11 
REMARK    2  A    between atoms: C_11  and  C_12 
REMARK       I    between atoms: C_12  and  N_13 
REMARK    3  A    between atoms: N_13  and  N_14 
REMARK       I    between atoms: N_14  and  C_15 
REMARK    4  A    between atoms: C_15  and  C_16 
REMARK    5  A    between atoms: C_16  and  C_17 
REMARK    6  A    between atoms: C_17  and  C_18 
REMARK       I    between atoms: C_18  and  N_19 
REMARK    7  A    between atoms: N_19  and  C_20 
ROOT
HETATM    1  C   UNL     1       5.914  33.762  64.036  1.00  0.00     0.034 A 
HETATM    2  C   UNL     1       4.658  33.918  64.626  1.00  0.00     0.031 A 
HETATM    3  C   UNL     1       4.539  34.101  66.009  1.00  0.00     0.025 A 
HETATM    4  C   UNL     1       5.679  34.134  66.816  1.00  0.00     0.044 A 
HETATM    5  C   UNL     1       5.557  34.326  68.231  1.00  0.00     0.099 C 
HETATM    6  N   UNL     1       5.464  34.480  69.378  1.00  0.00    -0.191 NA
HETATM    7  C   UNL     1       6.938  33.978  66.232  1.00  0.00     0.025 A 
HETATM    8  C   UNL     1       7.053  33.789  64.850  1.00  0.00     0.031 A 
ENDROOT
BRANCH   1   9
HETATM    9  N   UNL     1       6.117  33.566  62.656  1.00  0.00    -0.327 N 
HETATM   10  C   UNL     1       6.442  32.389  62.011  1.00  0.00     0.222 C 
HETATM   11  O   UNL     1       6.583  31.285  62.528  1.00  0.00    -0.273 OA
HETATM   12  H   UNL     1       5.977  34.386  62.062  1.00  0.00     0.169 HD
BRANCH  10  13
HETATM   13  C   UNL     1       6.600  32.555  60.511  1.00  0.00     0.112 C 
BRANCH  13  14
HETATM   14  C   UNL     1       8.019  32.242  60.054  1.00  0.00     0.114 C 
BRANCH  14  15
HETATM   15  C   UNL     1       8.215  30.762  59.796  1.00  0.00     0.236 C 
HETATM   16  N   UNL     1       7.456  30.285  58.754  1.00  0.00    -0.268 N 
HETATM   17  H   UNL     1       6.765  30.846  58.253  1.00  0.00     0.190 HD
HETATM   18  O   UNL     1       9.006  30.066  60.432  1.00  0.00    -0.272 OA
BRANCH  16  19
HETATM   19  N   UNL     1       7.398  28.905  58.535  1.00  0.00    -0.267 N 
HETATM   20  C   UNL     1       8.106  28.397  57.462  1.00  0.00     0.240 C 
HETATM   21  O   UNL     1       8.720  29.125  56.681  1.00  0.00    -0.272 OA
HETATM   22  H   UNL     1       7.074  28.320  59.305  1.00  0.00     0.190 HD
BRANCH  20  23
HETATM   23  C   UNL     1       8.004  26.900  57.299  1.00  0.00     0.146 C 
BRANCH  23  24
HETATM   24  C   UNL     1       7.247  26.397  56.104  1.00  0.00    -0.015 A 
HETATM   25  C   UNL     1       6.217  27.024  55.315  1.00  0.00    -0.000 A 
HETATM   26  C   UNL     1       5.527  28.258  55.354  1.00  0.00     0.021 A 
HETATM   27  C   UNL     1       5.882  26.136  54.291  1.00  0.00     0.043 A 
HETATM   28  C   UNL     1       4.553  28.568  54.386  1.00  0.00    -0.061 A 
HETATM   29  C   UNL     1       3.862  29.900  54.414  1.00  0.00     0.048 C 
HETATM   30  C   UNL     1       4.273  27.654  53.370  1.00  0.00     0.009 A 
HETATM   31  C   UNL     1       4.923  26.419  53.311  1.00  0.00     0.031 A 
HETATM   32  N   UNL     1       6.646  25.010  54.458  1.00  0.00    -0.359 N 
HETATM   33  H   UNL     1       6.596  24.197  53.858  1.00  0.00     0.166 HD
HETATM   34  C   UNL     1       7.477  25.148  55.536  1.00  0.00     0.013 A 
HETATM   35  C   UNL     1       8.417  24.063  55.928  1.00  0.00     0.068 C 
ENDBRANCH  23  24
ENDBRANCH  20  23
ENDBRANCH  16  19
ENDBRANCH  14  15
ENDBRANCH  13  14
ENDBRANCH  10  13
ENDBRANCH   1   9
TORSDOF 7
ENDMDL
MODEL 9
REMARK VINA RESULT:      -9.1      6.084     11.145
REMARK  7 active torsions:
REMARK  status: ('A' for Active; 'I' for Inactive)
REMARK    1  A    between atoms: C_10  and  C_11 
REMARK    2  A    between atoms: C_11  and  C_12 
REMARK       I    between atoms: C_12  and  N_13 
REMARK    3  A    between atoms: N_13  and  N_14 
REMARK       I    between atoms: N_14  and  C_15 
REMARK    4  A    between atoms: C_15  and  C_16 
REMARK    5  A    between atoms: C_16  and  C_17 
REMARK    6  A    between atoms: C_17  and  C_18 
REMARK       I    between atoms: C_18  and  N_19 
REMARK    7  A    between atoms: N_19  and  C_20 
ROOT
HETATM    1  C   UNL     1       0.938  28.910  47.697  1.00  0.00     0.034 A 
HETATM    2  C   UNL     1       0.327  29.770  46.784  1.00  0.00     0.031 A 
HETATM    3  C   UNL     1      -0.271  29.267  45.621  1.00  0.00     0.025 A 
HETATM    4  C   UNL     1      -0.265  27.894  45.363  1.00  0.00     0.044 A 
HETATM    5  C   UNL     1      -0.879  27.380  44.175  1.00  0.00     0.099 C 
HETATM    6  N   UNL     1      -1.375  26.957  43.214  1.00  0.00    -0.191 NA
HETATM    7  C   UNL     1       0.346  27.028  46.272  1.00  0.00     0.025 A 
HETATM    8  C   UNL     1       0.947  27.534  47.430  1.00  0.00     0.031 A 
ENDROOT
BRANCH   1   9
HETATM    9  N   UNL     1       1.566  29.336  48.884  1.00  0.00    -0.327 N 
HETATM   10  C   UNL     1       2.877  29.741  49.044  1.00  0.00     0.222 C 
HETATM   11  O   UNL     1       3.729  29.830  48.166  1.00  0.00    -0.273 OA
HETATM   12  H   UNL     1       0.971  29.380  49.714  1.00  0.00     0.169 HD
BRANCH  10  13
HETATM   13  C   UNL     1       3.211  30.119  50.475  1.00  0.00     0.112 C 
BRANCH  13  14
HETATM   14  C   UNL     1       3.270  28.897  51.384  1.00  0.00     0.114 C 
BRANCH  14  15
HETATM   15  C   UNL     1       4.689  28.576  51.805  1.00  0.00     0.236 C 
HETATM   16  N   UNL     1       4.761  27.629  52.801  1.00  0.00    -0.268 N 
HETATM   17  H   UNL     1       3.943  27.240  53.272  1.00  0.00     0.190 HD
HETATM   18  O   UNL     1       5.679  29.082  51.280  1.00  0.00    -0.272 OA
BRANCH  16  19
HETATM   19  N   UNL     1       5.994  27.382  53.412  1.00  0.00    -0.267 N 
HETATM   20  C   UNL     1       6.210  26.118  53.929  1.00  0.00     0.240 C 
HETATM   21  O   UNL     1       5.336  25.250  53.916  1.00  0.00    -0.272 OA
HETATM   22  H   UNL     1       6.755  28.031  53.215  1.00  0.00     0.190 HD
BRANCH  20  23
HETATM   23  C   UNL     1       7.567  25.926  54.560  1.00  0.00     0.146 C 
BRANCH  23  24
HETATM   24  C   UNL     1       7.738  24.730  55.451  1.00  0.00    -0.015 A 
HETATM   25  C   UNL     1       7.899  23.335  55.128  1.00  0.00    -0.000 A 
HETATM   26  C   UNL     1       7.933  22.573  53.936  1.00  0.00     0.021 A 
HETATM   27  C   UNL     1       8.058  22.647  56.332  1.00  0.00     0.043 A 
HETATM   28  C   UNL     1       8.129  21.180  53.979  1.00  0.00    -0.061 A 
HETATM   29  C   UNL     1       8.206  20.392  52.704  1.00  0.00     0.048 C 
HETATM   30  C   UNL     1       8.306  20.545  55.209  1.00  0.00     0.009 A 
HETATM   31  C   UNL     1       8.262  21.263  56.405  1.00  0.00     0.031 A 
HETATM   32  N   UNL     1       7.971  23.566  57.345  1.00  0.00    -0.359 N 
HETATM   33  H   UNL     1       8.039  23.335  58.327  1.00  0.00     0.166 HD
HETATM   34  C   UNL     1       7.784  24.823  56.839  1.00  0.00     0.013 A 
HETATM   35  C   UNL     1       7.664  26.005  57.735  1.00  0.00     0.068 C 
ENDBRANCH  23  24
ENDBRANCH  20  23
ENDBRANCH  16  19
ENDBRANCH  14  15
ENDBRANCH  13  14
ENDBRANCH  10  13
ENDBRANCH   1   9
TORSDOF 7
ENDMDL
MODEL 10
REMARK VINA RESULT:      -9.1      5.392      9.610
REMARK  7 active torsions:
REMARK  status: ('A' for Active; 'I' for Inactive)
REMARK    1  A    between atoms: C_10  and  C_11 
REMARK    2  A    between atoms: C_11  and  C_12 
REMARK       I    between atoms: C_12  and  N_13 
REMARK    3  A    between atoms: N_13  and  N_14 
REMARK       I    between atoms: N_14  and  C_15 
REMARK    4  A    between atoms: C_15  and  C_16 
REMARK    5  A    between atoms: C_16  and  C_17 
REMARK    6  A    between atoms: C_17  and  C_18 
REMARK       I    between atoms: C_18  and  N_19 
REMARK    7  A    between atoms: N_19  and  C_20 
ROOT
HETATM    1  C   UNL     1       7.290  24.695  55.288  1.00  0.00     0.034 A 
HETATM    2  C   UNL     1       8.018  23.995  56.252  1.00  0.00     0.031 A 
HETATM    3  C   UNL     1       8.422  22.674  56.019  1.00  0.00     0.025 A 
HETATM    4  C   UNL     1       8.103  22.042  54.814  1.00  0.00     0.044 A 
HETATM    5  C   UNL     1       8.519  20.692  54.575  1.00  0.00     0.099 C 
HETATM    6  N   UNL     1       8.854  19.598  54.376  1.00  0.00    -0.191 NA
HETATM    7  C   UNL     1       7.375  22.737  53.846  1.00  0.00     0.025 A 
HETATM    8  C   UNL     1       6.968  24.055  54.084  1.00  0.00     0.031 A 
ENDROOT
BRANCH   1   9
HETATM    9  N   UNL     1       6.842  26.021  55.448  1.00  0.00    -0.327 N 
HETATM   10  C   UNL     1       5.760  26.461  56.185  1.00  0.00     0.222 C 
HETATM   11  O   UNL     1       5.006  25.770  56.864  1.00  0.00    -0.273 OA
HETATM   12  H   UNL     1       7.403  26.742  54.989  1.00  0.00     0.169 HD
BRANCH  10  13
HETATM   13  C   UNL     1       5.565  27.964  56.118  1.00  0.00     0.112 C 
BRANCH  13  14
HETATM   14  C   UNL     1       4.215  28.332  55.514  1.00  0.00     0.114 C 
BRANCH  14  15
HETATM   15  C   UNL     1       4.254  28.330  54.001  1.00  0.00     0.236 C 
HETATM   16  N   UNL     1       3.969  27.103  53.449  1.00  0.00    -0.268 N 
HETATM   17  H   UNL     1       3.827  26.254  53.999  1.00  0.00     0.190 HD
HETATM   18  O   UNL     1       4.479  29.337  53.331  1.00  0.00    -0.272 OA
BRANCH  16  19
HETATM   19  N   UNL     1       4.158  26.917  52.076  1.00  0.00    -0.267 N 
HETATM   20  C   UNL     1       5.439  26.637  51.638  1.00  0.00     0.240 C 
HETATM   21  O   UNL     1       6.400  26.611  52.408  1.00  0.00    -0.272 OA
HETATM   22  H   UNL     1       3.331  26.729  51.509  1.00  0.00     0.190 HD
BRANCH  20  23
HETATM   23  C   UNL     1       5.559  26.438  50.147  1.00  0.00     0.146 C 
BRANCH  23  24
HETATM   24  C   UNL     1       4.717  27.322  49.274  1.00  0.00    -0.015 A 
HETATM   25  C   UNL     1       4.749  28.749  49.078  1.00  0.00    -0.000 A 
HETATM   26  C   UNL     1       5.505  29.824  49.604  1.00  0.00     0.021 A 
HETATM   27  C   UNL     1       3.776  29.058  48.126  1.00  0.00     0.043 A 
HETATM   28  C   UNL     1       5.279  31.143  49.167  1.00  0.00    -0.061 A 
HETATM   29  C   UNL     1       6.119  32.265  49.702  1.00  0.00     0.048 C 
HETATM   30  C   UNL     1       4.310  31.393  48.196  1.00  0.00     0.009 A 
HETATM   31  C   UNL     1       3.534  30.359  47.668  1.00  0.00     0.031 A 
HETATM   32  N   UNL     1       3.157  27.886  47.775  1.00  0.00    -0.359 N 
HETATM   33  H   UNL     1       2.400  27.822  47.108  1.00  0.00     0.166 HD
HETATM   34  C   UNL     1       3.711  26.831  48.448  1.00  0.00     0.013 A 
HETATM   35  C   UNL     1       3.221  25.441  48.240  1.00  0.00     0.068 C 
ENDBRANCH  23  24
ENDBRANCH  20  23
ENDBRANCH  16  19
ENDBRANCH  14  15
ENDBRANCH  13  14
ENDBRANCH  10  13
ENDBRANCH   1   9
TORSDOF 7
ENDMDL
