MODEL 1
REMARK VINA RESULT:      -7.8      0.000      0.000
REMARK  5 active torsions:
REMARK  status: ('A' for Active; 'I' for Inactive)
REMARK    1  A    between atoms: C_8  and  C_9 
REMARK    2  A    between atoms: C_11  and  O_12 
REMARK    3  A    between atoms: C_14  and  O_15 
REMARK    4  A    between atoms: C_18  and  C_19 
REMARK    5  A    between atoms: C_22  and  O_23 
ROOT
HETATM    1  C   UNL     1       8.374  23.461  53.488  1.00  0.00     0.070 C 
HETATM    2  C   UNL     1       8.109  23.930  54.867  1.00  0.00     0.033 A 
HETATM    3  N   UNL     1       8.316  23.116  55.951  1.00  0.00    -0.282 N 
HETATM    4  H   UNL     1       8.630  22.152  55.957  1.00  0.00     0.189 HD
HETATM    5  N   UNL     1       8.117  23.722  57.131  1.00  0.00    -0.179 NA
HETATM    6  C   UNL     1       7.704  24.943  56.790  1.00  0.00     0.066 A 
HETATM    7  C   UNL     1       7.647  25.129  55.382  1.00  0.00     0.001 A 
HETATM    8  C   UNL     1       7.299  26.452  54.759  1.00  0.00     0.070 C 
HETATM    9  C   UNL     1       6.738  27.471  55.788  1.00  0.00     0.102 C 
HETATM   10  C   UNL     1       7.473  27.413  57.159  1.00  0.00     0.071 C 
HETATM   11  C   UNL     1       8.938  27.867  57.013  1.00  0.00     0.047 C 
HETATM   12  C   UNL     1       7.405  25.998  57.797  1.00  0.00     0.100 C 
ENDROOT
BRANCH   8  13
HETATM   13  C   UNL     1       6.424  26.272  53.526  1.00  0.00    -0.046 A 
HETATM   14  C   UNL     1       6.454  27.136  52.413  1.00  0.00     0.047 A 
HETATM   15  C   UNL     1       5.640  26.898  51.303  1.00  0.00     0.101 A 
HETATM   16  C   UNL     1       4.851  25.748  51.267  1.00  0.00     0.099 A 
HETATM   17  C   UNL     1       4.817  24.868  52.337  1.00  0.00     0.040 A 
HETATM   18  C   UNL     1       5.593  25.134  53.465  1.00  0.00     0.011 A 
BRANCH  15  19
HETATM   19  O   UNL     1       5.575  27.702  50.194  1.00  0.00    -0.353 OA
HETATM   20  C   UNL     1       5.381  29.084  50.489  1.00  0.00     0.210 C 
ENDBRANCH  15  19
BRANCH  16  21
HETATM   21  O   UNL     1       4.087  25.470  50.169  1.00  0.00    -0.358 OA
HETATM   22  H   UNL     1       3.282  26.013  50.281  1.00  0.00     0.218 HD
ENDBRANCH  16  21
ENDBRANCH   8  13
BRANCH   9  23
HETATM   23  C   UNL     1       5.230  27.315  56.011  1.00  0.00     0.131 C 
HETATM   24  C   UNL     1       4.340  28.347  55.363  1.00  0.00     0.091 C 
HETATM   25  O   UNL     1       4.746  26.407  56.690  1.00  0.00    -0.298 OA
ENDBRANCH   9  23
BRANCH  10  26
HETATM   26  O   UNL     1       6.859  28.378  58.033  1.00  0.00    -0.389 OA
HETATM   27  H   UNL     1       7.569  28.894  58.458  1.00  0.00     0.210 HD
ENDBRANCH  10  26
TORSDOF 5
ENDMDL
MODEL 2
REMARK VINA RESULT:      -7.8      2.928      5.805
REMARK  5 active torsions:
REMARK  status: ('A' for Active; 'I' for Inactive)
REMARK    1  A    between atoms: C_8  and  C_9 
REMARK    2  A    between atoms: C_11  and  O_12 
REMARK    3  A    between atoms: C_14  and  O_15 
REMARK    4  A    between atoms: C_18  and  C_19 
REMARK    5  A    between atoms: C_22  and  O_23 
ROOT
HETATM    1  C   UNL     1       4.828  29.013  53.777  1.00  0.00     0.070 C 
HETATM    2  C   UNL     1       4.908  27.544  53.608  1.00  0.00     0.033 A 
HETATM    3  N   UNL     1       3.866  26.828  53.078  1.00  0.00    -0.282 N 
HETATM    4  H   UNL     1       2.961  27.172  52.776  1.00  0.00     0.189 HD
HETATM    5  N   UNL     1       4.134  25.524  52.907  1.00  0.00    -0.179 NA
HETATM    6  C   UNL     1       5.364  25.390  53.406  1.00  0.00     0.066 A 
HETATM    7  C   UNL     1       5.894  26.616  53.892  1.00  0.00     0.001 A 
HETATM    8  C   UNL     1       7.299  26.732  54.416  1.00  0.00     0.070 C 
HETATM    9  C   UNL     1       7.973  25.350  54.637  1.00  0.00     0.102 C 
HETATM   10  C   UNL     1       7.631  24.324  53.517  1.00  0.00     0.071 C 
HETATM   11  C   UNL     1       8.227  24.769  52.168  1.00  0.00     0.047 C 
HETATM   12  C   UNL     1       6.100  24.096  53.384  1.00  0.00     0.100 C 
ENDROOT
BRANCH   8  13
HETATM   13  C   UNL     1       7.365  27.653  55.626  1.00  0.00    -0.046 A 
HETATM   14  C   UNL     1       8.440  28.527  55.885  1.00  0.00     0.047 A 
HETATM   15  C   UNL     1       8.426  29.364  57.004  1.00  0.00     0.101 A 
HETATM   16  C   UNL     1       7.297  29.390  57.824  1.00  0.00     0.099 A 
HETATM   17  C   UNL     1       6.215  28.558  57.582  1.00  0.00     0.040 A 
HETATM   18  C   UNL     1       6.254  27.688  56.493  1.00  0.00     0.011 A 
BRANCH  15  19
HETATM   19  O   UNL     1       9.439  30.218  57.355  1.00  0.00    -0.353 OA
HETATM   20  C   UNL     1      10.734  29.783  56.942  1.00  0.00     0.210 C 
ENDBRANCH  15  19
BRANCH  16  21
HETATM   21  O   UNL     1       7.242  30.239  58.893  1.00  0.00    -0.358 OA
HETATM   22  H   UNL     1       7.957  30.886  58.735  1.00  0.00     0.218 HD
ENDBRANCH  16  21
ENDBRANCH   8  13
BRANCH   9  23
HETATM   23  C   UNL     1       7.641  24.743  56.004  1.00  0.00     0.131 C 
HETATM   24  C   UNL     1       8.746  24.747  57.031  1.00  0.00     0.091 C 
HETATM   25  O   UNL     1       6.539  24.261  56.270  1.00  0.00    -0.298 OA
ENDBRANCH   9  23
BRANCH  10  26
HETATM   26  O   UNL     1       8.289  23.084  53.835  1.00  0.00    -0.389 OA
HETATM   27  H   UNL     1       8.435  22.598  53.003  1.00  0.00     0.210 HD
ENDBRANCH  10  26
TORSDOF 5
ENDMDL
MODEL 3
REMARK VINA RESULT:      -7.3      8.861     11.260
REMARK  5 active torsions:
REMARK  status: ('A' for Active; 'I' for Inactive)
REMARK    1  A    between atoms: C_8  and  C_9 
REMARK    2  A    between atoms: C_11  and  O_12 
REMARK    3  A    between atoms: C_14  and  O_15 
REMARK    4  A    between atoms: C_18  and  C_19 
REMARK    5  A    between atoms: C_22  and  O_23 
ROOT
HETATM    1  C   UNL     1       7.180  33.737  65.158  1.00  0.00     0.070 C 
HETATM    2  C   UNL     1       5.774  33.834  64.701  1.00  0.00     0.033 A 
HETATM    3  N   UNL     1       4.735  33.884  65.593  1.00  0.00    -0.282 N 
HETATM    4  H   UNL     1       4.778  33.842  66.606  1.00  0.00     0.189 HD
HETATM    5  N   UNL     1       3.535  34.064  65.020  1.00  0.00    -0.179 NA
HETATM    6  C   UNL     1       3.810  34.062  63.715  1.00  0.00     0.066 A 
HETATM    7  C   UNL     1       5.195  33.889  63.446  1.00  0.00     0.001 A 
HETATM    8  C   UNL     1       5.756  33.946  62.053  1.00  0.00     0.070 C 
HETATM    9  C   UNL     1       4.653  33.913  60.959  1.00  0.00     0.102 C 
HETATM   10  C   UNL     1       3.399  34.754  61.340  1.00  0.00     0.071 C 
HETATM   11  C   UNL     1       3.749  36.253  61.410  1.00  0.00     0.047 C 
HETATM   12  C   UNL     1       2.765  34.282  62.677  1.00  0.00     0.100 C 
ENDROOT
BRANCH   8  13
HETATM   13  C   UNL     1       6.854  32.910  61.855  1.00  0.00    -0.046 A 
HETATM   14  C   UNL     1       7.937  33.078  60.969  1.00  0.00     0.047 A 
HETATM   15  C   UNL     1       8.924  32.096  60.854  1.00  0.00     0.101 A 
HETATM   16  C   UNL     1       8.875  30.977  61.685  1.00  0.00     0.099 A 
HETATM   17  C   UNL     1       7.835  30.793  62.582  1.00  0.00     0.040 A 
HETATM   18  C   UNL     1       6.824  31.752  62.659  1.00  0.00     0.011 A 
BRANCH  15  19
HETATM   19  O   UNL     1       9.992  32.157  59.995  1.00  0.00    -0.353 OA
HETATM   20  C   UNL     1       9.728  31.612  58.703  1.00  0.00     0.210 C 
ENDBRANCH  15  19
BRANCH  16  21
HETATM   21  O   UNL     1       9.859  30.030  61.624  1.00  0.00    -0.358 OA
HETATM   22  H   UNL     1       9.553  29.314  62.214  1.00  0.00     0.218 HD
ENDBRANCH  16  21
ENDBRANCH   8  13
BRANCH   9  23
HETATM   23  C   UNL     1       4.220  32.488  60.599  1.00  0.00     0.131 C 
HETATM   24  C   UNL     1       4.629  31.981  59.238  1.00  0.00     0.091 C 
HETATM   25  O   UNL     1       3.563  31.777  61.362  1.00  0.00    -0.298 OA
ENDBRANCH   9  23
BRANCH  10  26
HETATM   26  O   UNL     1       2.443  34.634  60.270  1.00  0.00    -0.389 OA
HETATM   27  H   UNL     1       2.348  33.688  60.056  1.00  0.00     0.210 HD
ENDBRANCH  10  26
TORSDOF 5
ENDMDL
MODEL 4
REMARK VINA RESULT:      -6.6      8.683     10.668
REMARK  5 active torsions:
REMARK  status: ('A' for Active; 'I' for Inactive)
REMARK    1  A    between atoms: C_8  and  C_9 
REMARK    2  A    between atoms: C_11  and  O_12 
REMARK    3  A    between atoms: C_14  and  O_15 
REMARK    4  A    between atoms: C_18  and  C_19 
REMARK    5  A    between atoms: C_22  and  O_23 
ROOT
HETATM    1  C   UNL     1       7.771  32.630  60.789  1.00  0.00     0.070 C 
HETATM    2  C   UNL     1       7.245  33.039  62.111  1.00  0.00     0.033 A 
HETATM    3  N   UNL     1       7.836  32.621  63.275  1.00  0.00    -0.282 N 
HETATM    4  H   UNL     1       8.635  32.006  63.385  1.00  0.00     0.189 HD
HETATM    5  N   UNL     1       7.293  33.154  64.381  1.00  0.00    -0.179 NA
HETATM    6  C   UNL     1       6.281  33.884  63.912  1.00  0.00     0.066 A 
HETATM    7  C   UNL     1       6.176  33.829  62.496  1.00  0.00     0.001 A 
HETATM    8  C   UNL     1       5.169  34.643  61.732  1.00  0.00     0.070 C 
HETATM    9  C   UNL     1       4.101  35.294  62.653  1.00  0.00     0.102 C 
HETATM   10  C   UNL     1       4.698  35.827  63.989  1.00  0.00     0.071 C 
HETATM   11  C   UNL     1       5.664  36.998  63.726  1.00  0.00     0.047 C 
HETATM   12  C   UNL     1       5.411  34.708  64.796  1.00  0.00     0.100 C 
ENDROOT
BRANCH   8  13
HETATM   13  C   UNL     1       4.585  33.854  60.569  1.00  0.00    -0.046 A 
HETATM   14  C   UNL     1       4.389  34.390  59.281  1.00  0.00     0.047 A 
HETATM   15  C   UNL     1       3.870  33.602  58.251  1.00  0.00     0.101 A 
HETATM   16  C   UNL     1       3.619  32.250  58.485  1.00  0.00     0.099 A 
HETATM   17  C   UNL     1       3.821  31.688  59.735  1.00  0.00     0.040 A 
HETATM   18  C   UNL     1       4.294  32.490  60.775  1.00  0.00     0.011 A 
BRANCH  15  19
HETATM   19  O   UNL     1       3.613  34.046  56.979  1.00  0.00    -0.353 OA
HETATM   20  C   UNL     1       4.763  34.540  56.294  1.00  0.00     0.210 C 
ENDBRANCH  15  19
BRANCH  16  21
HETATM   21  O   UNL     1       3.159  31.450  57.476  1.00  0.00    -0.358 OA
HETATM   22  H   UNL     1       3.694  30.634  57.541  1.00  0.00     0.218 HD
ENDBRANCH  16  21
ENDBRANCH   8  13
BRANCH   9  23
HETATM   23  C   UNL     1       2.931  34.353  62.958  1.00  0.00     0.131 C 
HETATM   24  C   UNL     1       1.654  34.592  62.191  1.00  0.00     0.091 C 
HETATM   25  O   UNL     1       3.003  33.447  63.790  1.00  0.00    -0.298 OA
ENDBRANCH   9  23
BRANCH  10  26
HETATM   26  O   UNL     1       3.622  36.386  64.764  1.00  0.00    -0.389 OA
HETATM   27  H   UNL     1       2.919  36.664  64.148  1.00  0.00     0.210 HD
ENDBRANCH  10  26
TORSDOF 5
ENDMDL
MODEL 5
REMARK VINA RESULT:      -6.5      8.912     12.181
REMARK  5 active torsions:
REMARK  status: ('A' for Active; 'I' for Inactive)
REMARK    1  A    between atoms: C_8  and  C_9 
REMARK    2  A    between atoms: C_11  and  O_12 
REMARK    3  A    between atoms: C_14  and  O_15 
REMARK    4  A    between atoms: C_18  and  C_19 
REMARK    5  A    between atoms: C_22  and  O_23 
ROOT
HETATM    1  C   UNL     1       7.609  32.658  63.002  1.00  0.00     0.070 C 
HETATM    2  C   UNL     1       7.186  32.666  61.583  1.00  0.00     0.033 A 
HETATM    3  N   UNL     1       8.057  32.340  60.576  1.00  0.00    -0.282 N 
HETATM    4  H   UNL     1       9.037  32.091  60.653  1.00  0.00     0.189 HD
HETATM    5  N   UNL     1       7.492  32.306  59.359  1.00  0.00    -0.179 NA
HETATM    6  C   UNL     1       6.235  32.688  59.587  1.00  0.00     0.066 A 
HETATM    7  C   UNL     1       5.986  32.960  60.960  1.00  0.00     0.001 A 
HETATM    8  C   UNL     1       4.619  33.317  61.473  1.00  0.00     0.070 C 
HETATM    9  C   UNL     1       3.614  33.638  60.332  1.00  0.00     0.102 C 
HETATM   10  C   UNL     1       3.775  32.697  59.102  1.00  0.00     0.071 C 
HETATM   11  C   UNL     1       3.401  31.249  59.471  1.00  0.00     0.047 C 
HETATM   12  C   UNL     1       5.210  32.752  58.510  1.00  0.00     0.100 C 
ENDROOT
BRANCH   8  13
HETATM   13  C   UNL     1       4.694  34.390  62.551  1.00  0.00    -0.046 A 
HETATM   14  C   UNL     1       3.985  34.326  63.767  1.00  0.00     0.047 A 
HETATM   15  C   UNL     1       4.119  35.334  64.725  1.00  0.00     0.101 A 
HETATM   16  C   UNL     1       5.025  36.372  64.503  1.00  0.00     0.099 A 
HETATM   17  C   UNL     1       5.752  36.451  63.326  1.00  0.00     0.040 A 
HETATM   18  C   UNL     1       5.580  35.468  62.351  1.00  0.00     0.011 A 
BRANCH  15  19
HETATM   19  O   UNL     1       3.444  35.375  65.918  1.00  0.00    -0.353 OA
HETATM   20  C   UNL     1       3.980  34.507  66.917  1.00  0.00     0.210 C 
ENDBRANCH  15  19
BRANCH  16  21
HETATM   21  O   UNL     1       5.208  37.340  65.450  1.00  0.00    -0.358 OA
HETATM   22  H   UNL     1       6.128  37.644  65.322  1.00  0.00     0.218 HD
ENDBRANCH  16  21
ENDBRANCH   8  13
BRANCH   9  23
HETATM   23  C   UNL     1       3.692  35.097  59.870  1.00  0.00     0.131 C 
HETATM   24  C   UNL     1       2.624  36.028  60.390  1.00  0.00     0.091 C 
HETATM   25  O   UNL     1       4.566  35.510  59.106  1.00  0.00    -0.298 OA
ENDBRANCH   9  23
BRANCH  10  26
HETATM   26  O   UNL     1       2.814  33.098  58.108  1.00  0.00    -0.389 OA
HETATM   27  H   UNL     1       3.300  33.326  57.294  1.00  0.00     0.210 HD
ENDBRANCH  10  26
TORSDOF 5
ENDMDL
MODEL 6
REMARK VINA RESULT:      -6.5      2.705      4.207
REMARK  5 active torsions:
REMARK  status: ('A' for Active; 'I' for Inactive)
REMARK    1  A    between atoms: C_8  and  C_9 
REMARK    2  A    between atoms: C_11  and  O_12 
REMARK    3  A    between atoms: C_14  and  O_15 
REMARK    4  A    between atoms: C_18  and  C_19 
REMARK    5  A    between atoms: C_22  and  O_23 
ROOT
HETATM    1  C   UNL     1       3.474  29.851  53.237  1.00  0.00     0.070 C 
HETATM    2  C   UNL     1       4.561  29.415  54.144  1.00  0.00     0.033 A 
HETATM    3  N   UNL     1       5.056  30.244  55.117  1.00  0.00    -0.282 N 
HETATM    4  H   UNL     1       4.786  31.200  55.319  1.00  0.00     0.189 HD
HETATM    5  N   UNL     1       5.971  29.665  55.909  1.00  0.00    -0.179 NA
HETATM    6  C   UNL     1       6.114  28.448  55.384  1.00  0.00     0.066 A 
HETATM    7  C   UNL     1       5.280  28.238  54.253  1.00  0.00     0.001 A 
HETATM    8  C   UNL     1       5.200  26.911  53.550  1.00  0.00     0.070 C 
HETATM    9  C   UNL     1       6.314  25.926  53.997  1.00  0.00     0.102 C 
HETATM   10  C   UNL     1       6.603  25.992  55.525  1.00  0.00     0.071 C 
HETATM   11  C   UNL     1       5.385  25.501  56.332  1.00  0.00     0.047 C 
HETATM   12  C   UNL     1       7.012  27.420  55.979  1.00  0.00     0.100 C 
ENDROOT
BRANCH   8  13
HETATM   13  C   UNL     1       5.100  27.089  52.041  1.00  0.00    -0.046 A 
HETATM   14  C   UNL     1       5.512  28.254  51.362  1.00  0.00     0.047 A 
HETATM   15  C   UNL     1       5.415  28.341  49.971  1.00  0.00     0.101 A 
HETATM   16  C   UNL     1       4.981  27.231  49.245  1.00  0.00     0.099 A 
HETATM   17  C   UNL     1       4.590  26.064  49.882  1.00  0.00     0.040 A 
HETATM   18  C   UNL     1       4.642  25.998  51.275  1.00  0.00     0.011 A 
BRANCH  15  19
HETATM   19  O   UNL     1       5.756  29.443  49.230  1.00  0.00    -0.353 OA
HETATM   20  C   UNL     1       5.728  30.667  49.965  1.00  0.00     0.210 C 
ENDBRANCH  15  19
BRANCH  16  21
HETATM   21  O   UNL     1       4.928  27.279  47.880  1.00  0.00    -0.358 OA
HETATM   22  H   UNL     1       4.021  27.579  47.676  1.00  0.00     0.218 HD
ENDBRANCH  16  21
ENDBRANCH   8  13
BRANCH   9  23
HETATM   23  C   UNL     1       7.622  26.123  53.223  1.00  0.00     0.131 C 
HETATM   24  C   UNL     1       8.035  25.004  52.299  1.00  0.00     0.091 C 
HETATM   25  O   UNL     1       8.322  27.129  53.340  1.00  0.00    -0.298 OA
ENDBRANCH   9  23
BRANCH  10  26
HETATM   26  O   UNL     1       7.658  25.059  55.819  1.00  0.00    -0.389 OA
HETATM   27  H   UNL     1       7.303  24.157  55.705  1.00  0.00     0.210 HD
ENDBRANCH  10  26
TORSDOF 5
ENDMDL
MODEL 7
REMARK VINA RESULT:      -6.4      8.371     10.496
REMARK  5 active torsions:
REMARK  status: ('A' for Active; 'I' for Inactive)
REMARK    1  A    between atoms: C_8  and  C_9 
REMARK    2  A    between atoms: C_11  and  O_12 
REMARK    3  A    between atoms: C_14  and  O_15 
REMARK    4  A    between atoms: C_18  and  C_19 
REMARK    5  A    between atoms: C_22  and  O_23 
ROOT
HETATM    1  C   UNL     1       7.711  32.709  60.406  1.00  0.00     0.070 C 
HETATM    2  C   UNL     1       7.133  32.948  61.748  1.00  0.00     0.033 A 
HETATM    3  N   UNL     1       7.665  32.367  62.870  1.00  0.00    -0.282 N 
HETATM    4  H   UNL     1       8.449  31.727  62.930  1.00  0.00     0.189 HD
HETATM    5  N   UNL     1       7.082  32.760  64.013  1.00  0.00    -0.179 NA
HETATM    6  C   UNL     1       6.102  33.566  63.603  1.00  0.00     0.066 A 
HETATM    7  C   UNL     1       6.059  33.702  62.189  1.00  0.00     0.001 A 
HETATM    8  C   UNL     1       5.100  34.632  61.500  1.00  0.00     0.070 C 
HETATM    9  C   UNL     1       4.002  35.176  62.454  1.00  0.00     0.102 C 
HETATM   10  C   UNL     1       4.546  35.514  63.873  1.00  0.00     0.071 C 
HETATM   11  C   UNL     1       5.540  36.690  63.810  1.00  0.00     0.047 C 
HETATM   12  C   UNL     1       5.206  34.283  64.552  1.00  0.00     0.100 C 
ENDROOT
BRANCH   8  13
HETATM   13  C   UNL     1       4.556  34.016  60.218  1.00  0.00    -0.046 A 
HETATM   14  C   UNL     1       4.337  32.635  60.046  1.00  0.00     0.047 A 
HETATM   15  C   UNL     1       3.812  32.139  58.850  1.00  0.00     0.101 A 
HETATM   16  C   UNL     1       3.426  33.033  57.850  1.00  0.00     0.099 A 
HETATM   17  C   UNL     1       3.608  34.398  57.999  1.00  0.00     0.040 A 
HETATM   18  C   UNL     1       4.179  34.886  59.175  1.00  0.00     0.011 A 
BRANCH  15  19
HETATM   19  O   UNL     1       3.600  30.811  58.579  1.00  0.00    -0.353 OA
HETATM   20  C   UNL     1       4.665  30.188  57.863  1.00  0.00     0.210 C 
ENDBRANCH  15  19
BRANCH  16  21
HETATM   21  O   UNL     1       2.862  32.571  56.693  1.00  0.00    -0.358 OA
HETATM   22  H   UNL     1       1.922  32.828  56.755  1.00  0.00     0.218 HD
ENDBRANCH  16  21
ENDBRANCH   8  13
BRANCH   9  23
HETATM   23  C   UNL     1       2.805  34.227  62.580  1.00  0.00     0.131 C 
HETATM   24  C   UNL     1       1.537  34.641  61.876  1.00  0.00     0.091 C 
HETATM   25  O   UNL     1       2.850  33.179  63.227  1.00  0.00    -0.298 OA
ENDBRANCH   9  23
BRANCH  10  26
HETATM   26  O   UNL     1       3.445  35.987  64.670  1.00  0.00    -0.389 OA
HETATM   27  H   UNL     1       2.622  35.623  64.293  1.00  0.00     0.210 HD
ENDBRANCH  10  26
TORSDOF 5
ENDMDL
MODEL 8
REMARK VINA RESULT:      -6.3      8.535     11.218
REMARK  5 active torsions:
REMARK  status: ('A' for Active; 'I' for Inactive)
REMARK    1  A    between atoms: C_8  and  C_9 
REMARK    2  A    between atoms: C_11  and  O_12 
REMARK    3  A    between atoms: C_14  and  O_15 
REMARK    4  A    between atoms: C_18  and  C_19 
REMARK    5  A    between atoms: C_22  and  O_23 
ROOT
HETATM    1  C   UNL     1       5.171  32.331  58.282  1.00  0.00     0.070 C 
HETATM    2  C   UNL     1       4.657  33.580  58.892  1.00  0.00     0.033 A 
HETATM    3  N   UNL     1       4.204  34.618  58.120  1.00  0.00    -0.282 N 
HETATM    4  H   UNL     1       4.181  34.681  57.108  1.00  0.00     0.189 HD
HETATM    5  N   UNL     1       3.688  35.635  58.827  1.00  0.00    -0.179 NA
HETATM    6  C   UNL     1       3.879  35.263  60.094  1.00  0.00     0.066 A 
HETATM    7  C   UNL     1       4.513  33.996  60.203  1.00  0.00     0.001 A 
HETATM    8  C   UNL     1       4.749  33.328  61.529  1.00  0.00     0.070 C 
HETATM    9  C   UNL     1       4.505  34.279  62.733  1.00  0.00     0.102 C 
HETATM   10  C   UNL     1       3.275  35.211  62.527  1.00  0.00     0.071 C 
HETATM   11  C   UNL     1       1.971  34.393  62.484  1.00  0.00     0.047 C 
HETATM   12  C   UNL     1       3.411  36.081  61.247  1.00  0.00     0.100 C 
ENDROOT
BRANCH   8  13
HETATM   13  C   UNL     1       6.098  32.622  61.562  1.00  0.00    -0.046 A 
HETATM   14  C   UNL     1       7.185  32.976  60.738  1.00  0.00     0.047 A 
HETATM   15  C   UNL     1       8.404  32.301  60.837  1.00  0.00     0.101 A 
HETATM   16  C   UNL     1       8.567  31.323  61.819  1.00  0.00     0.099 A 
HETATM   17  C   UNL     1       7.523  30.968  62.658  1.00  0.00     0.040 A 
HETATM   18  C   UNL     1       6.291  31.609  62.524  1.00  0.00     0.011 A 
BRANCH  15  19
HETATM   19  O   UNL     1       9.503  32.551  60.056  1.00  0.00    -0.353 OA
HETATM   20  C   UNL     1       9.588  31.727  58.894  1.00  0.00     0.210 C 
ENDBRANCH  15  19
BRANCH  16  21
HETATM   21  O   UNL     1       9.768  30.688  61.966  1.00  0.00    -0.358 OA
HETATM   22  H   UNL     1      10.138  31.043  62.798  1.00  0.00     0.218 HD
ENDBRANCH  16  21
ENDBRANCH   8  13
BRANCH   9  23
HETATM   23  C   UNL     1       5.735  35.125  63.075  1.00  0.00     0.131 C 
HETATM   24  C   UNL     1       6.465  34.773  64.347  1.00  0.00     0.091 C 
HETATM   25  O   UNL     1       6.121  36.058  62.369  1.00  0.00    -0.298 OA
ENDBRANCH   9  23
BRANCH  10  26
HETATM   26  O   UNL     1       3.159  36.055  63.687  1.00  0.00    -0.389 OA
HETATM   27  H   UNL     1       3.480  36.944  63.447  1.00  0.00     0.210 HD
ENDBRANCH  10  26
TORSDOF 5
ENDMDL
MODEL 9
REMARK VINA RESULT:      -6.1     11.242     13.224
REMARK  5 active torsions:
REMARK  status: ('A' for Active; 'I' for Inactive)
REMARK    1  A    between atoms: C_8  and  C_9 
REMARK    2  A    between atoms: C_11  and  O_12 
REMARK    3  A    between atoms: C_14  and  O_15 
REMARK    4  A    between atoms: C_18  and  C_19 
REMARK    5  A    between atoms: C_22  and  O_23 
ROOT
HETATM    1  C   UNL     1       4.431  34.644  59.588  1.00  0.00     0.070 C 
HETATM    2  C   UNL     1       4.419  33.885  60.859  1.00  0.00     0.033 A 
HETATM    3  N   UNL     1       3.820  32.656  60.952  1.00  0.00    -0.282 N 
HETATM    4  H   UNL     1       3.322  32.147  60.229  1.00  0.00     0.189 HD
HETATM    5  N   UNL     1       3.978  32.062  62.145  1.00  0.00    -0.179 NA
HETATM    6  C   UNL     1       4.644  32.971  62.859  1.00  0.00     0.066 A 
HETATM    7  C   UNL     1       4.924  34.152  62.120  1.00  0.00     0.001 A 
HETATM    8  C   UNL     1       5.743  35.278  62.685  1.00  0.00     0.070 C 
HETATM    9  C   UNL     1       5.983  35.139  64.213  1.00  0.00     0.102 C 
HETATM   10  C   UNL     1       6.253  33.669  64.652  1.00  0.00     0.071 C 
HETATM   11  C   UNL     1       7.582  33.160  64.062  1.00  0.00     0.047 C 
HETATM   12  C   UNL     1       5.087  32.721  64.258  1.00  0.00     0.100 C 
ENDROOT
BRANCH   8  13
HETATM   13  C   UNL     1       5.187  36.632  62.267  1.00  0.00    -0.046 A 
HETATM   14  C   UNL     1       5.993  37.726  61.893  1.00  0.00     0.047 A 
HETATM   15  C   UNL     1       5.415  38.935  61.496  1.00  0.00     0.101 A 
HETATM   16  C   UNL     1       4.027  39.029  61.395  1.00  0.00     0.099 A 
HETATM   17  C   UNL     1       3.209  37.964  61.735  1.00  0.00     0.040 A 
HETATM   18  C   UNL     1       3.787  36.774  62.178  1.00  0.00     0.011 A 
BRANCH  15  19
HETATM   19  O   UNL     1       6.117  40.061  61.150  1.00  0.00    -0.353 OA
HETATM   20  C   UNL     1       7.328  40.239  61.885  1.00  0.00     0.210 C 
ENDBRANCH  15  19
BRANCH  16  21
HETATM   21  O   UNL     1       3.445  40.187  60.959  1.00  0.00    -0.358 OA
HETATM   22  H   UNL     1       3.945  40.431  60.156  1.00  0.00     0.218 HD
ENDBRANCH  16  21
ENDBRANCH   8  13
BRANCH   9  23
HETATM   23  C   UNL     1       4.833  35.716  65.046  1.00  0.00     0.131 C 
HETATM   24  C   UNL     1       5.056  37.080  65.651  1.00  0.00     0.091 C 
HETATM   25  O   UNL     1       3.776  35.111  65.234  1.00  0.00    -0.298 OA
ENDBRANCH   9  23
BRANCH  10  26
HETATM   26  O   UNL     1       6.438  33.659  66.079  1.00  0.00    -0.389 OA
HETATM   27  H   UNL     1       5.559  33.599  66.497  1.00  0.00     0.210 HD
ENDBRANCH  10  26
TORSDOF 5
ENDMDL
MODEL 10
REMARK VINA RESULT:      -6.1      3.861      7.488
REMARK  5 active torsions:
REMARK  status: ('A' for Active; 'I' for Inactive)
REMARK    1  A    between atoms: C_8  and  C_9 
REMARK    2  A    between atoms: C_11  and  O_12 
REMARK    3  A    between atoms: C_14  and  O_15 
REMARK    4  A    between atoms: C_18  and  C_19 
REMARK    5  A    between atoms: C_22  and  O_23 
ROOT
HETATM    1  C   UNL     1       4.554  25.730  50.304  1.00  0.00     0.070 C 
HETATM    2  C   UNL     1       4.778  26.776  49.279  1.00  0.00     0.033 A 
HETATM    3  N   UNL     1       5.332  26.476  48.062  1.00  0.00    -0.282 N 
HETATM    4  H   UNL     1       5.660  25.576  47.729  1.00  0.00     0.189 HD
HETATM    5  N   UNL     1       5.381  27.517  47.216  1.00  0.00    -0.179 NA
HETATM    6  C   UNL     1       4.905  28.530  47.941  1.00  0.00     0.066 A 
HETATM    7  C   UNL     1       4.538  28.138  49.256  1.00  0.00     0.001 A 
HETATM    8  C   UNL     1       3.891  29.087  50.226  1.00  0.00     0.070 C 
HETATM    9  C   UNL     1       3.944  30.564  49.748  1.00  0.00     0.102 C 
HETATM   10  C   UNL     1       3.702  30.713  48.217  1.00  0.00     0.071 C 
HETATM   11  C   UNL     1       2.264  30.300  47.850  1.00  0.00     0.047 C 
HETATM   12  C   UNL     1       4.729  29.899  47.383  1.00  0.00     0.100 C 
ENDROOT
BRANCH   8  13
HETATM   13  C   UNL     1       4.412  28.875  51.641  1.00  0.00    -0.046 A 
HETATM   14  C   UNL     1       5.733  28.483  51.936  1.00  0.00     0.047 A 
HETATM   15  C   UNL     1       6.153  28.331  53.260  1.00  0.00     0.101 A 
HETATM   16  C   UNL     1       5.276  28.649  54.297  1.00  0.00     0.099 A 
HETATM   17  C   UNL     1       3.978  29.059  54.038  1.00  0.00     0.040 A 
HETATM   18  C   UNL     1       3.546  29.162  52.715  1.00  0.00     0.011 A 
BRANCH  15  19
HETATM   19  O   UNL     1       7.405  27.920  53.641  1.00  0.00    -0.353 OA
HETATM   20  C   UNL     1       7.638  26.524  53.458  1.00  0.00     0.210 C 
ENDBRANCH  15  19
BRANCH  16  21
HETATM   21  O   UNL     1       5.684  28.557  55.598  1.00  0.00    -0.358 OA
HETATM   22  H   UNL     1       4.907  28.214  56.080  1.00  0.00     0.218 HD
ENDBRANCH  16  21
ENDBRANCH   8  13
BRANCH   9  23
HETATM   23  C   UNL     1       5.256  31.259  50.127  1.00  0.00     0.131 C 
HETATM   24  C   UNL     1       5.158  32.392  51.119  1.00  0.00     0.091 C 
HETATM   25  O   UNL     1       6.345  30.935  49.651  1.00  0.00    -0.298 OA
ENDBRANCH   9  23
BRANCH  10  26
HETATM   26  O   UNL     1       3.795  32.111  47.888  1.00  0.00    -0.389 OA
HETATM   27  H   UNL     1       4.287  32.557  48.602  1.00  0.00     0.210 HD
ENDBRANCH  10  26
TORSDOF 5
ENDMDL
