MODEL 1
REMARK VINA RESULT:      -9.6      0.000      0.000
REMARK  6 active torsions:
REMARK  status: ('A' for Active; 'I' for Inactive)
REMARK    1  A    between atoms: O_2  and  C_3 
REMARK    2  A    between atoms: C_6  and  C_7 
REMARK    3  A    between atoms: C_13  and  C_14 
REMARK       I    between atoms: C_14  and  N_15 
REMARK    4  A    between atoms: N_15  and  C_16 
REMARK    5  A    between atoms: C_16  and  C_17 
REMARK    6  A    between atoms: C_24  and  C_25 
ROOT
HETATM    1  C   UNL     1       7.809  27.662  53.762  1.00  0.00     0.118 C 
HETATM    2  N   UNL     1       8.002  28.374  55.032  1.00  0.00    -0.365 N 
HETATM    3  C   UNL     1       6.942  28.894  55.709  1.00  0.00     0.138 A 
HETATM    4  N   UNL     1       5.713  29.019  55.103  1.00  0.00    -0.240 N 
HETATM    5  N   UNL     1       4.778  29.593  55.874  1.00  0.00    -0.181 NA
HETATM    6  C   UNL     1       5.401  29.736  57.047  1.00  0.00     0.160 A 
HETATM    7  C   UNL     1       6.762  29.339  57.006  1.00  0.00     0.096 A 
HETATM    8  C   UNL     1       5.398  28.578  53.758  1.00  0.00     0.221 C 
HETATM    9  C   UNL     1       6.689  28.344  52.956  1.00  0.00     0.066 C 
HETATM   10  H   UNL     1       8.811  28.031  55.548  1.00  0.00     0.161 HD
ENDROOT
BRANCH   7  11
HETATM   11  C   UNL     1       7.679  29.379  58.124  1.00  0.00     0.257 C 
HETATM   12  N   UNL     1       7.491  30.409  59.015  1.00  0.00    -0.352 N 
HETATM   13  H   UNL     1       6.679  31.004  58.914  1.00  0.00     0.163 HD
HETATM   14  O   UNL     1       8.554  28.531  58.270  1.00  0.00    -0.267 OA
BRANCH  12  15
HETATM   15  C   UNL     1       8.373  30.568  60.145  1.00  0.00     0.161 C 
BRANCH  15  16
HETATM   16  C   UNL     1       7.894  31.607  61.125  1.00  0.00    -0.041 A 
HETATM   17  C   UNL     1       6.812  32.445  60.815  1.00  0.00     0.009 A 
HETATM   18  C   UNL     1       6.329  33.358  61.756  1.00  0.00     0.001 A 
HETATM   19  C   UNL     1       6.911  33.432  63.019  1.00  0.00     0.000 A 
HETATM   20  C   UNL     1       7.978  32.597  63.344  1.00  0.00     0.001 A 
HETATM   21  C   UNL     1       8.467  31.688  62.403  1.00  0.00     0.009 A 
ENDBRANCH  15  16
ENDBRANCH  12  15
ENDBRANCH   7  11
BRANCH   1  22
HETATM   22  C   UNL     1       7.675  26.158  53.942  1.00  0.00    -0.035 A 
HETATM   23  C   UNL     1       7.420  25.557  55.187  1.00  0.00     0.012 A 
HETATM   24  C   UNL     1       7.330  24.167  55.325  1.00  0.00     0.037 A 
HETATM   25  C   UNL     1       7.495  23.340  54.219  1.00  0.00     0.068 A 
HETATM   26  C   UNL     1       7.761  23.917  52.977  1.00  0.00     0.037 A 
HETATM   27  C   UNL     1       7.857  25.307  52.839  1.00  0.00     0.012 A 
BRANCH  25  28
HETATM   28  O   UNL     1       7.429  21.974  54.220  1.00  0.00    -0.356 OA
HETATM   29  C   UNL     1       7.959  21.308  53.079  1.00  0.00     0.210 C 
ENDBRANCH  25  28
ENDBRANCH   1  22
BRANCH   8  30
HETATM   30  C   UNL     1       4.478  27.373  53.804  1.00  0.00     0.409 C 
HETATM   31  F   UNL     1       4.720  26.463  52.842  1.00  0.00    -0.169 F 
HETATM   32  F   UNL     1       4.538  26.731  54.994  1.00  0.00    -0.169 F 
HETATM   33  F   UNL     1       3.186  27.772  53.660  1.00  0.00    -0.169 F 
ENDBRANCH   8  30
TORSDOF 6
ENDMDL
MODEL 2
REMARK VINA RESULT:      -9.5      5.138      9.167
REMARK  6 active torsions:
REMARK  status: ('A' for Active; 'I' for Inactive)
REMARK    1  A    between atoms: O_2  and  C_3 
REMARK    2  A    between atoms: C_6  and  C_7 
REMARK    3  A    between atoms: C_13  and  C_14 
REMARK       I    between atoms: C_14  and  N_15 
REMARK    4  A    between atoms: N_15  and  C_16 
REMARK    5  A    between atoms: C_16  and  C_17 
REMARK    6  A    between atoms: C_24  and  C_25 
ROOT
HETATM    1  C   UNL     1       5.006  25.583  54.116  1.00  0.00     0.118 C 
HETATM    2  N   UNL     1       4.498  25.930  52.783  1.00  0.00    -0.365 N 
HETATM    3  C   UNL     1       4.980  27.013  52.113  1.00  0.00     0.138 A 
HETATM    4  N   UNL     1       5.734  27.963  52.761  1.00  0.00    -0.240 N 
HETATM    5  N   UNL     1       6.096  28.997  51.988  1.00  0.00    -0.181 NA
HETATM    6  C   UNL     1       5.653  28.638  50.780  1.00  0.00     0.160 A 
HETATM    7  C   UNL     1       4.928  27.420  50.792  1.00  0.00     0.096 A 
HETATM    8  C   UNL     1       6.140  27.899  54.152  1.00  0.00     0.221 C 
HETATM    9  C   UNL     1       5.285  26.871  54.911  1.00  0.00     0.066 C 
HETATM   10  H   UNL     1       4.189  25.111  52.261  1.00  0.00     0.161 HD
ENDROOT
BRANCH   7  11
HETATM   11  C   UNL     1       4.335  26.787  49.634  1.00  0.00     0.257 C 
HETATM   12  N   UNL     1       4.050  27.621  48.577  1.00  0.00    -0.352 N 
HETATM   13  H   UNL     1       4.361  28.582  48.613  1.00  0.00     0.163 HD
HETATM   14  O   UNL     1       4.121  25.579  49.598  1.00  0.00    -0.267 OA
BRANCH  12  15
HETATM   15  C   UNL     1       3.421  27.102  47.388  1.00  0.00     0.161 C 
BRANCH  15  16
HETATM   16  C   UNL     1       2.153  27.831  47.027  1.00  0.00    -0.041 A 
HETATM   17  C   UNL     1       2.138  29.227  46.888  1.00  0.00     0.009 A 
HETATM   18  C   UNL     1       0.976  29.889  46.485  1.00  0.00     0.001 A 
HETATM   19  C   UNL     1      -0.179  29.162  46.205  1.00  0.00     0.000 A 
HETATM   20  C   UNL     1      -0.175  27.774  46.328  1.00  0.00     0.001 A 
HETATM   21  C   UNL     1       0.984  27.111  46.736  1.00  0.00     0.009 A 
ENDBRANCH  15  16
ENDBRANCH  12  15
ENDBRANCH   7  11
BRANCH   1  22
HETATM   22  C   UNL     1       6.142  24.572  54.071  1.00  0.00    -0.035 A 
HETATM   23  C   UNL     1       6.659  24.057  52.870  1.00  0.00     0.012 A 
HETATM   24  C   UNL     1       7.686  23.106  52.864  1.00  0.00     0.037 A 
HETATM   25  C   UNL     1       8.222  22.643  54.061  1.00  0.00     0.068 A 
HETATM   26  C   UNL     1       7.713  23.133  55.263  1.00  0.00     0.037 A 
HETATM   27  C   UNL     1       6.682  24.081  55.271  1.00  0.00     0.012 A 
BRANCH  25  28
HETATM   28  O   UNL     1       9.225  21.722  54.190  1.00  0.00    -0.356 OA
HETATM   29  C   UNL     1       8.843  20.352  54.146  1.00  0.00     0.210 C 
ENDBRANCH  25  28
ENDBRANCH   1  22
BRANCH   8  30
HETATM   30  C   UNL     1       7.632  27.648  54.251  1.00  0.00     0.409 C 
HETATM   31  F   UNL     1       8.123  26.870  53.268  1.00  0.00    -0.169 F 
HETATM   32  F   UNL     1       8.344  28.798  54.252  1.00  0.00    -0.169 F 
HETATM   33  F   UNL     1       7.919  27.030  55.429  1.00  0.00    -0.169 F 
ENDBRANCH   8  30
TORSDOF 6
ENDMDL
MODEL 3
REMARK VINA RESULT:      -9.3      1.564      2.347
REMARK  6 active torsions:
REMARK  status: ('A' for Active; 'I' for Inactive)
REMARK    1  A    between atoms: O_2  and  C_3 
REMARK    2  A    between atoms: C_6  and  C_7 
REMARK    3  A    between atoms: C_13  and  C_14 
REMARK       I    between atoms: C_14  and  N_15 
REMARK    4  A    between atoms: N_15  and  C_16 
REMARK    5  A    between atoms: C_16  and  C_17 
REMARK    6  A    between atoms: C_24  and  C_25 
ROOT
HETATM    1  C   UNL     1       7.974  25.864  53.151  1.00  0.00     0.118 C 
HETATM    2  N   UNL     1       8.074  26.775  54.298  1.00  0.00    -0.365 N 
HETATM    3  C   UNL     1       6.956  27.288  54.881  1.00  0.00     0.138 A 
HETATM    4  N   UNL     1       5.734  27.202  54.257  1.00  0.00    -0.240 N 
HETATM    5  N   UNL     1       4.734  27.795  54.925  1.00  0.00    -0.181 NA
HETATM    6  C   UNL     1       5.317  28.173  56.066  1.00  0.00     0.160 A 
HETATM    7  C   UNL     1       6.709  27.906  56.094  1.00  0.00     0.096 A 
HETATM    8  C   UNL     1       5.488  26.534  52.994  1.00  0.00     0.221 C 
HETATM    9  C   UNL     1       6.812  26.306  52.244  1.00  0.00     0.066 C 
HETATM   10  H   UNL     1       8.901  26.594  54.866  1.00  0.00     0.161 HD
ENDROOT
BRANCH   7  11
HETATM   11  C   UNL     1       7.596  28.203  57.198  1.00  0.00     0.257 C 
HETATM   12  N   UNL     1       8.120  29.475  57.219  1.00  0.00    -0.352 N 
HETATM   13  H   UNL     1       7.785  30.154  56.549  1.00  0.00     0.163 HD
HETATM   14  O   UNL     1       7.844  27.373  58.067  1.00  0.00    -0.267 OA
BRANCH  12  15
HETATM   15  C   UNL     1       9.047  29.866  58.251  1.00  0.00     0.161 C 
BRANCH  15  16
HETATM   16  C   UNL     1       8.416  30.727  59.314  1.00  0.00    -0.041 A 
HETATM   17  C   UNL     1       9.032  30.899  60.563  1.00  0.00     0.009 A 
HETATM   18  C   UNL     1       8.476  31.754  61.517  1.00  0.00     0.001 A 
HETATM   19  C   UNL     1       7.309  32.457  61.229  1.00  0.00     0.000 A 
HETATM   20  C   UNL     1       6.693  32.305  59.988  1.00  0.00     0.001 A 
HETATM   21  C   UNL     1       7.244  31.446  59.035  1.00  0.00     0.009 A 
ENDBRANCH  15  16
ENDBRANCH  12  15
ENDBRANCH   7  11
BRANCH   1  22
HETATM   22  C   UNL     1       7.978  24.398  53.559  1.00  0.00    -0.035 A 
HETATM   23  C   UNL     1       7.842  23.348  52.635  1.00  0.00     0.012 A 
HETATM   24  C   UNL     1       7.821  22.010  53.045  1.00  0.00     0.037 A 
HETATM   25  C   UNL     1       7.932  21.688  54.394  1.00  0.00     0.068 A 
HETATM   26  C   UNL     1       8.054  22.717  55.327  1.00  0.00     0.037 A 
HETATM   27  C   UNL     1       8.071  24.056  54.918  1.00  0.00     0.012 A 
BRANCH  25  28
HETATM   28  O   UNL     1       7.927  20.426  54.921  1.00  0.00    -0.356 OA
HETATM   29  C   UNL     1       8.658  20.236  56.127  1.00  0.00     0.210 C 
ENDBRANCH  25  28
ENDBRANCH   1  22
BRANCH   8  30
HETATM   30  C   UNL     1       4.685  25.268  53.218  1.00  0.00     0.409 C 
HETATM   31  F   UNL     1       4.819  24.354  52.239  1.00  0.00    -0.169 F 
HETATM   32  F   UNL     1       5.004  24.662  54.386  1.00  0.00    -0.169 F 
HETATM   33  F   UNL     1       3.361  25.570  53.304  1.00  0.00    -0.169 F 
ENDBRANCH   8  30
TORSDOF 6
ENDMDL
MODEL 4
REMARK VINA RESULT:      -9.0      3.189      8.032
REMARK  6 active torsions:
REMARK  status: ('A' for Active; 'I' for Inactive)
REMARK    1  A    between atoms: O_2  and  C_3 
REMARK    2  A    between atoms: C_6  and  C_7 
REMARK    3  A    between atoms: C_13  and  C_14 
REMARK       I    between atoms: C_14  and  N_15 
REMARK    4  A    between atoms: N_15  and  C_16 
REMARK    5  A    between atoms: C_16  and  C_17 
REMARK    6  A    between atoms: C_24  and  C_25 
ROOT
HETATM    1  C   UNL     1       5.861  27.499  57.013  1.00  0.00     0.118 C 
HETATM    2  N   UNL     1       5.750  26.621  55.842  1.00  0.00    -0.365 N 
HETATM    3  C   UNL     1       5.094  27.031  54.722  1.00  0.00     0.138 A 
HETATM    4  N   UNL     1       4.286  28.144  54.747  1.00  0.00    -0.240 N 
HETATM    5  N   UNL     1       3.667  28.397  53.585  1.00  0.00    -0.181 NA
HETATM    6  C   UNL     1       4.184  27.482  52.762  1.00  0.00     0.160 A 
HETATM    7  C   UNL     1       5.066  26.583  53.413  1.00  0.00     0.096 A 
HETATM    8  C   UNL     1       4.092  29.007  55.895  1.00  0.00     0.221 C 
HETATM    9  C   UNL     1       4.557  28.301  57.179  1.00  0.00     0.066 C 
HETATM   10  H   UNL     1       6.542  25.985  55.758  1.00  0.00     0.161 HD
ENDROOT
BRANCH   7  11
HETATM   11  C   UNL     1       5.774  25.494  52.775  1.00  0.00     0.257 C 
HETATM   12  N   UNL     1       7.058  25.276  53.218  1.00  0.00    -0.352 N 
HETATM   13  H   UNL     1       7.396  25.794  54.019  1.00  0.00     0.163 HD
HETATM   14  O   UNL     1       5.249  24.802  51.909  1.00  0.00    -0.267 OA
BRANCH  12  15
HETATM   15  C   UNL     1       7.870  24.243  52.625  1.00  0.00     0.161 C 
BRANCH  15  16
HETATM   16  C   UNL     1       7.927  22.988  53.456  1.00  0.00    -0.041 A 
HETATM   17  C   UNL     1       7.791  23.041  54.852  1.00  0.00     0.009 A 
HETATM   18  C   UNL     1       7.775  21.868  55.609  1.00  0.00     0.001 A 
HETATM   19  C   UNL     1       7.880  20.630  54.980  1.00  0.00     0.000 A 
HETATM   20  C   UNL     1       8.003  20.562  53.594  1.00  0.00     0.001 A 
HETATM   21  C   UNL     1       8.026  21.734  52.835  1.00  0.00     0.009 A 
ENDBRANCH  15  16
ENDBRANCH  12  15
ENDBRANCH   7  11
BRANCH   1  22
HETATM   22  C   UNL     1       7.146  28.314  57.022  1.00  0.00    -0.035 A 
HETATM   23  C   UNL     1       8.033  28.353  55.931  1.00  0.00     0.012 A 
HETATM   24  C   UNL     1       9.221  29.090  55.981  1.00  0.00     0.037 A 
HETATM   25  C   UNL     1       9.556  29.806  57.126  1.00  0.00     0.068 A 
HETATM   26  C   UNL     1       8.695  29.769  58.222  1.00  0.00     0.037 A 
HETATM   27  C   UNL     1       7.508  29.028  58.176  1.00  0.00     0.012 A 
BRANCH  25  28
HETATM   28  O   UNL     1      10.682  30.564  57.299  1.00  0.00    -0.356 OA
HETATM   29  C   UNL     1      10.609  31.602  58.269  1.00  0.00     0.210 C 
ENDBRANCH  25  28
ENDBRANCH   1  22
BRANCH   8  30
HETATM   30  C   UNL     1       4.756  30.350  55.659  1.00  0.00     0.409 C 
HETATM   31  F   UNL     1       5.212  30.940  56.780  1.00  0.00    -0.169 F 
HETATM   32  F   UNL     1       5.796  30.260  54.797  1.00  0.00    -0.169 F 
HETATM   33  F   UNL     1       3.870  31.210  55.088  1.00  0.00    -0.169 F 
ENDBRANCH   8  30
TORSDOF 6
ENDMDL
MODEL 5
REMARK VINA RESULT:      -8.8      2.972      4.404
REMARK  6 active torsions:
REMARK  status: ('A' for Active; 'I' for Inactive)
REMARK    1  A    between atoms: O_2  and  C_3 
REMARK    2  A    between atoms: C_6  and  C_7 
REMARK    3  A    between atoms: C_13  and  C_14 
REMARK       I    between atoms: C_14  and  N_15 
REMARK    4  A    between atoms: N_15  and  C_16 
REMARK    5  A    between atoms: C_16  and  C_17 
REMARK    6  A    between atoms: C_24  and  C_25 
ROOT
HETATM    1  C   UNL     1       4.470  26.242  53.443  1.00  0.00     0.118 C 
HETATM    2  N   UNL     1       4.658  27.026  54.670  1.00  0.00    -0.365 N 
HETATM    3  C   UNL     1       5.816  26.942  55.381  1.00  0.00     0.138 A 
HETATM    4  N   UNL     1       6.717  25.932  55.142  1.00  0.00    -0.240 N 
HETATM    5  N   UNL     1       7.786  25.947  55.951  1.00  0.00    -0.181 NA
HETATM    6  C   UNL     1       7.614  27.069  56.655  1.00  0.00     0.160 A 
HETATM    7  C   UNL     1       6.392  27.727  56.364  1.00  0.00     0.096 A 
HETATM    8  C   UNL     1       6.581  24.920  54.112  1.00  0.00     0.221 C 
HETATM    9  C   UNL     1       5.129  24.861  53.610  1.00  0.00     0.066 C 
HETATM   10  H   UNL     1       4.139  27.904  54.652  1.00  0.00     0.161 HD
ENDROOT
BRANCH   7  11
HETATM   11  C   UNL     1       5.941  28.962  56.968  1.00  0.00     0.257 C 
HETATM   12  N   UNL     1       6.921  29.742  57.536  1.00  0.00    -0.352 N 
HETATM   13  H   UNL     1       7.890  29.481  57.410  1.00  0.00     0.163 HD
HETATM   14  O   UNL     1       4.760  29.294  56.953  1.00  0.00    -0.267 OA
BRANCH  12  15
HETATM   15  C   UNL     1       6.579  30.975  58.201  1.00  0.00     0.161 C 
BRANCH  15  16
HETATM   16  C   UNL     1       7.445  31.256  59.402  1.00  0.00    -0.041 A 
HETATM   17  C   UNL     1       7.149  32.316  60.271  1.00  0.00     0.009 A 
HETATM   18  C   UNL     1       7.916  32.528  61.420  1.00  0.00     0.001 A 
HETATM   19  C   UNL     1       8.975  31.675  61.719  1.00  0.00     0.000 A 
HETATM   20  C   UNL     1       9.273  30.611  60.870  1.00  0.00     0.001 A 
HETATM   21  C   UNL     1       8.512  30.401  59.718  1.00  0.00     0.009 A 
ENDBRANCH  15  16
ENDBRANCH  12  15
ENDBRANCH   7  11
BRANCH   1  22
HETATM   22  C   UNL     1       4.850  27.011  52.187  1.00  0.00    -0.035 A 
HETATM   23  C   UNL     1       5.274  28.351  52.210  1.00  0.00     0.012 A 
HETATM   24  C   UNL     1       5.590  29.039  51.033  1.00  0.00     0.037 A 
HETATM   25  C   UNL     1       5.487  28.404  49.799  1.00  0.00     0.068 A 
HETATM   26  C   UNL     1       5.057  27.079  49.755  1.00  0.00     0.037 A 
HETATM   27  C   UNL     1       4.735  26.391  50.931  1.00  0.00     0.012 A 
BRANCH  25  28
HETATM   28  O   UNL     1       5.768  28.963  48.583  1.00  0.00    -0.356 OA
HETATM   29  C   UNL     1       5.320  28.250  47.435  1.00  0.00     0.210 C 
ENDBRANCH  25  28
ENDBRANCH   1  22
BRANCH   8  30
HETATM   30  C   UNL     1       7.600  25.149  53.014  1.00  0.00     0.409 C 
HETATM   31  F   UNL     1       7.160  24.828  51.783  1.00  0.00    -0.169 F 
HETATM   32  F   UNL     1       8.024  26.434  52.971  1.00  0.00    -0.169 F 
HETATM   33  F   UNL     1       8.710  24.398  53.249  1.00  0.00    -0.169 F 
ENDBRANCH   8  30
TORSDOF 6
ENDMDL
MODEL 6
REMARK VINA RESULT:      -8.7      4.865      7.258
REMARK  6 active torsions:
REMARK  status: ('A' for Active; 'I' for Inactive)
REMARK    1  A    between atoms: O_2  and  C_3 
REMARK    2  A    between atoms: C_6  and  C_7 
REMARK    3  A    between atoms: C_13  and  C_14 
REMARK       I    between atoms: C_14  and  N_15 
REMARK    4  A    between atoms: N_15  and  C_16 
REMARK    5  A    between atoms: C_16  and  C_17 
REMARK    6  A    between atoms: C_24  and  C_25 
ROOT
HETATM    1  C   UNL     1       5.884  29.577  50.714  1.00  0.00     0.118 C 
HETATM    2  N   UNL     1       6.017  29.136  52.108  1.00  0.00    -0.365 N 
HETATM    3  C   UNL     1       5.040  29.402  53.019  1.00  0.00     0.138 A 
HETATM    4  N   UNL     1       4.052  30.317  52.744  1.00  0.00    -0.240 N 
HETATM    5  N   UNL     1       3.190  30.512  53.753  1.00  0.00    -0.181 NA
HETATM    6  C   UNL     1       3.577  29.610  54.658  1.00  0.00     0.160 A 
HETATM    7  C   UNL     1       4.740  28.898  54.272  1.00  0.00     0.096 A 
HETATM    8  C   UNL     1       3.899  31.029  51.490  1.00  0.00     0.221 C 
HETATM    9  C   UNL     1       5.200  30.955  50.673  1.00  0.00     0.066 C 
HETATM   10  H   UNL     1       6.568  28.283  52.194  1.00  0.00     0.161 HD
ENDROOT
BRANCH   7  11
HETATM   11  C   UNL     1       5.384  27.861  55.049  1.00  0.00     0.257 C 
HETATM   12  N   UNL     1       5.056  26.569  54.708  1.00  0.00    -0.352 N 
HETATM   13  H   UNL     1       4.489  26.407  53.886  1.00  0.00     0.163 HD
HETATM   14  O   UNL     1       6.185  28.125  55.939  1.00  0.00    -0.267 OA
BRANCH  12  15
HETATM   15  C   UNL     1       5.608  25.458  55.442  1.00  0.00     0.161 C 
BRANCH  15  16
HETATM   16  C   UNL     1       6.475  24.564  54.594  1.00  0.00    -0.041 A 
HETATM   17  C   UNL     1       6.725  24.869  53.247  1.00  0.00     0.009 A 
HETATM   18  C   UNL     1       7.586  24.075  52.487  1.00  0.00     0.001 A 
HETATM   19  C   UNL     1       8.217  22.977  53.067  1.00  0.00     0.000 A 
HETATM   20  C   UNL     1       7.987  22.669  54.406  1.00  0.00     0.001 A 
HETATM   21  C   UNL     1       7.121  23.459  55.166  1.00  0.00     0.009 A 
ENDBRANCH  15  16
ENDBRANCH  12  15
ENDBRANCH   7  11
BRANCH   1  22
HETATM   22  C   UNL     1       5.282  28.510  49.811  1.00  0.00    -0.035 A 
HETATM   23  C   UNL     1       4.852  27.260  50.289  1.00  0.00     0.012 A 
HETATM   24  C   UNL     1       4.327  26.289  49.428  1.00  0.00     0.037 A 
HETATM   25  C   UNL     1       4.223  26.542  48.064  1.00  0.00     0.068 A 
HETATM   26  C   UNL     1       4.657  27.772  47.570  1.00  0.00     0.037 A 
HETATM   27  C   UNL     1       5.186  28.743  48.429  1.00  0.00     0.012 A 
BRANCH  25  28
HETATM   28  O   UNL     1       3.729  25.682  47.122  1.00  0.00    -0.356 OA
HETATM   29  C   UNL     1       2.825  24.684  47.582  1.00  0.00     0.210 C 
ENDBRANCH  25  28
ENDBRANCH   1  22
BRANCH   8  30
HETATM   30  C   UNL     1       2.678  30.525  50.746  1.00  0.00     0.409 C 
HETATM   31  F   UNL     1       2.802  30.558  49.406  1.00  0.00    -0.169 F 
HETATM   32  F   UNL     1       2.358  29.256  51.093  1.00  0.00    -0.169 F 
HETATM   33  F   UNL     1       1.596  31.284  51.066  1.00  0.00    -0.169 F 
ENDBRANCH   8  30
TORSDOF 6
ENDMDL
MODEL 7
REMARK VINA RESULT:      -8.6      5.733      8.509
REMARK  6 active torsions:
REMARK  status: ('A' for Active; 'I' for Inactive)
REMARK    1  A    between atoms: O_2  and  C_3 
REMARK    2  A    between atoms: C_6  and  C_7 
REMARK    3  A    between atoms: C_13  and  C_14 
REMARK       I    between atoms: C_14  and  N_15 
REMARK    4  A    between atoms: N_15  and  C_16 
REMARK    5  A    between atoms: C_16  and  C_17 
REMARK    6  A    between atoms: C_24  and  C_25 
ROOT
HETATM    1  C   UNL     1       5.247  28.496  48.829  1.00  0.00     0.118 C 
HETATM    2  N   UNL     1       5.685  27.485  49.799  1.00  0.00    -0.365 N 
HETATM    3  C   UNL     1       5.460  27.652  51.131  1.00  0.00     0.138 A 
HETATM    4  N   UNL     1       5.081  28.875  51.633  1.00  0.00    -0.240 N 
HETATM    5  N   UNL     1       4.945  28.902  52.966  1.00  0.00    -0.181 NA
HETATM    6  C   UNL     1       5.135  27.627  53.314  1.00  0.00     0.160 A 
HETATM    7  C   UNL     1       5.482  26.797  52.218  1.00  0.00     0.096 A 
HETATM    8  C   UNL     1       4.827  30.060  50.837  1.00  0.00     0.221 C 
HETATM    9  C   UNL     1       5.433  29.900  49.433  1.00  0.00     0.066 C 
HETATM   10  H   UNL     1       5.691  26.546  49.402  1.00  0.00     0.161 HD
ENDROOT
BRANCH   7  11
HETATM   11  C   UNL     1       5.742  25.375  52.293  1.00  0.00     0.257 C 
HETATM   12  N   UNL     1       7.057  25.018  52.478  1.00  0.00    -0.352 N 
HETATM   13  H   UNL     1       7.742  25.740  52.660  1.00  0.00     0.163 HD
HETATM   14  O   UNL     1       4.838  24.549  52.216  1.00  0.00    -0.267 OA
BRANCH  12  15
HETATM   15  C   UNL     1       7.436  23.627  52.528  1.00  0.00     0.161 C 
BRANCH  15  16
HETATM   16  C   UNL     1       7.813  23.169  53.912  1.00  0.00    -0.041 A 
HETATM   17  C   UNL     1       8.096  24.096  54.927  1.00  0.00     0.009 A 
HETATM   18  C   UNL     1       8.377  23.664  56.225  1.00  0.00     0.001 A 
HETATM   19  C   UNL     1       8.364  22.304  56.527  1.00  0.00     0.000 A 
HETATM   20  C   UNL     1       8.073  21.373  55.531  1.00  0.00     0.001 A 
HETATM   21  C   UNL     1       7.798  21.803  54.231  1.00  0.00     0.009 A 
ENDBRANCH  15  16
ENDBRANCH  12  15
ENDBRANCH   7  11
BRANCH   1  22
HETATM   22  C   UNL     1       3.873  28.201  48.246  1.00  0.00    -0.035 A 
HETATM   23  C   UNL     1       3.203  29.087  47.385  1.00  0.00     0.012 A 
HETATM   24  C   UNL     1       1.927  28.799  46.887  1.00  0.00     0.037 A 
HETATM   25  C   UNL     1       1.286  27.616  47.241  1.00  0.00     0.068 A 
HETATM   26  C   UNL     1       1.931  26.730  48.104  1.00  0.00     0.037 A 
HETATM   27  C   UNL     1       3.205  27.019  48.606  1.00  0.00     0.012 A 
BRANCH  25  28
HETATM   28  O   UNL     1       0.046  27.217  46.823  1.00  0.00    -0.356 OA
HETATM   29  C   UNL     1      -0.557  27.988  45.789  1.00  0.00     0.210 C 
ENDBRANCH  25  28
ENDBRANCH   1  22
BRANCH   8  30
HETATM   30  C   UNL     1       3.344  30.380  50.832  1.00  0.00     0.409 C 
HETATM   31  F   UNL     1       2.550  29.293  50.847  1.00  0.00    -0.169 F 
HETATM   32  F   UNL     1       2.987  31.159  51.879  1.00  0.00    -0.169 F 
HETATM   33  F   UNL     1       3.029  31.089  49.715  1.00  0.00    -0.169 F 
ENDBRANCH   8  30
TORSDOF 6
ENDMDL
MODEL 8
REMARK VINA RESULT:      -8.3      3.241      7.783
REMARK  6 active torsions:
REMARK  status: ('A' for Active; 'I' for Inactive)
REMARK    1  A    between atoms: O_2  and  C_3 
REMARK    2  A    between atoms: C_6  and  C_7 
REMARK    3  A    between atoms: C_13  and  C_14 
REMARK       I    between atoms: C_14  and  N_15 
REMARK    4  A    between atoms: N_15  and  C_16 
REMARK    5  A    between atoms: C_16  and  C_17 
REMARK    6  A    between atoms: C_24  and  C_25 
ROOT
HETATM    1  C   UNL     1       4.378  29.050  56.727  1.00  0.00     0.118 C 
HETATM    2  N   UNL     1       4.297  28.258  55.494  1.00  0.00    -0.365 N 
HETATM    3  C   UNL     1       3.996  28.848  54.304  1.00  0.00     0.138 A 
HETATM    4  N   UNL     1       3.489  30.125  54.260  1.00  0.00    -0.240 N 
HETATM    5  N   UNL     1       3.193  30.556  53.025  1.00  0.00    -0.181 NA
HETATM    6  C   UNL     1       3.631  29.562  52.248  1.00  0.00     0.160 A 
HETATM    7  C   UNL     1       4.124  28.455  52.984  1.00  0.00     0.096 A 
HETATM    8  C   UNL     1       3.280  30.980  55.413  1.00  0.00     0.221 C 
HETATM    9  C   UNL     1       3.297  30.146  56.706  1.00  0.00     0.066 C 
HETATM   10  H   UNL     1       4.915  27.448  55.513  1.00  0.00     0.161 HD
ENDROOT
BRANCH   7  11
HETATM   11  C   UNL     1       4.665  27.242  52.410  1.00  0.00     0.257 C 
HETATM   12  N   UNL     1       4.371  26.080  53.085  1.00  0.00    -0.352 N 
HETATM   13  H   UNL     1       3.719  26.112  53.857  1.00  0.00     0.163 HD
HETATM   14  O   UNL     1       5.327  27.256  51.377  1.00  0.00    -0.267 OA
BRANCH  12  15
HETATM   15  C   UNL     1       4.892  24.817  52.624  1.00  0.00     0.161 C 
BRANCH  15  16
HETATM   16  C   UNL     1       6.079  24.344  53.422  1.00  0.00    -0.041 A 
HETATM   17  C   UNL     1       7.069  23.542  52.834  1.00  0.00     0.009 A 
HETATM   18  C   UNL     1       8.201  23.165  53.560  1.00  0.00     0.001 A 
HETATM   19  C   UNL     1       8.363  23.597  54.874  1.00  0.00     0.000 A 
HETATM   20  C   UNL     1       7.393  24.403  55.466  1.00  0.00     0.001 A 
HETATM   21  C   UNL     1       6.258  24.776  54.744  1.00  0.00     0.009 A 
ENDBRANCH  15  16
ENDBRANCH  12  15
ENDBRANCH   7  11
BRANCH   1  22
HETATM   22  C   UNL     1       5.792  29.519  57.037  1.00  0.00    -0.035 A 
HETATM   23  C   UNL     1       6.916  29.083  56.316  1.00  0.00     0.012 A 
HETATM   24  C   UNL     1       8.208  29.512  56.644  1.00  0.00     0.037 A 
HETATM   25  C   UNL     1       8.408  30.387  57.707  1.00  0.00     0.068 A 
HETATM   26  C   UNL     1       7.306  30.820  58.442  1.00  0.00     0.037 A 
HETATM   27  C   UNL     1       6.014  30.389  58.118  1.00  0.00     0.012 A 
BRANCH  25  28
HETATM   28  O   UNL     1       9.613  30.880  58.125  1.00  0.00    -0.356 OA
HETATM   29  C   UNL     1      10.771  30.381  57.464  1.00  0.00     0.210 C 
ENDBRANCH  25  28
ENDBRANCH   1  22
BRANCH   8  30
HETATM   30  C   UNL     1       4.279  32.121  55.407  1.00  0.00     0.409 C 
HETATM   31  F   UNL     1       5.505  31.773  54.974  1.00  0.00    -0.169 F 
HETATM   32  F   UNL     1       3.861  33.161  54.649  1.00  0.00    -0.169 F 
HETATM   33  F   UNL     1       4.427  32.612  56.667  1.00  0.00    -0.169 F 
ENDBRANCH   8  30
TORSDOF 6
ENDMDL
MODEL 9
REMARK VINA RESULT:      -8.2      4.003      7.394
REMARK  6 active torsions:
REMARK  status: ('A' for Active; 'I' for Inactive)
REMARK    1  A    between atoms: O_2  and  C_3 
REMARK    2  A    between atoms: C_6  and  C_7 
REMARK    3  A    between atoms: C_13  and  C_14 
REMARK       I    between atoms: C_14  and  N_15 
REMARK    4  A    between atoms: N_15  and  C_16 
REMARK    5  A    between atoms: C_16  and  C_17 
REMARK    6  A    between atoms: C_24  and  C_25 
ROOT
HETATM    1  C   UNL     1       5.199  25.740  56.580  1.00  0.00     0.118 C 
HETATM    2  N   UNL     1       4.558  26.898  55.945  1.00  0.00    -0.365 N 
HETATM    3  C   UNL     1       5.194  28.100  55.882  1.00  0.00     0.138 A 
HETATM    4  N   UNL     1       6.312  28.345  56.644  1.00  0.00    -0.240 N 
HETATM    5  N   UNL     1       6.800  29.588  56.517  1.00  0.00    -0.181 NA
HETATM    6  C   UNL     1       6.034  30.115  55.558  1.00  0.00     0.160 A 
HETATM    7  C   UNL     1       4.997  29.247  55.134  1.00  0.00     0.096 A 
HETATM    8  C   UNL     1       6.954  27.382  57.517  1.00  0.00     0.221 C 
HETATM    9  C   UNL     1       6.004  26.207  57.806  1.00  0.00     0.066 C 
HETATM   10  H   UNL     1       3.919  26.626  55.198  1.00  0.00     0.161 HD
ENDROOT
BRANCH   7  11
HETATM   11  C   UNL     1       4.020  29.547  54.110  1.00  0.00     0.257 C 
HETATM   12  N   UNL     1       4.056  28.742  52.995  1.00  0.00    -0.352 N 
HETATM   13  H   UNL     1       4.667  27.936  52.992  1.00  0.00     0.163 HD
HETATM   14  O   UNL     1       3.202  30.451  54.244  1.00  0.00    -0.267 OA
BRANCH  12  15
HETATM   15  C   UNL     1       3.154  28.977  51.895  1.00  0.00     0.161 C 
BRANCH  15  16
HETATM   16  C   UNL     1       3.618  28.347  50.608  1.00  0.00    -0.041 A 
HETATM   17  C   UNL     1       4.521  27.273  50.615  1.00  0.00     0.009 A 
HETATM   18  C   UNL     1       4.893  26.650  49.422  1.00  0.00     0.001 A 
HETATM   19  C   UNL     1       4.356  27.082  48.212  1.00  0.00     0.000 A 
HETATM   20  C   UNL     1       3.449  28.140  48.191  1.00  0.00     0.001 A 
HETATM   21  C   UNL     1       3.081  28.769  49.383  1.00  0.00     0.009 A 
ENDBRANCH  15  16
ENDBRANCH  12  15
ENDBRANCH   7  11
BRANCH   1  22
HETATM   22  C   UNL     1       5.948  24.861  55.590  1.00  0.00    -0.035 A 
HETATM   23  C   UNL     1       6.853  23.862  55.987  1.00  0.00     0.012 A 
HETATM   24  C   UNL     1       7.548  23.089  55.050  1.00  0.00     0.037 A 
HETATM   25  C   UNL     1       7.358  23.299  53.688  1.00  0.00     0.068 A 
HETATM   26  C   UNL     1       6.474  24.294  53.274  1.00  0.00     0.037 A 
HETATM   27  C   UNL     1       5.781  25.072  54.211  1.00  0.00     0.012 A 
BRANCH  25  28
HETATM   28  O   UNL     1       7.971  22.612  52.676  1.00  0.00    -0.356 OA
HETATM   29  C   UNL     1       8.288  21.249  52.930  1.00  0.00     0.210 C 
ENDBRANCH  25  28
ENDBRANCH   1  22
BRANCH   8  30
HETATM   30  C   UNL     1       8.291  26.960  56.938  1.00  0.00     0.409 C 
HETATM   31  F   UNL     1       8.743  25.782  57.406  1.00  0.00    -0.169 F 
HETATM   32  F   UNL     1       8.258  26.876  55.588  1.00  0.00    -0.169 F 
HETATM   33  F   UNL     1       9.236  27.894  57.231  1.00  0.00    -0.169 F 
ENDBRANCH   8  30
TORSDOF 6
ENDMDL
MODEL 10
REMARK VINA RESULT:      -8.2      4.637      8.665
REMARK  6 active torsions:
REMARK  status: ('A' for Active; 'I' for Inactive)
REMARK    1  A    between atoms: O_2  and  C_3 
REMARK    2  A    between atoms: C_6  and  C_7 
REMARK    3  A    between atoms: C_13  and  C_14 
REMARK       I    between atoms: C_14  and  N_15 
REMARK    4  A    between atoms: N_15  and  C_16 
REMARK    5  A    between atoms: C_16  and  C_17 
REMARK    6  A    between atoms: C_24  and  C_25 
ROOT
HETATM    1  C   UNL     1       2.922  28.734  52.846  1.00  0.00     0.118 C 
HETATM    2  N   UNL     1       3.575  27.495  53.284  1.00  0.00    -0.365 N 
HETATM    3  C   UNL     1       4.598  26.954  52.567  1.00  0.00     0.138 A 
HETATM    4  N   UNL     1       4.863  27.381  51.286  1.00  0.00    -0.240 N 
HETATM    5  N   UNL     1       5.866  26.724  50.686  1.00  0.00    -0.181 NA
HETATM    6  C   UNL     1       6.329  25.931  51.655  1.00  0.00     0.160 A 
HETATM    7  C   UNL     1       5.568  26.009  52.849  1.00  0.00     0.096 A 
HETATM    8  C   UNL     1       4.158  28.447  50.601  1.00  0.00     0.221 C 
HETATM    9  C   UNL     1       2.828  28.751  51.309  1.00  0.00     0.066 C 
HETATM   10  H   UNL     1       3.556  27.384  54.297  1.00  0.00     0.161 HD
ENDROOT
BRANCH   7  11
HETATM   11  C   UNL     1       5.836  25.269  54.063  1.00  0.00     0.257 C 
HETATM   12  N   UNL     1       7.077  24.681  54.142  1.00  0.00    -0.352 N 
HETATM   13  H   UNL     1       7.761  24.880  53.425  1.00  0.00     0.163 HD
HETATM   14  O   UNL     1       5.011  25.192  54.968  1.00  0.00    -0.267 OA
BRANCH  12  15
HETATM   15  C   UNL     1       7.436  23.885  55.290  1.00  0.00     0.161 C 
BRANCH  15  16
HETATM   16  C   UNL     1       7.840  22.480  54.930  1.00  0.00    -0.041 A 
HETATM   17  C   UNL     1       7.834  22.047  53.595  1.00  0.00     0.009 A 
HETATM   18  C   UNL     1       8.276  20.765  53.261  1.00  0.00     0.001 A 
HETATM   19  C   UNL     1       8.743  19.908  54.255  1.00  0.00     0.000 A 
HETATM   20  C   UNL     1       8.766  20.328  55.583  1.00  0.00     0.001 A 
HETATM   21  C   UNL     1       8.319  21.608  55.919  1.00  0.00     0.009 A 
ENDBRANCH  15  16
ENDBRANCH  12  15
ENDBRANCH   7  11
BRANCH   1  22
HETATM   22  C   UNL     1       3.521  29.977  53.487  1.00  0.00    -0.035 A 
HETATM   23  C   UNL     1       4.415  29.922  54.571  1.00  0.00     0.012 A 
HETATM   24  C   UNL     1       4.927  31.086  55.156  1.00  0.00     0.037 A 
HETATM   25  C   UNL     1       4.556  32.337  54.674  1.00  0.00     0.068 A 
HETATM   26  C   UNL     1       3.661  32.411  53.607  1.00  0.00     0.037 A 
HETATM   27  C   UNL     1       3.144  31.249  53.023  1.00  0.00     0.012 A 
BRANCH  25  28
HETATM   28  O   UNL     1       4.986  33.543  55.154  1.00  0.00    -0.356 OA
HETATM   29  C   UNL     1       5.405  34.501  54.190  1.00  0.00     0.210 C 
ENDBRANCH  25  28
ENDBRANCH   1  22
BRANCH   8  30
HETATM   30  C   UNL     1       5.060  29.656  50.447  1.00  0.00     0.409 C 
HETATM   31  F   UNL     1       5.835  29.901  51.520  1.00  0.00    -0.169 F 
HETATM   32  F   UNL     1       5.876  29.550  49.372  1.00  0.00    -0.169 F 
HETATM   33  F   UNL     1       4.308  30.770  50.236  1.00  0.00    -0.169 F 
ENDBRANCH   8  30
TORSDOF 6
ENDMDL
