MODEL 1
REMARK VINA RESULT:     -10.5      0.000      0.000
REMARK  9 active torsions:
REMARK  status: ('A' for Active; 'I' for Inactive)
REMARK    1  A    between atoms: C_2  and  O_3 
REMARK    2  A    between atoms: O_3  and  C_4 
REMARK    3  A    between atoms: C_4  and  C_5 
REMARK    4  A    between atoms: C_8  and  N_9 
REMARK       I    between atoms: N_9  and  C_10 
REMARK    5  A    between atoms: C_10  and  C_11 
REMARK    6  A    between atoms: C_11  and  C_12 
REMARK    7  A    between atoms: N_13  and  C_14 
REMARK    8  A    between atoms: C_14  and  C_15 
REMARK    9  A    between atoms: N_23  and  C_24 
ROOT
HETATM    1  C   UNL     1       7.399  28.177  55.201  1.00  0.00     0.191 A 
HETATM    2  N   UNL     1       7.420  27.570  56.516  1.00  0.00    -0.315 N 
HETATM    3  C   UNL     1       7.605  26.195  56.464  1.00  0.00     0.333 A 
HETATM    4  O   UNL     1       7.634  25.501  57.470  1.00  0.00    -0.246 OA
HETATM    5  N   UNL     1       7.726  25.815  55.144  1.00  0.00    -0.232 N 
HETATM    6  C   UNL     1       7.659  26.935  54.342  1.00  0.00     0.256 A 
HETATM    7  O   UNL     1       7.784  27.016  53.122  1.00  0.00    -0.270 OA
ENDROOT
BRANCH   1   8
HETATM    8  C   UNL     1       6.082  28.788  54.737  1.00  0.00     0.138 C 
BRANCH   8   9
HETATM    9  C   UNL     1       4.899  27.867  54.826  1.00  0.00     0.224 C 
HETATM   10  N   UNL     1       4.248  27.354  53.754  1.00  0.00    -0.327 N 
HETATM   11  H   UNL     1       3.402  26.886  54.067  1.00  0.00     0.169 HD
HETATM   12  O   UNL     1       4.430  27.597  55.938  1.00  0.00    -0.273 OA
BRANCH  10  13
HETATM   13  C   UNL     1       4.469  27.300  52.370  1.00  0.00     0.034 A 
HETATM   14  C   UNL     1       5.026  26.231  51.671  1.00  0.00     0.030 A 
HETATM   15  C   UNL     1       5.145  26.287  50.271  1.00  0.00     0.020 A 
HETATM   16  C   UNL     1       4.706  27.408  49.554  1.00  0.00     0.039 A 
HETATM   17  C   UNL     1       4.155  28.482  50.254  1.00  0.00     0.020 A 
HETATM   18  C   UNL     1       4.032  28.420  51.645  1.00  0.00     0.030 A 
BRANCH  16  19
HETATM   19  C   UNL     1       4.813  27.399  48.069  1.00  0.00     0.293 C 
HETATM   20  O   UNL     1       5.106  28.382  47.409  1.00  0.00    -0.259 OA
BRANCH  19  21
HETATM   21  O   UNL     1       4.569  26.154  47.588  1.00  0.00    -0.318 OA
BRANCH  21  22
HETATM   22  C   UNL     1       3.191  25.823  47.359  1.00  0.00     0.174 C 
HETATM   23  C   UNL     1       2.857  24.477  47.971  1.00  0.00     0.034 C 
ENDBRANCH  21  22
ENDBRANCH  19  21
ENDBRANCH  16  19
ENDBRANCH  10  13
ENDBRANCH   8   9
ENDBRANCH   1   8
BRANCH   2  24
HETATM   24  C   UNL     1       7.340  28.295  57.778  1.00  0.00     0.168 C 
BRANCH  24  25
HETATM   25  C   UNL     1       8.344  29.406  57.920  1.00  0.00    -0.023 A 
HETATM   26  C   UNL     1       8.015  30.548  58.647  1.00  0.00     0.125 A 
HETATM   27  N   UNL     1       8.847  31.596  58.842  1.00  0.00    -0.273 NA
HETATM   28  C   UNL     1      10.084  31.491  58.312  1.00  0.00     0.116 A 
HETATM   29  C   UNL     1      10.526  30.388  57.603  1.00  0.00     0.020 A 
HETATM   30  C   UNL     1       9.645  29.327  57.416  1.00  0.00     0.012 A 
ENDBRANCH  24  25
ENDBRANCH   2  24
BRANCH   5  31
HETATM   31  C   UNL     1       7.881  24.468  54.693  1.00  0.00     0.047 A 
HETATM   32  C   UNL     1       7.186  23.984  53.573  1.00  0.00     0.031 A 
HETATM   33  C   UNL     1       7.366  22.678  53.099  1.00  0.00     0.009 A 
HETATM   34  C   UNL     1       8.247  21.807  53.737  1.00  0.00    -0.062 A 
HETATM   35  C   UNL     1       8.483  20.430  53.193  1.00  0.00     0.048 C 
HETATM   36  C   UNL     1       8.950  22.270  54.849  1.00  0.00     0.009 A 
HETATM   37  C   UNL     1       8.762  23.577  55.325  1.00  0.00     0.031 A 
ENDBRANCH   5  31
TORSDOF 9
ENDMDL
MODEL 2
REMARK VINA RESULT:     -10.3      3.286      6.931
REMARK  9 active torsions:
REMARK  status: ('A' for Active; 'I' for Inactive)
REMARK    1  A    between atoms: C_2  and  O_3 
REMARK    2  A    between atoms: O_3  and  C_4 
REMARK    3  A    between atoms: C_4  and  C_5 
REMARK    4  A    between atoms: C_8  and  N_9 
REMARK       I    between atoms: N_9  and  C_10 
REMARK    5  A    between atoms: C_10  and  C_11 
REMARK    6  A    between atoms: C_11  and  C_12 
REMARK    7  A    between atoms: N_13  and  C_14 
REMARK    8  A    between atoms: C_14  and  C_15 
REMARK    9  A    between atoms: N_23  and  C_24 
ROOT
HETATM    1  C   UNL     1       6.213  27.818  55.635  1.00  0.00     0.191 A 
HETATM    2  N   UNL     1       7.046  27.333  56.716  1.00  0.00    -0.315 N 
HETATM    3  C   UNL     1       7.550  26.063  56.469  1.00  0.00     0.333 A 
HETATM    4  O   UNL     1       8.262  25.476  57.272  1.00  0.00    -0.246 OA
HETATM    5  N   UNL     1       7.104  25.642  55.235  1.00  0.00    -0.232 N 
HETATM    6  C   UNL     1       6.345  26.642  54.662  1.00  0.00     0.256 A 
HETATM    7  O   UNL     1       5.823  26.670  53.550  1.00  0.00    -0.270 OA
ENDROOT
BRANCH   1   8
HETATM    8  C   UNL     1       4.729  28.005  55.929  1.00  0.00     0.138 C 
BRANCH   8   9
HETATM    9  C   UNL     1       4.099  29.186  55.247  1.00  0.00     0.224 C 
HETATM   10  N   UNL     1       3.877  30.383  55.842  1.00  0.00    -0.327 N 
HETATM   11  H   UNL     1       3.312  30.963  55.228  1.00  0.00     0.169 HD
HETATM   12  O   UNL     1       3.691  29.061  54.086  1.00  0.00    -0.273 OA
BRANCH  10  13
HETATM   13  C   UNL     1       4.245  30.994  57.049  1.00  0.00     0.034 A 
HETATM   14  C   UNL     1       3.441  31.130  58.178  1.00  0.00     0.030 A 
HETATM   15  C   UNL     1       3.954  31.720  59.346  1.00  0.00     0.020 A 
HETATM   16  C   UNL     1       5.278  32.178  59.401  1.00  0.00     0.039 A 
HETATM   17  C   UNL     1       6.083  32.049  58.268  1.00  0.00     0.020 A 
HETATM   18  C   UNL     1       5.570  31.455  57.111  1.00  0.00     0.030 A 
BRANCH  16  19
HETATM   19  C   UNL     1       5.787  32.754  60.675  1.00  0.00     0.293 C 
HETATM   20  O   UNL     1       5.150  33.535  61.363  1.00  0.00    -0.259 OA
BRANCH  19  21
HETATM   21  O   UNL     1       7.020  32.262  60.954  1.00  0.00    -0.318 OA
BRANCH  21  22
HETATM   22  C   UNL     1       7.165  31.598  62.219  1.00  0.00     0.174 C 
HETATM   23  C   UNL     1       8.023  32.422  63.159  1.00  0.00     0.034 C 
ENDBRANCH  21  22
ENDBRANCH  19  21
ENDBRANCH  16  19
ENDBRANCH  10  13
ENDBRANCH   8   9
ENDBRANCH   1   8
BRANCH   2  24
HETATM   24  C   UNL     1       7.403  28.093  57.907  1.00  0.00     0.168 C 
BRANCH  24  25
HETATM   25  C   UNL     1       8.551  29.045  57.716  1.00  0.00    -0.023 A 
HETATM   26  C   UNL     1       8.799  30.032  58.667  1.00  0.00     0.125 A 
HETATM   27  N   UNL     1       9.808  30.928  58.593  1.00  0.00    -0.273 NA
HETATM   28  C   UNL     1      10.637  30.818  57.533  1.00  0.00     0.116 A 
HETATM   29  C   UNL     1      10.504  29.854  56.550  1.00  0.00     0.020 A 
HETATM   30  C   UNL     1       9.452  28.948  56.651  1.00  0.00     0.012 A 
ENDBRANCH  24  25
ENDBRANCH   2  24
BRANCH   5  31
HETATM   31  C   UNL     1       7.379  24.364  54.659  1.00  0.00     0.047 A 
HETATM   32  C   UNL     1       7.806  24.234  53.327  1.00  0.00     0.031 A 
HETATM   33  C   UNL     1       8.119  22.988  52.769  1.00  0.00     0.009 A 
HETATM   34  C   UNL     1       8.010  21.825  53.527  1.00  0.00    -0.062 A 
HETATM   35  C   UNL     1       8.403  20.499  52.946  1.00  0.00     0.048 C 
HETATM   36  C   UNL     1       7.591  21.931  54.854  1.00  0.00     0.009 A 
HETATM   37  C   UNL     1       7.271  23.181  55.406  1.00  0.00     0.031 A 
ENDBRANCH   5  31
TORSDOF 9
ENDMDL
MODEL 3
REMARK VINA RESULT:      -9.9      1.388      1.595
REMARK  9 active torsions:
REMARK  status: ('A' for Active; 'I' for Inactive)
REMARK    1  A    between atoms: C_2  and  O_3 
REMARK    2  A    between atoms: O_3  and  C_4 
REMARK    3  A    between atoms: C_4  and  C_5 
REMARK    4  A    between atoms: C_8  and  N_9 
REMARK       I    between atoms: N_9  and  C_10 
REMARK    5  A    between atoms: C_10  and  C_11 
REMARK    6  A    between atoms: C_11  and  C_12 
REMARK    7  A    between atoms: N_13  and  C_14 
REMARK    8  A    between atoms: C_14  and  C_15 
REMARK    9  A    between atoms: N_23  and  C_24 
ROOT
HETATM    1  C   UNL     1       6.655  27.991  55.218  1.00  0.00     0.191 A 
HETATM    2  N   UNL     1       7.180  27.436  56.449  1.00  0.00    -0.315 N 
HETATM    3  C   UNL     1       7.540  26.102  56.319  1.00  0.00     0.333 A 
HETATM    4  O   UNL     1       7.988  25.452  57.253  1.00  0.00    -0.246 OA
HETATM    5  N   UNL     1       7.294  25.701  55.023  1.00  0.00    -0.232 N 
HETATM    6  C   UNL     1       6.811  26.773  54.301  1.00  0.00     0.256 A 
HETATM    7  O   UNL     1       6.531  26.832  53.107  1.00  0.00    -0.270 OA
ENDROOT
BRANCH   1   8
HETATM    8  C   UNL     1       5.183  28.388  55.205  1.00  0.00     0.138 C 
BRANCH   8   9
HETATM    9  C   UNL     1       4.925  29.823  54.846  1.00  0.00     0.224 C 
HETATM   10  N   UNL     1       4.651  30.260  53.592  1.00  0.00    -0.327 N 
HETATM   11  H   UNL     1       4.662  31.276  53.580  1.00  0.00     0.169 HD
HETATM   12  O   UNL     1       5.026  30.689  55.722  1.00  0.00    -0.273 OA
BRANCH  10  13
HETATM   13  C   UNL     1       4.347  29.663  52.360  1.00  0.00     0.034 A 
HETATM   14  C   UNL     1       3.072  29.358  51.890  1.00  0.00     0.030 A 
HETATM   15  C   UNL     1       2.904  28.806  50.608  1.00  0.00     0.020 A 
HETATM   16  C   UNL     1       4.007  28.555  49.780  1.00  0.00     0.039 A 
HETATM   17  C   UNL     1       5.286  28.853  50.254  1.00  0.00     0.020 A 
HETATM   18  C   UNL     1       5.447  29.408  51.526  1.00  0.00     0.030 A 
BRANCH  16  19
HETATM   19  C   UNL     1       3.772  28.011  48.414  1.00  0.00     0.293 C 
HETATM   20  O   UNL     1       4.050  28.615  47.392  1.00  0.00    -0.259 OA
BRANCH  19  21
HETATM   21  O   UNL     1       3.245  26.763  48.490  1.00  0.00    -0.318 OA
BRANCH  21  22
HETATM   22  C   UNL     1       2.242  26.440  47.515  1.00  0.00     0.174 C 
HETATM   23  C   UNL     1       0.954  27.183  47.808  1.00  0.00     0.034 C 
ENDBRANCH  21  22
ENDBRANCH  19  21
ENDBRANCH  16  19
ENDBRANCH  10  13
ENDBRANCH   8   9
ENDBRANCH   1   8
BRANCH   2  24
HETATM   24  C   UNL     1       7.395  28.183  57.682  1.00  0.00     0.168 C 
BRANCH  24  25
HETATM   25  C   UNL     1       8.555  29.138  57.635  1.00  0.00    -0.023 A 
HETATM   26  C   UNL     1       8.525  30.303  58.398  1.00  0.00     0.125 A 
HETATM   27  N   UNL     1       9.518  31.219  58.433  1.00  0.00    -0.273 NA
HETATM   28  C   UNL     1      10.616  30.949  57.695  1.00  0.00     0.116 A 
HETATM   29  C   UNL     1      10.765  29.806  56.929  1.00  0.00     0.020 A 
HETATM   30  C   UNL     1       9.723  28.884  56.910  1.00  0.00     0.012 A 
ENDBRANCH  24  25
ENDBRANCH   2  24
BRANCH   5  31
HETATM   31  C   UNL     1       7.497  24.378  54.525  1.00  0.00     0.047 A 
HETATM   32  C   UNL     1       7.912  24.146  53.203  1.00  0.00     0.031 A 
HETATM   33  C   UNL     1       8.154  22.853  52.721  1.00  0.00     0.009 A 
HETATM   34  C   UNL     1       7.982  21.744  53.547  1.00  0.00    -0.062 A 
HETATM   35  C   UNL     1       8.300  20.367  53.047  1.00  0.00     0.048 C 
HETATM   36  C   UNL     1       7.574  21.953  54.864  1.00  0.00     0.009 A 
HETATM   37  C   UNL     1       7.325  23.249  55.341  1.00  0.00     0.031 A 
ENDBRANCH   5  31
TORSDOF 9
ENDMDL
MODEL 4
REMARK VINA RESULT:      -9.7      3.904      9.088
REMARK  9 active torsions:
REMARK  status: ('A' for Active; 'I' for Inactive)
REMARK    1  A    between atoms: C_2  and  O_3 
REMARK    2  A    between atoms: O_3  and  C_4 
REMARK    3  A    between atoms: C_4  and  C_5 
REMARK    4  A    between atoms: C_8  and  N_9 
REMARK       I    between atoms: N_9  and  C_10 
REMARK    5  A    between atoms: C_10  and  C_11 
REMARK    6  A    between atoms: C_11  and  C_12 
REMARK    7  A    between atoms: N_13  and  C_14 
REMARK    8  A    between atoms: C_14  and  C_15 
REMARK    9  A    between atoms: N_23  and  C_24 
ROOT
HETATM    1  C   UNL     1       7.373  28.856  57.742  1.00  0.00     0.191 A 
HETATM    2  N   UNL     1       6.023  28.787  57.221  1.00  0.00    -0.315 N 
HETATM    3  C   UNL     1       5.828  27.688  56.396  1.00  0.00     0.333 A 
HETATM    4  O   UNL     1       4.758  27.466  55.846  1.00  0.00    -0.246 OA
HETATM    5  N   UNL     1       7.003  26.971  56.328  1.00  0.00    -0.232 N 
HETATM    6  C   UNL     1       7.949  27.574  57.132  1.00  0.00     0.256 A 
HETATM    7  O   UNL     1       9.094  27.205  57.380  1.00  0.00    -0.270 OA
ENDROOT
BRANCH   1   8
HETATM    8  C   UNL     1       8.242  30.017  57.273  1.00  0.00     0.138 C 
BRANCH   8   9
HETATM    9  C   UNL     1       9.471  30.254  58.102  1.00  0.00     0.224 C 
HETATM   10  N   UNL     1       9.474  30.885  59.302  1.00  0.00    -0.327 N 
HETATM   11  H   UNL     1      10.433  31.052  59.592  1.00  0.00     0.169 HD
HETATM   12  O   UNL     1      10.573  29.918  57.653  1.00  0.00    -0.273 OA
BRANCH  10  13
HETATM   13  C   UNL     1       8.502  31.325  60.212  1.00  0.00     0.034 A 
HETATM   14  C   UNL     1       7.278  31.905  59.887  1.00  0.00     0.030 A 
HETATM   15  C   UNL     1       6.370  32.255  60.901  1.00  0.00     0.020 A 
HETATM   16  C   UNL     1       6.672  32.027  62.251  1.00  0.00     0.039 A 
HETATM   17  C   UNL     1       7.902  31.453  62.578  1.00  0.00     0.020 A 
HETATM   18  C   UNL     1       8.798  31.100  61.566  1.00  0.00     0.030 A 
BRANCH  16  19
HETATM   19  C   UNL     1       5.658  32.375  63.284  1.00  0.00     0.293 C 
HETATM   20  O   UNL     1       4.746  31.633  63.608  1.00  0.00    -0.259 OA
BRANCH  19  21
HETATM   21  O   UNL     1       5.923  33.597  63.810  1.00  0.00    -0.318 OA
BRANCH  21  22
HETATM   22  C   UNL     1       5.634  33.760  65.207  1.00  0.00     0.174 C 
HETATM   23  C   UNL     1       6.916  33.872  66.008  1.00  0.00     0.034 C 
ENDBRANCH  21  22
ENDBRANCH  19  21
ENDBRANCH  16  19
ENDBRANCH  10  13
ENDBRANCH   8   9
ENDBRANCH   1   8
BRANCH   2  24
HETATM   24  C   UNL     1       4.943  29.703  57.564  1.00  0.00     0.168 C 
BRANCH  24  25
HETATM   25  C   UNL     1       4.881  30.938  56.708  1.00  0.00    -0.023 A 
HETATM   26  C   UNL     1       4.557  30.830  55.358  1.00  0.00     0.125 A 
HETATM   27  N   UNL     1       4.465  31.878  54.508  1.00  0.00    -0.273 NA
HETATM   28  C   UNL     1       4.677  33.103  55.035  1.00  0.00     0.116 A 
HETATM   29  C   UNL     1       4.970  33.326  56.368  1.00  0.00     0.020 A 
HETATM   30  C   UNL     1       5.061  32.227  57.217  1.00  0.00     0.012 A 
ENDBRANCH  24  25
ENDBRANCH   2  24
BRANCH   5  31
HETATM   31  C   UNL     1       7.200  25.799  55.536  1.00  0.00     0.047 A 
HETATM   32  C   UNL     1       7.067  24.511  56.082  1.00  0.00     0.031 A 
HETATM   33  C   UNL     1       7.217  23.358  55.301  1.00  0.00     0.009 A 
HETATM   34  C   UNL     1       7.512  23.454  53.943  1.00  0.00    -0.062 A 
HETATM   35  C   UNL     1       7.612  22.221  53.097  1.00  0.00     0.048 C 
HETATM   36  C   UNL     1       7.645  24.724  53.380  1.00  0.00     0.009 A 
HETATM   37  C   UNL     1       7.501  25.877  54.167  1.00  0.00     0.031 A 
ENDBRANCH   5  31
TORSDOF 9
ENDMDL
MODEL 5
REMARK VINA RESULT:      -9.4      3.609      7.779
REMARK  9 active torsions:
REMARK  status: ('A' for Active; 'I' for Inactive)
REMARK    1  A    between atoms: C_2  and  O_3 
REMARK    2  A    between atoms: O_3  and  C_4 
REMARK    3  A    between atoms: C_4  and  C_5 
REMARK    4  A    between atoms: C_8  and  N_9 
REMARK       I    between atoms: N_9  and  C_10 
REMARK    5  A    between atoms: C_10  and  C_11 
REMARK    6  A    between atoms: C_11  and  C_12 
REMARK    7  A    between atoms: N_13  and  C_14 
REMARK    8  A    between atoms: C_14  and  C_15 
REMARK    9  A    between atoms: N_23  and  C_24 
ROOT
HETATM    1  C   UNL     1       6.190  28.965  56.203  1.00  0.00     0.191 A 
HETATM    2  N   UNL     1       7.082  28.397  57.191  1.00  0.00    -0.315 N 
HETATM    3  C   UNL     1       7.525  27.128  56.841  1.00  0.00     0.333 A 
HETATM    4  O   UNL     1       8.273  26.477  57.556  1.00  0.00    -0.246 OA
HETATM    5  N   UNL     1       6.976  26.789  55.623  1.00  0.00    -0.232 N 
HETATM    6  C   UNL     1       6.211  27.840  55.161  1.00  0.00     0.256 A 
HETATM    7  O   UNL     1       5.612  27.945  54.094  1.00  0.00    -0.270 OA
ENDROOT
BRANCH   1   8
HETATM    8  C   UNL     1       4.738  29.178  56.615  1.00  0.00     0.138 C 
BRANCH   8   9
HETATM    9  C   UNL     1       4.163  30.508  56.220  1.00  0.00     0.224 C 
HETATM   10  N   UNL     1       3.849  31.495  57.094  1.00  0.00    -0.327 N 
HETATM   11  H   UNL     1       3.345  32.229  56.604  1.00  0.00     0.169 HD
HETATM   12  O   UNL     1       3.891  30.715  55.031  1.00  0.00    -0.273 OA
BRANCH  10  13
HETATM   13  C   UNL     1       4.066  31.743  58.457  1.00  0.00     0.034 A 
HETATM   14  C   UNL     1       3.151  31.526  59.484  1.00  0.00     0.030 A 
HETATM   15  C   UNL     1       3.516  31.769  60.820  1.00  0.00     0.020 A 
HETATM   16  C   UNL     1       4.800  32.227  61.144  1.00  0.00     0.039 A 
HETATM   17  C   UNL     1       5.716  32.452  60.115  1.00  0.00     0.020 A 
HETATM   18  C   UNL     1       5.350  32.202  58.789  1.00  0.00     0.030 A 
BRANCH  16  19
HETATM   19  C   UNL     1       5.152  32.426  62.577  1.00  0.00     0.293 C 
HETATM   20  O   UNL     1       4.988  31.576  63.435  1.00  0.00    -0.259 OA
BRANCH  19  21
HETATM   21  O   UNL     1       5.697  33.656  62.761  1.00  0.00    -0.318 OA
BRANCH  21  22
HETATM   22  C   UNL     1       4.772  34.750  62.852  1.00  0.00     0.174 C 
HETATM   23  C   UNL     1       5.257  35.929  62.033  1.00  0.00     0.034 C 
ENDBRANCH  21  22
ENDBRANCH  19  21
ENDBRANCH  16  19
ENDBRANCH  10  13
ENDBRANCH   8   9
ENDBRANCH   1   8
BRANCH   2  24
HETATM   24  C   UNL     1       7.550  29.079  58.392  1.00  0.00     0.168 C 
BRANCH  24  25
HETATM   25  C   UNL     1       8.767  29.937  58.184  1.00  0.00    -0.023 A 
HETATM   26  C   UNL     1       8.844  31.188  58.791  1.00  0.00     0.125 A 
HETATM   27  N   UNL     1       9.896  32.029  58.676  1.00  0.00    -0.273 NA
HETATM   28  C   UNL     1      10.942  31.592  57.943  1.00  0.00     0.116 A 
HETATM   29  C   UNL     1      10.985  30.354  57.327  1.00  0.00     0.020 A 
HETATM   30  C   UNL     1       9.884  29.512  57.460  1.00  0.00     0.012 A 
ENDBRANCH  24  25
ENDBRANCH   2  24
BRANCH   5  31
HETATM   31  C   UNL     1       7.167  25.537  54.961  1.00  0.00     0.047 A 
HETATM   32  C   UNL     1       7.673  25.467  53.653  1.00  0.00     0.031 A 
HETATM   33  C   UNL     1       7.903  24.242  53.014  1.00  0.00     0.009 A 
HETATM   34  C   UNL     1       7.628  23.041  53.664  1.00  0.00    -0.062 A 
HETATM   35  C   UNL     1       7.931  21.730  53.001  1.00  0.00     0.048 C 
HETATM   36  C   UNL     1       7.128  23.088  54.965  1.00  0.00     0.009 A 
HETATM   37  C   UNL     1       6.892  24.318  55.599  1.00  0.00     0.031 A 
ENDBRANCH   5  31
TORSDOF 9
ENDMDL
MODEL 6
REMARK VINA RESULT:      -9.2      4.652      9.152
REMARK  9 active torsions:
REMARK  status: ('A' for Active; 'I' for Inactive)
REMARK    1  A    between atoms: C_2  and  O_3 
REMARK    2  A    between atoms: O_3  and  C_4 
REMARK    3  A    between atoms: C_4  and  C_5 
REMARK    4  A    between atoms: C_8  and  N_9 
REMARK       I    between atoms: N_9  and  C_10 
REMARK    5  A    between atoms: C_10  and  C_11 
REMARK    6  A    between atoms: C_11  and  C_12 
REMARK    7  A    between atoms: N_13  and  C_14 
REMARK    8  A    between atoms: C_14  and  C_15 
REMARK    9  A    between atoms: N_23  and  C_24 
ROOT
HETATM    1  C   UNL     1       6.360  30.573  57.056  1.00  0.00     0.191 A 
HETATM    2  N   UNL     1       7.624  30.299  57.707  1.00  0.00    -0.315 N 
HETATM    3  C   UNL     1       8.064  29.001  57.490  1.00  0.00     0.333 A 
HETATM    4  O   UNL     1       9.104  28.574  57.972  1.00  0.00    -0.246 OA
HETATM    5  N   UNL     1       7.148  28.351  56.691  1.00  0.00    -0.232 N 
HETATM    6  C   UNL     1       6.135  29.227  56.357  1.00  0.00     0.256 A 
HETATM    7  O   UNL     1       5.171  29.043  55.619  1.00  0.00    -0.270 OA
ENDROOT
BRANCH   1   8
HETATM    8  C   UNL     1       5.155  30.829  57.954  1.00  0.00     0.138 C 
BRANCH   8   9
HETATM    9  C   UNL     1       4.251  31.934  57.488  1.00  0.00     0.224 C 
HETATM   10  N   UNL     1       3.645  32.824  58.311  1.00  0.00    -0.327 N 
HETATM   11  H   UNL     1       2.976  33.373  57.778  1.00  0.00     0.169 HD
HETATM   12  O   UNL     1       3.975  32.017  56.285  1.00  0.00    -0.273 OA
BRANCH  10  13
HETATM   13  C   UNL     1       3.737  33.168  59.668  1.00  0.00     0.034 A 
HETATM   14  C   UNL     1       3.384  32.357  60.744  1.00  0.00     0.030 A 
HETATM   15  C   UNL     1       3.576  32.808  62.061  1.00  0.00     0.020 A 
HETATM   16  C   UNL     1       4.125  34.072  62.319  1.00  0.00     0.039 A 
HETATM   17  C   UNL     1       4.472  34.888  61.241  1.00  0.00     0.020 A 
HETATM   18  C   UNL     1       4.286  34.433  59.933  1.00  0.00     0.030 A 
BRANCH  16  19
HETATM   19  C   UNL     1       4.349  34.484  63.732  1.00  0.00     0.293 C 
HETATM   20  O   UNL     1       4.249  35.635  64.121  1.00  0.00    -0.259 OA
BRANCH  19  21
HETATM   21  O   UNL     1       4.643  33.402  64.496  1.00  0.00    -0.318 OA
BRANCH  21  22
HETATM   22  C   UNL     1       5.604  33.609  65.542  1.00  0.00     0.174 C 
HETATM   23  C   UNL     1       6.988  33.821  64.961  1.00  0.00     0.034 C 
ENDBRANCH  21  22
ENDBRANCH  19  21
ENDBRANCH  16  19
ENDBRANCH  10  13
ENDBRANCH   8   9
ENDBRANCH   1   8
BRANCH   2  24
HETATM   24  C   UNL     1       8.415  31.273  58.449  1.00  0.00     0.168 C 
BRANCH  24  25
HETATM   25  C   UNL     1       8.231  31.216  59.940  1.00  0.00    -0.023 A 
HETATM   26  C   UNL     1       9.145  30.518  60.725  1.00  0.00     0.125 A 
HETATM   27  N   UNL     1       9.075  30.414  62.071  1.00  0.00    -0.273 NA
HETATM   28  C   UNL     1       8.059  31.066  62.675  1.00  0.00     0.116 A 
HETATM   29  C   UNL     1       7.116  31.817  61.995  1.00  0.00     0.020 A 
HETATM   30  C   UNL     1       7.212  31.900  60.610  1.00  0.00     0.012 A 
ENDBRANCH  24  25
ENDBRANCH   2  24
BRANCH   5  31
HETATM   31  C   UNL     1       7.237  26.982  56.291  1.00  0.00     0.047 A 
HETATM   32  C   UNL     1       7.063  25.935  57.211  1.00  0.00     0.031 A 
HETATM   33  C   UNL     1       7.106  24.591  56.819  1.00  0.00     0.009 A 
HETATM   34  C   UNL     1       7.334  24.249  55.488  1.00  0.00    -0.062 A 
HETATM   35  C   UNL     1       7.321  22.812  55.059  1.00  0.00     0.048 C 
HETATM   36  C   UNL     1       7.506  25.274  54.557  1.00  0.00     0.009 A 
HETATM   37  C   UNL     1       7.469  26.619  54.956  1.00  0.00     0.031 A 
ENDBRANCH   5  31
TORSDOF 9
ENDMDL
MODEL 7
REMARK VINA RESULT:      -9.0      3.096      6.621
REMARK  9 active torsions:
REMARK  status: ('A' for Active; 'I' for Inactive)
REMARK    1  A    between atoms: C_2  and  O_3 
REMARK    2  A    between atoms: O_3  and  C_4 
REMARK    3  A    between atoms: C_4  and  C_5 
REMARK    4  A    between atoms: C_8  and  N_9 
REMARK       I    between atoms: N_9  and  C_10 
REMARK    5  A    between atoms: C_10  and  C_11 
REMARK    6  A    between atoms: C_11  and  C_12 
REMARK    7  A    between atoms: N_13  and  C_14 
REMARK    8  A    between atoms: C_14  and  C_15 
REMARK    9  A    between atoms: N_23  and  C_24 
ROOT
HETATM    1  C   UNL     1       6.460  27.880  54.929  1.00  0.00     0.191 A 
HETATM    2  N   UNL     1       6.715  27.344  56.250  1.00  0.00    -0.315 N 
HETATM    3  C   UNL     1       7.194  26.041  56.212  1.00  0.00     0.333 A 
HETATM    4  O   UNL     1       7.453  25.410  57.227  1.00  0.00    -0.246 OA
HETATM    5  N   UNL     1       7.296  25.646  54.895  1.00  0.00    -0.232 N 
HETATM    6  C   UNL     1       6.922  26.693  54.077  1.00  0.00     0.256 A 
HETATM    7  O   UNL     1       6.933  26.751  52.851  1.00  0.00    -0.270 OA
ENDROOT
BRANCH   1   8
HETATM    8  C   UNL     1       5.009  28.169  54.563  1.00  0.00     0.138 C 
BRANCH   8   9
HETATM    9  C   UNL     1       4.794  29.459  53.824  1.00  0.00     0.224 C 
HETATM   10  N   UNL     1       4.455  30.630  54.415  1.00  0.00    -0.327 N 
HETATM   11  H   UNL     1       4.225  31.314  53.698  1.00  0.00     0.169 HD
HETATM   12  O   UNL     1       4.864  29.463  52.589  1.00  0.00    -0.273 OA
BRANCH  10  13
HETATM   13  C   UNL     1       4.370  31.110  55.730  1.00  0.00     0.034 A 
HETATM   14  C   UNL     1       3.743  30.470  56.796  1.00  0.00     0.030 A 
HETATM   15  C   UNL     1       3.777  31.039  58.081  1.00  0.00     0.020 A 
HETATM   16  C   UNL     1       4.440  32.251  58.316  1.00  0.00     0.039 A 
HETATM   17  C   UNL     1       5.062  32.897  57.247  1.00  0.00     0.020 A 
HETATM   18  C   UNL     1       5.032  32.324  55.973  1.00  0.00     0.030 A 
BRANCH  16  19
HETATM   19  C   UNL     1       4.484  32.789  59.704  1.00  0.00     0.293 C 
HETATM   20  O   UNL     1       5.093  32.252  60.615  1.00  0.00    -0.259 OA
BRANCH  19  21
HETATM   21  O   UNL     1       3.788  33.951  59.780  1.00  0.00    -0.318 OA
BRANCH  21  22
HETATM   22  C   UNL     1       4.148  34.835  60.853  1.00  0.00     0.174 C 
HETATM   23  C   UNL     1       2.913  35.299  61.599  1.00  0.00     0.034 C 
ENDBRANCH  21  22
ENDBRANCH  19  21
ENDBRANCH  16  19
ENDBRANCH  10  13
ENDBRANCH   8   9
ENDBRANCH   1   8
BRANCH   2  24
HETATM   24  C   UNL     1       6.572  28.083  57.498  1.00  0.00     0.168 C 
BRANCH  24  25
HETATM   25  C   UNL     1       7.683  29.059  57.773  1.00  0.00    -0.023 A 
HETATM   26  C   UNL     1       8.960  28.812  57.275  1.00  0.00     0.125 A 
HETATM   27  N   UNL     1      10.022  29.629  57.457  1.00  0.00    -0.273 NA
HETATM   28  C   UNL     1       9.796  30.769  58.143  1.00  0.00     0.116 A 
HETATM   29  C   UNL     1       8.560  31.129  58.651  1.00  0.00     0.020 A 
HETATM   30  C   UNL     1       7.487  30.265  58.451  1.00  0.00     0.012 A 
ENDBRANCH  24  25
ENDBRANCH   2  24
BRANCH   5  31
HETATM   31  C   UNL     1       7.711  24.350  54.461  1.00  0.00     0.047 A 
HETATM   32  C   UNL     1       8.678  23.614  55.165  1.00  0.00     0.031 A 
HETATM   33  C   UNL     1       9.057  22.324  54.770  1.00  0.00     0.009 A 
HETATM   34  C   UNL     1       8.485  21.729  53.649  1.00  0.00    -0.062 A 
HETATM   35  C   UNL     1       8.848  20.327  53.263  1.00  0.00     0.048 C 
HETATM   36  C   UNL     1       7.519  22.442  52.937  1.00  0.00     0.009 A 
HETATM   37  C   UNL     1       7.147  23.736  53.332  1.00  0.00     0.031 A 
ENDBRANCH   5  31
TORSDOF 9
ENDMDL
MODEL 8
REMARK VINA RESULT:      -9.0      2.804      7.990
REMARK  9 active torsions:
REMARK  status: ('A' for Active; 'I' for Inactive)
REMARK    1  A    between atoms: C_2  and  O_3 
REMARK    2  A    between atoms: O_3  and  C_4 
REMARK    3  A    between atoms: C_4  and  C_5 
REMARK    4  A    between atoms: C_8  and  N_9 
REMARK       I    between atoms: N_9  and  C_10 
REMARK    5  A    between atoms: C_10  and  C_11 
REMARK    6  A    between atoms: C_11  and  C_12 
REMARK    7  A    between atoms: N_13  and  C_14 
REMARK    8  A    between atoms: C_14  and  C_15 
REMARK    9  A    between atoms: N_23  and  C_24 
ROOT
HETATM    1  C   UNL     1       4.675  29.447  53.548  1.00  0.00     0.191 A 
HETATM    2  N   UNL     1       5.580  28.655  52.741  1.00  0.00    -0.315 N 
HETATM    3  C   UNL     1       5.211  28.626  51.403  1.00  0.00     0.333 A 
HETATM    4  O   UNL     1       5.840  27.995  50.565  1.00  0.00    -0.246 OA
HETATM    5  N   UNL     1       4.073  29.388  51.241  1.00  0.00    -0.232 N 
HETATM    6  C   UNL     1       3.721  29.941  52.455  1.00  0.00     0.256 A 
HETATM    7  O   UNL     1       2.807  30.721  52.708  1.00  0.00    -0.270 OA
ENDROOT
BRANCH   1   8
HETATM    8  C   UNL     1       3.838  28.708  54.586  1.00  0.00     0.138 C 
BRANCH   8   9
HETATM    9  C   UNL     1       4.071  29.143  56.004  1.00  0.00     0.224 C 
HETATM   10  N   UNL     1       4.753  28.418  56.924  1.00  0.00    -0.327 N 
HETATM   11  H   UNL     1       4.649  28.850  57.838  1.00  0.00     0.169 HD
HETATM   12  O   UNL     1       3.563  30.199  56.400  1.00  0.00    -0.273 OA
BRANCH  10  13
HETATM   13  C   UNL     1       5.556  27.268  56.909  1.00  0.00     0.034 A 
HETATM   14  C   UNL     1       5.102  25.952  56.928  1.00  0.00     0.030 A 
HETATM   15  C   UNL     1       6.017  24.887  56.857  1.00  0.00     0.020 A 
HETATM   16  C   UNL     1       7.395  25.125  56.762  1.00  0.00     0.039 A 
HETATM   17  C   UNL     1       7.851  26.444  56.750  1.00  0.00     0.020 A 
HETATM   18  C   UNL     1       6.938  27.499  56.814  1.00  0.00     0.030 A 
BRANCH  16  19
HETATM   19  C   UNL     1       8.319  23.963  56.643  1.00  0.00     0.293 C 
HETATM   20  O   UNL     1       9.516  24.030  56.865  1.00  0.00    -0.259 OA
BRANCH  19  21
HETATM   21  O   UNL     1       7.630  22.848  56.292  1.00  0.00    -0.318 OA
BRANCH  21  22
HETATM   22  C   UNL     1       8.324  21.601  56.444  1.00  0.00     0.174 C 
HETATM   23  C   UNL     1       8.110  20.720  55.229  1.00  0.00     0.034 C 
ENDBRANCH  21  22
ENDBRANCH  19  21
ENDBRANCH  16  19
ENDBRANCH  10  13
ENDBRANCH   8   9
ENDBRANCH   1   8
BRANCH   2  24
HETATM   24  C   UNL     1       6.794  28.011  53.226  1.00  0.00     0.168 C 
BRANCH  24  25
HETATM   25  C   UNL     1       6.754  26.508  53.197  1.00  0.00    -0.023 A 
HETATM   26  C   UNL     1       5.538  25.844  53.336  1.00  0.00     0.125 A 
HETATM   27  N   UNL     1       5.394  24.500  53.313  1.00  0.00    -0.273 NA
HETATM   28  C   UNL     1       6.515  23.776  53.110  1.00  0.00     0.116 A 
HETATM   29  C   UNL     1       7.768  24.334  52.925  1.00  0.00     0.020 A 
HETATM   30  C   UNL     1       7.884  25.721  52.958  1.00  0.00     0.012 A 
ENDBRANCH  24  25
ENDBRANCH   2  24
BRANCH   5  31
HETATM   31  C   UNL     1       3.372  29.557  50.008  1.00  0.00     0.047 A 
HETATM   32  C   UNL     1       2.300  28.721  49.652  1.00  0.00     0.031 A 
HETATM   33  C   UNL     1       1.580  28.908  48.465  1.00  0.00     0.009 A 
HETATM   34  C   UNL     1       1.915  29.937  47.587  1.00  0.00    -0.062 A 
HETATM   35  C   UNL     1       1.106  30.173  46.347  1.00  0.00     0.048 C 
HETATM   36  C   UNL     1       2.974  30.781  47.924  1.00  0.00     0.009 A 
HETATM   37  C   UNL     1       3.697  30.586  49.111  1.00  0.00     0.031 A 
ENDBRANCH   5  31
TORSDOF 9
ENDMDL
MODEL 9
REMARK VINA RESULT:      -8.8      3.692      6.370
REMARK  9 active torsions:
REMARK  status: ('A' for Active; 'I' for Inactive)
REMARK    1  A    between atoms: C_2  and  O_3 
REMARK    2  A    between atoms: O_3  and  C_4 
REMARK    3  A    between atoms: C_4  and  C_5 
REMARK    4  A    between atoms: C_8  and  N_9 
REMARK       I    between atoms: N_9  and  C_10 
REMARK    5  A    between atoms: C_10  and  C_11 
REMARK    6  A    between atoms: C_11  and  C_12 
REMARK    7  A    between atoms: N_13  and  C_14 
REMARK    8  A    between atoms: C_14  and  C_15 
REMARK    9  A    between atoms: N_23  and  C_24 
ROOT
HETATM    1  C   UNL     1       5.602  27.666  55.252  1.00  0.00     0.191 A 
HETATM    2  N   UNL     1       4.888  27.297  54.047  1.00  0.00    -0.315 N 
HETATM    3  C   UNL     1       5.272  26.054  53.561  1.00  0.00     0.333 A 
HETATM    4  O   UNL     1       4.795  25.575  52.542  1.00  0.00    -0.246 OA
HETATM    5  N   UNL     1       6.232  25.529  54.400  1.00  0.00    -0.232 N 
HETATM    6  C   UNL     1       6.448  26.403  55.445  1.00  0.00     0.256 A 
HETATM    7  O   UNL     1       7.181  26.267  56.422  1.00  0.00    -0.270 OA
ENDROOT
BRANCH   1   8
HETATM    8  C   UNL     1       6.559  28.849  55.160  1.00  0.00     0.138 C 
BRANCH   8   9
HETATM    9  C   UNL     1       6.710  29.632  56.433  1.00  0.00     0.224 C 
HETATM   10  N   UNL     1       5.997  30.744  56.735  1.00  0.00    -0.327 N 
HETATM   11  H   UNL     1       6.381  31.171  57.573  1.00  0.00     0.169 HD
HETATM   12  O   UNL     1       7.580  29.296  57.245  1.00  0.00    -0.273 OA
BRANCH  10  13
HETATM   13  C   UNL     1       4.885  31.407  56.196  1.00  0.00     0.034 A 
HETATM   14  C   UNL     1       4.910  32.603  55.484  1.00  0.00     0.030 A 
HETATM   15  C   UNL     1       3.722  33.135  54.952  1.00  0.00     0.020 A 
HETATM   16  C   UNL     1       2.497  32.476  55.123  1.00  0.00     0.039 A 
HETATM   17  C   UNL     1       2.470  31.281  55.843  1.00  0.00     0.020 A 
HETATM   18  C   UNL     1       3.654  30.753  56.364  1.00  0.00     0.030 A 
BRANCH  16  19
HETATM   19  C   UNL     1       1.275  33.057  54.502  1.00  0.00     0.293 C 
HETATM   20  O   UNL     1       1.186  33.327  53.316  1.00  0.00    -0.259 OA
BRANCH  19  21
HETATM   21  O   UNL     1       0.299  33.204  55.433  1.00  0.00    -0.318 OA
BRANCH  21  22
HETATM   22  C   UNL     1      -1.048  33.022  54.971  1.00  0.00     0.174 C 
HETATM   23  C   UNL     1      -1.902  34.223  55.330  1.00  0.00     0.034 C 
ENDBRANCH  21  22
ENDBRANCH  19  21
ENDBRANCH  16  19
ENDBRANCH  10  13
ENDBRANCH   8   9
ENDBRANCH   1   8
BRANCH   2  24
HETATM   24  C   UNL     1       3.825  28.078  53.428  1.00  0.00     0.168 C 
BRANCH  24  25
HETATM   25  C   UNL     1       4.308  29.169  52.513  1.00  0.00    -0.023 A 
HETATM   26  C   UNL     1       5.335  28.911  51.608  1.00  0.00     0.125 A 
HETATM   27  N   UNL     1       5.834  29.817  50.738  1.00  0.00    -0.273 NA
HETATM   28  C   UNL     1       5.260  31.039  50.745  1.00  0.00     0.116 A 
HETATM   29  C   UNL     1       4.212  31.392  51.576  1.00  0.00     0.020 A 
HETATM   30  C   UNL     1       3.723  30.438  52.463  1.00  0.00     0.012 A 
ENDBRANCH  24  25
ENDBRANCH   2  24
BRANCH   5  31
HETATM   31  C   UNL     1       6.899  24.282  54.197  1.00  0.00     0.047 A 
HETATM   32  C   UNL     1       7.012  23.333  55.227  1.00  0.00     0.031 A 
HETATM   33  C   UNL     1       7.627  22.091  55.023  1.00  0.00     0.009 A 
HETATM   34  C   UNL     1       8.158  21.758  53.779  1.00  0.00    -0.062 A 
HETATM   35  C   UNL     1       8.762  20.406  53.547  1.00  0.00     0.048 C 
HETATM   36  C   UNL     1       8.054  22.686  52.742  1.00  0.00     0.009 A 
HETATM   37  C   UNL     1       7.444  23.932  52.952  1.00  0.00     0.031 A 
ENDBRANCH   5  31
TORSDOF 9
ENDMDL
MODEL 10
REMARK VINA RESULT:      -8.6      3.387      7.387
REMARK  9 active torsions:
REMARK  status: ('A' for Active; 'I' for Inactive)
REMARK    1  A    between atoms: C_2  and  O_3 
REMARK    2  A    between atoms: O_3  and  C_4 
REMARK    3  A    between atoms: C_4  and  C_5 
REMARK    4  A    between atoms: C_8  and  N_9 
REMARK       I    between atoms: N_9  and  C_10 
REMARK    5  A    between atoms: C_10  and  C_11 
REMARK    6  A    between atoms: C_11  and  C_12 
REMARK    7  A    between atoms: N_13  and  C_14 
REMARK    8  A    between atoms: C_14  and  C_15 
REMARK    9  A    between atoms: N_23  and  C_24 
ROOT
HETATM    1  C   UNL     1       5.235  31.069  57.573  1.00  0.00     0.191 A 
HETATM    2  N   UNL     1       6.600  30.588  57.601  1.00  0.00    -0.315 N 
HETATM    3  C   UNL     1       7.255  30.919  58.780  1.00  0.00     0.333 A 
HETATM    4  O   UNL     1       8.422  30.616  58.986  1.00  0.00    -0.246 OA
HETATM    5  N   UNL     1       6.383  31.613  59.591  1.00  0.00    -0.232 N 
HETATM    6  C   UNL     1       5.156  31.703  58.966  1.00  0.00     0.256 A 
HETATM    7  O   UNL     1       4.112  32.192  59.388  1.00  0.00    -0.270 OA
ENDROOT
BRANCH   1   8
HETATM    8  C   UNL     1       4.899  32.154  56.556  1.00  0.00     0.138 C 
BRANCH   8   9
HETATM    9  C   UNL     1       3.478  32.140  56.070  1.00  0.00     0.224 C 
HETATM   10  N   UNL     1       3.065  31.527  54.935  1.00  0.00    -0.327 N 
HETATM   11  H   UNL     1       2.099  31.782  54.748  1.00  0.00     0.169 HD
HETATM   12  O   UNL     1       2.623  32.777  56.698  1.00  0.00    -0.273 OA
BRANCH  10  13
HETATM   13  C   UNL     1       3.627  30.641  54.004  1.00  0.00     0.034 A 
HETATM   14  C   UNL     1       3.986  30.948  52.694  1.00  0.00     0.030 A 
HETATM   15  C   UNL     1       4.591  29.975  51.880  1.00  0.00     0.020 A 
HETATM   16  C   UNL     1       4.848  28.686  52.366  1.00  0.00     0.039 A 
HETATM   17  C   UNL     1       4.482  28.375  53.677  1.00  0.00     0.020 A 
HETATM   18  C   UNL     1       3.887  29.348  54.484  1.00  0.00     0.030 A 
BRANCH  16  19
HETATM   19  C   UNL     1       5.531  27.705  51.479  1.00  0.00     0.293 C 
HETATM   20  O   UNL     1       5.439  27.720  50.262  1.00  0.00    -0.259 OA
BRANCH  19  21
HETATM   21  O   UNL     1       6.274  26.842  52.216  1.00  0.00    -0.318 OA
BRANCH  21  22
HETATM   22  C   UNL     1       6.148  25.452  51.878  1.00  0.00     0.174 C 
HETATM   23  C   UNL     1       4.942  24.842  52.565  1.00  0.00     0.034 C 
ENDBRANCH  21  22
ENDBRANCH  19  21
ENDBRANCH  16  19
ENDBRANCH  10  13
ENDBRANCH   8   9
ENDBRANCH   1   8
BRANCH   2  24
HETATM   24  C   UNL     1       7.228  29.778  56.565  1.00  0.00     0.168 C 
BRANCH  24  25
HETATM   25  C   UNL     1       7.197  28.298  56.831  1.00  0.00    -0.023 A 
HETATM   26  C   UNL     1       8.368  27.634  57.187  1.00  0.00     0.125 A 
HETATM   27  N   UNL     1       8.445  26.311  57.455  1.00  0.00    -0.273 NA
HETATM   28  C   UNL     1       7.290  25.615  57.398  1.00  0.00     0.116 A 
HETATM   29  C   UNL     1       6.065  26.181  57.089  1.00  0.00     0.020 A 
HETATM   30  C   UNL     1       6.020  27.545  56.814  1.00  0.00     0.012 A 
ENDBRANCH  24  25
ENDBRANCH   2  24
BRANCH   5  31
HETATM   31  C   UNL     1       6.714  32.159  60.869  1.00  0.00     0.047 A 
HETATM   32  C   UNL     1       6.215  33.402  61.289  1.00  0.00     0.031 A 
HETATM   33  C   UNL     1       6.501  33.924  62.557  1.00  0.00     0.009 A 
HETATM   34  C   UNL     1       7.305  33.218  63.449  1.00  0.00    -0.062 A 
HETATM   35  C   UNL     1       7.561  33.750  64.828  1.00  0.00     0.048 C 
HETATM   36  C   UNL     1       7.809  31.978  63.053  1.00  0.00     0.009 A 
HETATM   37  C   UNL     1       7.526  31.463  61.779  1.00  0.00     0.031 A 
ENDBRANCH   5  31
TORSDOF 9
ENDMDL
