MODEL 1
REMARK VINA RESULT:     -10.3      0.000      0.000
REMARK  5 active torsions:
REMARK  status: ('A' for Active; 'I' for Inactive)
REMARK    1  A    between atoms: C_3  and  O_4 
REMARK    2  A    between atoms: O_4  and  C_5 
REMARK    3  A    between atoms: C_5  and  C_6 
REMARK    4  A    between atoms: C_13  and  N_14 
REMARK       I    between atoms: N_14  and  C_15 
REMARK    5  A    between atoms: C_15  and  C_16 
ROOT
HETATM    1  N   UNL     1       8.270  27.964  56.613  1.00  0.00    -0.323 N 
HETATM    2  C   UNL     1       7.987  26.668  57.008  1.00  0.00     0.258 C 
HETATM    3  O   UNL     1       7.980  26.244  58.158  1.00  0.00    -0.267 OA
HETATM    4  H   UNL     1       8.091  28.206  55.649  1.00  0.00     0.169 HD
ENDROOT
BRANCH   1   5
HETATM    5  C   UNL     1       8.710  29.032  57.427  1.00  0.00     0.037 A 
HETATM    6  C   UNL     1       8.038  29.484  58.565  1.00  0.00     0.066 A 
HETATM    7  C   UNL     1       8.542  30.547  59.327  1.00  0.00     0.071 A 
HETATM    8  C   UNL     1       9.741  31.153  58.955  1.00  0.00     0.037 A 
HETATM    9  C   UNL     1      10.422  30.708  57.822  1.00  0.00     0.005 A 
HETATM   10  C   UNL     1       9.909  29.657  57.063  1.00  0.00     0.029 A 
BRANCH   7  11
HETATM   11  O   UNL     1       7.771  30.890  60.405  1.00  0.00    -0.347 OA
BRANCH  11  12
HETATM   12  C   UNL     1       8.440  31.120  61.643  1.00  0.00     0.215 C 
BRANCH  12  13
HETATM   13  C   UNL     1       7.508  31.832  62.584  1.00  0.00    -0.017 A 
HETATM   14  C   UNL     1       6.134  31.622  62.531  1.00  0.00     0.125 A 
HETATM   15  N   UNL     1       5.242  32.190  63.375  1.00  0.00    -0.272 NA
HETATM   16  C   UNL     1       5.745  33.012  64.321  1.00  0.00     0.116 A 
HETATM   17  C   UNL     1       7.094  33.286  64.466  1.00  0.00     0.020 A 
HETATM   18  C   UNL     1       7.986  32.682  63.587  1.00  0.00     0.012 A 
ENDBRANCH  12  13
ENDBRANCH  11  12
ENDBRANCH   7  11
ENDBRANCH   1   5
BRANCH   2  19
HETATM   19  C   UNL     1       7.616  25.733  55.906  1.00  0.00     0.059 A 
HETATM   20  C   UNL     1       7.733  24.360  56.082  1.00  0.00     0.057 A 
HETATM   21  C   UNL     1       7.382  23.447  55.087  1.00  0.00    -0.022 A 
HETATM   22  N   UNL     1       8.187  23.663  57.196  1.00  0.00    -0.325 N 
HETATM   23  C   UNL     1       7.618  22.049  55.582  1.00  0.00     0.144 A 
HETATM   24  C   UNL     1       6.911  23.877  53.861  1.00  0.00     0.010 A 
HETATM   25  C   UNL     1       8.168  22.291  56.992  1.00  0.00     0.226 A 
HETATM   26  O   UNL     1       8.521  21.436  57.786  1.00  0.00    -0.273 OA
HETATM   27  C   UNL     1       6.810  25.255  53.645  1.00  0.00     0.002 A 
HETATM   28  C   UNL     1       7.163  26.176  54.652  1.00  0.00     0.019 A 
HETATM   29  H   UNL     1       8.544  24.115  58.032  1.00  0.00     0.169 HD
ENDBRANCH   2  19
TORSDOF 5
ENDMDL
MODEL 2
REMARK VINA RESULT:      -9.9      1.836      2.641
REMARK  5 active torsions:
REMARK  status: ('A' for Active; 'I' for Inactive)
REMARK    1  A    between atoms: C_3  and  O_4 
REMARK    2  A    between atoms: O_4  and  C_5 
REMARK    3  A    between atoms: C_5  and  C_6 
REMARK    4  A    between atoms: C_13  and  N_14 
REMARK       I    between atoms: N_14  and  C_15 
REMARK    5  A    between atoms: C_15  and  C_16 
ROOT
HETATM    1  N   UNL     1       8.711  27.876  57.091  1.00  0.00    -0.323 N 
HETATM    2  C   UNL     1       7.568  27.520  56.397  1.00  0.00     0.258 C 
HETATM    3  O   UNL     1       6.627  28.256  56.119  1.00  0.00    -0.267 OA
HETATM    4  H   UNL     1       9.467  27.207  57.114  1.00  0.00     0.169 HD
ENDROOT
BRANCH   1   5
HETATM    5  C   UNL     1       8.987  29.115  57.712  1.00  0.00     0.037 A 
HETATM    6  C   UNL     1       8.268  29.631  58.792  1.00  0.00     0.066 A 
HETATM    7  C   UNL     1       8.606  30.867  59.361  1.00  0.00     0.071 A 
HETATM    8  C   UNL     1       9.688  31.585  58.852  1.00  0.00     0.037 A 
HETATM    9  C   UNL     1      10.414  31.078  57.775  1.00  0.00     0.005 A 
HETATM   10  C   UNL     1      10.064  29.852  57.208  1.00  0.00     0.029 A 
BRANCH   7  11
HETATM   11  O   UNL     1       7.807  31.253  60.402  1.00  0.00    -0.347 OA
BRANCH  11  12
HETATM   12  C   UNL     1       8.352  31.162  61.717  1.00  0.00     0.215 C 
BRANCH  12  13
HETATM   13  C   UNL     1       7.459  31.900  62.675  1.00  0.00    -0.017 A 
HETATM   14  C   UNL     1       6.079  31.727  62.649  1.00  0.00     0.125 A 
HETATM   15  N   UNL     1       5.220  32.320  63.511  1.00  0.00    -0.272 NA
HETATM   16  C   UNL     1       5.763  33.130  64.445  1.00  0.00     0.116 A 
HETATM   17  C   UNL     1       7.121  33.368  64.562  1.00  0.00     0.020 A 
HETATM   18  C   UNL     1       7.979  32.739  63.666  1.00  0.00     0.012 A 
ENDBRANCH  12  13
ENDBRANCH  11  12
ENDBRANCH   7  11
ENDBRANCH   1   5
BRANCH   2  19
HETATM   19  C   UNL     1       7.528  26.108  55.916  1.00  0.00     0.059 A 
HETATM   20  C   UNL     1       7.157  25.823  54.608  1.00  0.00     0.057 A 
HETATM   21  C   UNL     1       7.121  24.520  54.109  1.00  0.00    -0.022 A 
HETATM   22  N   UNL     1       6.775  26.703  53.602  1.00  0.00    -0.325 N 
HETATM   23  C   UNL     1       6.689  24.544  52.671  1.00  0.00     0.144 A 
HETATM   24  C   UNL     1       7.444  23.442  54.912  1.00  0.00     0.010 A 
HETATM   25  C   UNL     1       6.467  26.040  52.423  1.00  0.00     0.226 A 
HETATM   26  O   UNL     1       6.091  26.552  51.383  1.00  0.00    -0.273 OA
HETATM   27  C   UNL     1       7.793  23.696  56.241  1.00  0.00     0.002 A 
HETATM   28  C   UNL     1       7.829  25.013  56.743  1.00  0.00     0.019 A 
HETATM   29  H   UNL     1       6.679  27.705  53.741  1.00  0.00     0.169 HD
ENDBRANCH   2  19
TORSDOF 5
ENDMDL
MODEL 3
REMARK VINA RESULT:      -9.9      2.766      9.617
REMARK  5 active torsions:
REMARK  status: ('A' for Active; 'I' for Inactive)
REMARK    1  A    between atoms: C_3  and  O_4 
REMARK    2  A    between atoms: O_4  and  C_5 
REMARK    3  A    between atoms: C_5  and  C_6 
REMARK    4  A    between atoms: C_13  and  N_14 
REMARK       I    between atoms: N_14  and  C_15 
REMARK    5  A    between atoms: C_15  and  C_16 
ROOT
HETATM    1  N   UNL     1       7.715  28.026  55.333  1.00  0.00    -0.323 N 
HETATM    2  C   UNL     1       7.651  28.320  56.684  1.00  0.00     0.258 C 
HETATM    3  O   UNL     1       6.848  27.864  57.490  1.00  0.00    -0.267 OA
HETATM    4  H   UNL     1       8.521  28.358  54.823  1.00  0.00     0.169 HD
ENDROOT
BRANCH   1   5
HETATM    5  C   UNL     1       6.815  27.234  54.585  1.00  0.00     0.037 A 
HETATM    6  C   UNL     1       7.041  25.900  54.237  1.00  0.00     0.066 A 
HETATM    7  C   UNL     1       6.096  25.176  53.497  1.00  0.00     0.071 A 
HETATM    8  C   UNL     1       4.904  25.790  53.115  1.00  0.00     0.037 A 
HETATM    9  C   UNL     1       4.667  27.121  53.458  1.00  0.00     0.005 A 
HETATM   10  C   UNL     1       5.617  27.838  54.186  1.00  0.00     0.029 A 
BRANCH   7  11
HETATM   11  O   UNL     1       6.458  23.886  53.218  1.00  0.00    -0.347 OA
BRANCH  11  12
HETATM   12  C   UNL     1       7.852  23.591  53.173  1.00  0.00     0.215 C 
BRANCH  12  13
HETATM   13  C   UNL     1       8.109  22.304  53.906  1.00  0.00    -0.017 A 
HETATM   14  C   UNL     1       8.405  21.131  53.219  1.00  0.00     0.125 A 
HETATM   15  N   UNL     1       8.694  19.951  53.814  1.00  0.00    -0.272 NA
HETATM   16  C   UNL     1       8.686  19.936  55.165  1.00  0.00     0.116 A 
HETATM   17  C   UNL     1       8.410  21.046  55.945  1.00  0.00     0.020 A 
HETATM   18  C   UNL     1       8.122  22.246  55.304  1.00  0.00     0.012 A 
ENDBRANCH  12  13
ENDBRANCH  11  12
ENDBRANCH   7  11
ENDBRANCH   1   5
BRANCH   2  19
HETATM   19  C   UNL     1       8.704  29.252  57.183  1.00  0.00     0.059 A 
HETATM   20  C   UNL     1       8.394  30.217  58.132  1.00  0.00     0.057 A 
HETATM   21  C   UNL     1       9.348  31.099  58.642  1.00  0.00    -0.022 A 
HETATM   22  N   UNL     1       7.166  30.487  58.727  1.00  0.00    -0.325 N 
HETATM   23  C   UNL     1       8.705  32.012  59.645  1.00  0.00     0.144 A 
HETATM   24  C   UNL     1      10.659  31.058  58.205  1.00  0.00     0.010 A 
HETATM   25  C   UNL     1       7.247  31.540  59.628  1.00  0.00     0.226 A 
HETATM   26  O   UNL     1       6.330  32.003  60.283  1.00  0.00    -0.273 OA
HETATM   27  C   UNL     1      10.994  30.115  57.229  1.00  0.00     0.002 A 
HETATM   28  C   UNL     1      10.029  29.224  56.717  1.00  0.00     0.019 A 
HETATM   29  H   UNL     1       6.307  30.005  58.482  1.00  0.00     0.169 HD
ENDBRANCH   2  19
TORSDOF 5
ENDMDL
MODEL 4
REMARK VINA RESULT:      -9.7      1.653      2.333
REMARK  5 active torsions:
REMARK  status: ('A' for Active; 'I' for Inactive)
REMARK    1  A    between atoms: C_3  and  O_4 
REMARK    2  A    between atoms: O_4  and  C_5 
REMARK    3  A    between atoms: C_5  and  C_6 
REMARK    4  A    between atoms: C_13  and  N_14 
REMARK       I    between atoms: N_14  and  C_15 
REMARK    5  A    between atoms: C_15  and  C_16 
ROOT
HETATM    1  N   UNL     1       7.400  26.777  55.390  1.00  0.00    -0.323 N 
HETATM    2  C   UNL     1       6.812  25.541  55.594  1.00  0.00     0.258 C 
HETATM    3  O   UNL     1       5.937  25.279  56.413  1.00  0.00    -0.267 OA
HETATM    4  H   UNL     1       7.996  26.879  54.580  1.00  0.00     0.169 HD
ENDROOT
BRANCH   1   5
HETATM    5  C   UNL     1       7.200  27.957  56.141  1.00  0.00     0.037 A 
HETATM    6  C   UNL     1       7.821  28.228  57.362  1.00  0.00     0.066 A 
HETATM    7  C   UNL     1       7.578  29.427  58.045  1.00  0.00     0.071 A 
HETATM    8  C   UNL     1       6.715  30.373  57.492  1.00  0.00     0.037 A 
HETATM    9  C   UNL     1       6.090  30.113  56.272  1.00  0.00     0.005 A 
HETATM   10  C   UNL     1       6.330  28.913  55.602  1.00  0.00     0.029 A 
BRANCH   7  11
HETATM   11  O   UNL     1       8.243  29.550  59.235  1.00  0.00    -0.347 OA
BRANCH  11  12
HETATM   12  C   UNL     1       9.027  30.726  59.430  1.00  0.00     0.215 C 
BRANCH  12  13
HETATM   13  C   UNL     1       8.448  31.522  60.567  1.00  0.00    -0.017 A 
HETATM   14  C   UNL     1       7.310  32.302  60.393  1.00  0.00     0.125 A 
HETATM   15  N   UNL     1       6.708  33.004  61.381  1.00  0.00    -0.272 NA
HETATM   16  C   UNL     1       7.270  32.927  62.606  1.00  0.00     0.116 A 
HETATM   17  C   UNL     1       8.398  32.177  62.890  1.00  0.00     0.020 A 
HETATM   18  C   UNL     1       8.991  31.462  61.855  1.00  0.00     0.012 A 
ENDBRANCH  12  13
ENDBRANCH  11  12
ENDBRANCH   7  11
ENDBRANCH   1   5
BRANCH   2  19
HETATM   19  C   UNL     1       7.278  24.455  54.684  1.00  0.00     0.059 A 
HETATM   20  C   UNL     1       7.705  23.239  55.204  1.00  0.00     0.057 A 
HETATM   21  C   UNL     1       8.134  22.189  54.392  1.00  0.00    -0.022 A 
HETATM   22  N   UNL     1       7.789  22.845  56.535  1.00  0.00    -0.325 N 
HETATM   23  C   UNL     1       8.524  21.018  55.248  1.00  0.00     0.144 A 
HETATM   24  C   UNL     1       8.166  22.321  53.016  1.00  0.00     0.010 A 
HETATM   25  C   UNL     1       8.274  21.552  56.662  1.00  0.00     0.226 A 
HETATM   26  O   UNL     1       8.465  20.950  57.705  1.00  0.00    -0.273 OA
HETATM   27  C   UNL     1       7.769  23.543  52.466  1.00  0.00     0.002 A 
HETATM   28  C   UNL     1       7.335  24.603  53.288  1.00  0.00     0.019 A 
HETATM   29  H   UNL     1       7.575  23.459  57.315  1.00  0.00     0.169 HD
ENDBRANCH   2  19
TORSDOF 5
ENDMDL
MODEL 5
REMARK VINA RESULT:      -9.5      1.931      9.655
REMARK  5 active torsions:
REMARK  status: ('A' for Active; 'I' for Inactive)
REMARK    1  A    between atoms: C_3  and  O_4 
REMARK    2  A    between atoms: O_4  and  C_5 
REMARK    3  A    between atoms: C_5  and  C_6 
REMARK    4  A    between atoms: C_13  and  N_14 
REMARK       I    between atoms: N_14  and  C_15 
REMARK    5  A    between atoms: C_15  and  C_16 
ROOT
HETATM    1  N   UNL     1       8.293  30.746  60.030  1.00  0.00    -0.323 N 
HETATM    2  C   UNL     1       7.507  31.880  60.139  1.00  0.00     0.258 C 
HETATM    3  O   UNL     1       6.995  32.501  59.214  1.00  0.00    -0.267 OA
HETATM    4  H   UNL     1       8.520  30.255  60.883  1.00  0.00     0.169 HD
ENDROOT
BRANCH   1   5
HETATM    5  C   UNL     1       8.757  30.135  58.843  1.00  0.00     0.037 A 
HETATM    6  C   UNL     1       8.135  29.050  58.222  1.00  0.00     0.066 A 
HETATM    7  C   UNL     1       8.652  28.501  57.040  1.00  0.00     0.071 A 
HETATM    8  C   UNL     1       9.795  29.055  56.466  1.00  0.00     0.037 A 
HETATM    9  C   UNL     1      10.423  30.141  57.077  1.00  0.00     0.005 A 
HETATM   10  C   UNL     1       9.908  30.675  58.258  1.00  0.00     0.029 A 
BRANCH   7  11
HETATM   11  O   UNL     1       7.948  27.434  56.552  1.00  0.00    -0.347 OA
BRANCH  11  12
HETATM   12  C   UNL     1       7.808  26.296  57.401  1.00  0.00     0.215 C 
BRANCH  12  13
HETATM   13  C   UNL     1       7.825  25.049  56.563  1.00  0.00    -0.017 A 
HETATM   14  C   UNL     1       8.426  23.881  57.022  1.00  0.00     0.125 A 
HETATM   15  N   UNL     1       8.437  22.711  56.343  1.00  0.00    -0.272 NA
HETATM   16  C   UNL     1       7.819  22.702  55.142  1.00  0.00     0.116 A 
HETATM   17  C   UNL     1       7.186  23.805  54.594  1.00  0.00     0.020 A 
HETATM   18  C   UNL     1       7.187  24.992  55.319  1.00  0.00     0.012 A 
ENDBRANCH  12  13
ENDBRANCH  11  12
ENDBRANCH   7  11
ENDBRANCH   1   5
BRANCH   2  19
HETATM   19  C   UNL     1       7.239  32.339  61.533  1.00  0.00     0.059 A 
HETATM   20  C   UNL     1       5.980  32.803  61.889  1.00  0.00     0.057 A 
HETATM   21  C   UNL     1       5.678  33.226  63.184  1.00  0.00    -0.022 A 
HETATM   22  N   UNL     1       4.846  32.935  61.095  1.00  0.00    -0.325 N 
HETATM   23  C   UNL     1       4.243  33.664  63.249  1.00  0.00     0.144 A 
HETATM   24  C   UNL     1       6.639  33.214  64.179  1.00  0.00     0.010 A 
HETATM   25  C   UNL     1       3.771  33.447  61.807  1.00  0.00     0.226 A 
HETATM   26  O   UNL     1       2.658  33.680  61.368  1.00  0.00    -0.273 OA
HETATM   27  C   UNL     1       7.923  32.779  63.842  1.00  0.00     0.002 A 
HETATM   28  C   UNL     1       8.226  32.350  62.533  1.00  0.00     0.019 A 
HETATM   29  H   UNL     1       4.833  32.733  60.100  1.00  0.00     0.169 HD
ENDBRANCH   2  19
TORSDOF 5
ENDMDL
MODEL 6
REMARK VINA RESULT:      -9.4      6.794     10.455
REMARK  5 active torsions:
REMARK  status: ('A' for Active; 'I' for Inactive)
REMARK    1  A    between atoms: C_3  and  O_4 
REMARK    2  A    between atoms: O_4  and  C_5 
REMARK    3  A    between atoms: C_5  and  C_6 
REMARK    4  A    between atoms: C_13  and  N_14 
REMARK       I    between atoms: N_14  and  C_15 
REMARK    5  A    between atoms: C_15  and  C_16 
ROOT
HETATM    1  N   UNL     1       6.331  25.877  53.212  1.00  0.00    -0.323 N 
HETATM    2  C   UNL     1       7.506  25.145  53.193  1.00  0.00     0.258 C 
HETATM    3  O   UNL     1       8.341  25.136  52.295  1.00  0.00    -0.267 OA
HETATM    4  H   UNL     1       5.815  25.904  54.080  1.00  0.00     0.169 HD
ENDROOT
BRANCH   1   5
HETATM    5  C   UNL     1       5.799  26.672  52.172  1.00  0.00     0.037 A 
HETATM    6  C   UNL     1       5.123  26.164  51.060  1.00  0.00     0.066 A 
HETATM    7  C   UNL     1       4.616  27.018  50.072  1.00  0.00     0.071 A 
HETATM    8  C   UNL     1       4.773  28.397  50.206  1.00  0.00     0.037 A 
HETATM    9  C   UNL     1       5.444  28.915  51.314  1.00  0.00     0.005 A 
HETATM   10  C   UNL     1       5.955  28.058  52.288  1.00  0.00     0.029 A 
BRANCH   7  11
HETATM   11  O   UNL     1       3.990  26.381  49.035  1.00  0.00    -0.347 OA
BRANCH  11  12
HETATM   12  C   UNL     1       4.194  26.905  47.724  1.00  0.00     0.215 C 
BRANCH  12  13
HETATM   13  C   UNL     1       2.915  27.525  47.235  1.00  0.00    -0.017 A 
HETATM   14  C   UNL     1       1.801  26.743  46.947  1.00  0.00     0.125 A 
HETATM   15  N   UNL     1       0.605  27.237  46.551  1.00  0.00    -0.272 NA
HETATM   16  C   UNL     1       0.513  28.579  46.432  1.00  0.00     0.116 A 
HETATM   17  C   UNL     1       1.557  29.449  46.698  1.00  0.00     0.020 A 
HETATM   18  C   UNL     1       2.772  28.911  47.110  1.00  0.00     0.012 A 
ENDBRANCH  12  13
ENDBRANCH  11  12
ENDBRANCH   7  11
ENDBRANCH   1   5
BRANCH   2  19
HETATM   19  C   UNL     1       7.773  24.335  54.417  1.00  0.00     0.059 A 
HETATM   20  C   UNL     1       8.013  22.971  54.317  1.00  0.00     0.057 A 
HETATM   21  C   UNL     1       8.284  22.176  55.432  1.00  0.00    -0.022 A 
HETATM   22  N   UNL     1       8.033  22.174  53.178  1.00  0.00    -0.325 N 
HETATM   23  C   UNL     1       8.501  20.756  54.996  1.00  0.00     0.144 A 
HETATM   24  C   UNL     1       8.309  22.720  56.703  1.00  0.00     0.010 A 
HETATM   25  C   UNL     1       8.302  20.847  53.479  1.00  0.00     0.226 A 
HETATM   26  O   UNL     1       8.368  19.924  52.686  1.00  0.00    -0.273 OA
HETATM   27  C   UNL     1       8.043  24.085  56.837  1.00  0.00     0.002 A 
HETATM   28  C   UNL     1       7.771  24.887  55.710  1.00  0.00     0.019 A 
HETATM   29  H   UNL     1       7.817  22.521  52.248  1.00  0.00     0.169 HD
ENDBRANCH   2  19
TORSDOF 5
ENDMDL
MODEL 7
REMARK VINA RESULT:      -9.3      7.034     10.807
REMARK  5 active torsions:
REMARK  status: ('A' for Active; 'I' for Inactive)
REMARK    1  A    between atoms: C_3  and  O_4 
REMARK    2  A    between atoms: O_4  and  C_5 
REMARK    3  A    between atoms: C_5  and  C_6 
REMARK    4  A    between atoms: C_13  and  N_14 
REMARK       I    between atoms: N_14  and  C_15 
REMARK    5  A    between atoms: C_15  and  C_16 
ROOT
HETATM    1  N   UNL     1       4.547  25.975  50.958  1.00  0.00    -0.323 N 
HETATM    2  C   UNL     1       4.540  26.998  50.026  1.00  0.00     0.258 C 
HETATM    3  O   UNL     1       5.249  27.998  50.041  1.00  0.00    -0.267 OA
HETATM    4  H   UNL     1       4.018  25.143  50.737  1.00  0.00     0.169 HD
ENDROOT
BRANCH   1   5
HETATM    5  C   UNL     1       5.281  25.916  52.163  1.00  0.00     0.037 A 
HETATM    6  C   UNL     1       6.450  25.172  52.338  1.00  0.00     0.066 A 
HETATM    7  C   UNL     1       7.128  25.171  53.565  1.00  0.00     0.071 A 
HETATM    8  C   UNL     1       6.639  25.936  54.623  1.00  0.00     0.037 A 
HETATM    9  C   UNL     1       5.473  26.684  54.459  1.00  0.00     0.005 A 
HETATM   10  C   UNL     1       4.798  26.673  53.238  1.00  0.00     0.029 A 
BRANCH   7  11
HETATM   11  O   UNL     1       8.249  24.386  53.595  1.00  0.00    -0.347 OA
BRANCH  11  12
HETATM   12  C   UNL     1       8.182  23.120  52.941  1.00  0.00     0.215 C 
BRANCH  12  13
HETATM   13  C   UNL     1       8.292  22.027  53.967  1.00  0.00    -0.017 A 
HETATM   14  C   UNL     1       8.584  20.719  53.596  1.00  0.00     0.125 A 
HETATM   15  N   UNL     1       8.745  19.697  54.468  1.00  0.00    -0.272 NA
HETATM   16  C   UNL     1       8.608  19.992  55.779  1.00  0.00     0.116 A 
HETATM   17  C   UNL     1       8.325  21.260  56.257  1.00  0.00     0.020 A 
HETATM   18  C   UNL     1       8.169  22.291  55.336  1.00  0.00     0.012 A 
ENDBRANCH  12  13
ENDBRANCH  11  12
ENDBRANCH   7  11
ENDBRANCH   1   5
BRANCH   2  19
HETATM   19  C   UNL     1       3.600  26.813  48.882  1.00  0.00     0.059 A 
HETATM   20  C   UNL     1       2.651  27.784  48.590  1.00  0.00     0.057 A 
HETATM   21  C   UNL     1       1.762  27.664  47.521  1.00  0.00    -0.022 A 
HETATM   22  N   UNL     1       2.406  28.985  49.248  1.00  0.00    -0.325 N 
HETATM   23  C   UNL     1       0.872  28.871  47.469  1.00  0.00     0.144 A 
HETATM   24  C   UNL     1       1.780  26.548  46.704  1.00  0.00     0.010 A 
HETATM   25  C   UNL     1       1.364  29.691  48.666  1.00  0.00     0.226 A 
HETATM   26  O   UNL     1       0.922  30.765  49.036  1.00  0.00    -0.273 OA
HETATM   27  C   UNL     1       2.706  25.541  46.992  1.00  0.00     0.002 A 
HETATM   28  C   UNL     1       3.604  25.666  48.072  1.00  0.00     0.019 A 
HETATM   29  H   UNL     1       2.897  29.273  50.089  1.00  0.00     0.169 HD
ENDBRANCH   2  19
TORSDOF 5
ENDMDL
MODEL 8
REMARK VINA RESULT:      -9.2      5.187      9.419
REMARK  5 active torsions:
REMARK  status: ('A' for Active; 'I' for Inactive)
REMARK    1  A    between atoms: C_3  and  O_4 
REMARK    2  A    between atoms: O_4  and  C_5 
REMARK    3  A    between atoms: C_5  and  C_6 
REMARK    4  A    between atoms: C_13  and  N_14 
REMARK       I    between atoms: N_14  and  C_15 
REMARK    5  A    between atoms: C_15  and  C_16 
ROOT
HETATM    1  N   UNL     1       6.547  27.999  52.937  1.00  0.00    -0.323 N 
HETATM    2  C   UNL     1       5.319  27.838  52.319  1.00  0.00     0.258 C 
HETATM    3  O   UNL     1       4.323  27.316  52.808  1.00  0.00    -0.267 OA
HETATM    4  H   UNL     1       7.228  28.581  52.470  1.00  0.00     0.169 HD
ENDROOT
BRANCH   1   5
HETATM    5  C   UNL     1       6.942  27.508  54.201  1.00  0.00     0.037 A 
HETATM    6  C   UNL     1       7.044  26.153  54.523  1.00  0.00     0.066 A 
HETATM    7  C   UNL     1       7.451  25.743  55.800  1.00  0.00     0.071 A 
HETATM    8  C   UNL     1       7.775  26.700  56.760  1.00  0.00     0.037 A 
HETATM    9  C   UNL     1       7.679  28.057  56.449  1.00  0.00     0.005 A 
HETATM   10  C   UNL     1       7.264  28.457  55.179  1.00  0.00     0.029 A 
BRANCH   7  11
HETATM   11  O   UNL     1       7.491  24.386  55.977  1.00  0.00    -0.347 OA
BRANCH  11  12
HETATM   12  C   UNL     1       8.763  23.749  55.879  1.00  0.00     0.215 C 
BRANCH  12  13
HETATM   13  C   UNL     1       8.647  22.549  54.980  1.00  0.00    -0.017 A 
HETATM   14  C   UNL     1       9.001  21.280  55.425  1.00  0.00     0.125 A 
HETATM   15  N   UNL     1       8.877  20.152  54.689  1.00  0.00    -0.272 NA
HETATM   16  C   UNL     1       8.375  20.294  53.443  1.00  0.00     0.116 A 
HETATM   17  C   UNL     1       7.987  21.508  52.903  1.00  0.00     0.020 A 
HETATM   18  C   UNL     1       8.121  22.650  53.687  1.00  0.00     0.012 A 
ENDBRANCH  12  13
ENDBRANCH  11  12
ENDBRANCH   7  11
ENDBRANCH   1   5
BRANCH   2  19
HETATM   19  C   UNL     1       5.218  28.405  50.943  1.00  0.00     0.059 A 
HETATM   20  C   UNL     1       4.667  27.653  49.913  1.00  0.00     0.057 A 
HETATM   21  C   UNL     1       4.536  28.147  48.614  1.00  0.00    -0.022 A 
HETATM   22  N   UNL     1       4.169  26.355  49.955  1.00  0.00    -0.325 N 
HETATM   23  C   UNL     1       3.905  27.102  47.740  1.00  0.00     0.144 A 
HETATM   24  C   UNL     1       4.970  29.419  48.290  1.00  0.00     0.010 A 
HETATM   25  C   UNL     1       3.707  25.937  48.716  1.00  0.00     0.226 A 
HETATM   26  O   UNL     1       3.231  24.847  48.452  1.00  0.00    -0.273 OA
HETATM   27  C   UNL     1       5.555  30.188  49.300  1.00  0.00     0.002 A 
HETATM   28  C   UNL     1       5.685  29.688  50.612  1.00  0.00     0.019 A 
HETATM   29  H   UNL     1       4.200  25.771  50.785  1.00  0.00     0.169 HD
ENDBRANCH   2  19
TORSDOF 5
ENDMDL
MODEL 9
REMARK VINA RESULT:      -9.1      2.469      9.733
REMARK  5 active torsions:
REMARK  status: ('A' for Active; 'I' for Inactive)
REMARK    1  A    between atoms: C_3  and  O_4 
REMARK    2  A    between atoms: O_4  and  C_5 
REMARK    3  A    between atoms: C_5  and  C_6 
REMARK    4  A    between atoms: C_13  and  N_14 
REMARK       I    between atoms: N_14  and  C_15 
REMARK    5  A    between atoms: C_15  and  C_16 
ROOT
HETATM    1  N   UNL     1       6.622  29.970  58.329  1.00  0.00    -0.323 N 
HETATM    2  C   UNL     1       6.768  31.317  58.612  1.00  0.00     0.258 C 
HETATM    3  O   UNL     1       6.194  32.244  58.050  1.00  0.00    -0.267 OA
HETATM    4  H   UNL     1       7.041  29.313  58.972  1.00  0.00     0.169 HD
ENDROOT
BRANCH   1   5
HETATM    5  C   UNL     1       5.875  29.390  57.279  1.00  0.00     0.037 A 
HETATM    6  C   UNL     1       6.323  28.332  56.486  1.00  0.00     0.066 A 
HETATM    7  C   UNL     1       5.521  27.804  55.465  1.00  0.00     0.071 A 
HETATM    8  C   UNL     1       4.249  28.332  55.247  1.00  0.00     0.037 A 
HETATM    9  C   UNL     1       3.790  29.388  56.034  1.00  0.00     0.005 A 
HETATM   10  C   UNL     1       4.599  29.915  57.041  1.00  0.00     0.029 A 
BRANCH   7  11
HETATM   11  O   UNL     1       6.094  26.780  54.761  1.00  0.00    -0.347 OA
BRANCH  11  12
HETATM   12  C   UNL     1       5.617  25.460  55.017  1.00  0.00     0.215 C 
BRANCH  12  13
HETATM   13  C   UNL     1       6.622  24.464  54.507  1.00  0.00    -0.017 A 
HETATM   14  C   UNL     1       7.147  23.481  55.339  1.00  0.00     0.125 A 
HETATM   15  N   UNL     1       8.015  22.525  54.936  1.00  0.00    -0.272 NA
HETATM   16  C   UNL     1       8.382  22.550  53.637  1.00  0.00     0.116 A 
HETATM   17  C   UNL     1       7.917  23.479  52.723  1.00  0.00     0.020 A 
HETATM   18  C   UNL     1       7.020  24.446  53.166  1.00  0.00     0.012 A 
ENDBRANCH  12  13
ENDBRANCH  11  12
ENDBRANCH   7  11
ENDBRANCH   1   5
BRANCH   2  19
HETATM   19  C   UNL     1       7.686  31.635  59.744  1.00  0.00     0.059 A 
HETATM   20  C   UNL     1       7.179  31.857  61.018  1.00  0.00     0.057 A 
HETATM   21  C   UNL     1       7.999  32.140  62.110  1.00  0.00    -0.022 A 
HETATM   22  N   UNL     1       5.853  31.844  61.439  1.00  0.00    -0.325 N 
HETATM   23  C   UNL     1       7.156  32.323  63.339  1.00  0.00     0.144 A 
HETATM   24  C   UNL     1       9.371  32.228  61.965  1.00  0.00     0.010 A 
HETATM   25  C   UNL     1       5.738  32.121  62.793  1.00  0.00     0.226 A 
HETATM   26  O   UNL     1       4.702  32.191  63.432  1.00  0.00    -0.273 OA
HETATM   27  C   UNL     1       9.908  32.038  60.689  1.00  0.00     0.002 A 
HETATM   28  C   UNL     1       9.077  31.750  59.586  1.00  0.00     0.019 A 
HETATM   29  H   UNL     1       5.067  31.707  60.811  1.00  0.00     0.169 HD
ENDBRANCH   2  19
TORSDOF 5
ENDMDL
MODEL 10
REMARK VINA RESULT:      -9.0      6.599     10.548
REMARK  5 active torsions:
REMARK  status: ('A' for Active; 'I' for Inactive)
REMARK    1  A    between atoms: C_3  and  O_4 
REMARK    2  A    between atoms: O_4  and  C_5 
REMARK    3  A    between atoms: C_5  and  C_6 
REMARK    4  A    between atoms: C_13  and  N_14 
REMARK       I    between atoms: N_14  and  C_15 
REMARK    5  A    between atoms: C_15  and  C_16 
ROOT
HETATM    1  N   UNL     1       4.292  27.232  51.920  1.00  0.00    -0.323 N 
HETATM    2  C   UNL     1       4.567  27.829  50.702  1.00  0.00     0.258 C 
HETATM    3  O   UNL     1       5.673  27.964  50.192  1.00  0.00    -0.267 OA
HETATM    4  H   UNL     1       3.323  27.056  52.142  1.00  0.00     0.169 HD
ENDROOT
BRANCH   1   5
HETATM    5  C   UNL     1       5.222  26.756  52.871  1.00  0.00     0.037 A 
HETATM    6  C   UNL     1       6.263  25.871  52.580  1.00  0.00     0.066 A 
HETATM    7  C   UNL     1       7.152  25.449  53.578  1.00  0.00     0.071 A 
HETATM    8  C   UNL     1       7.007  25.932  54.878  1.00  0.00     0.037 A 
HETATM    9  C   UNL     1       5.973  26.818  55.179  1.00  0.00     0.005 A 
HETATM   10  C   UNL     1       5.086  27.225  54.183  1.00  0.00     0.029 A 
BRANCH   7  11
HETATM   11  O   UNL     1       8.112  24.572  53.153  1.00  0.00    -0.347 OA
BRANCH  11  12
HETATM   12  C   UNL     1       7.669  23.346  52.573  1.00  0.00     0.215 C 
BRANCH  12  13
HETATM   13  C   UNL     1       8.063  22.205  53.470  1.00  0.00    -0.017 A 
HETATM   14  C   UNL     1       8.192  20.912  52.975  1.00  0.00     0.125 A 
HETATM   15  N   UNL     1       8.589  19.849  53.712  1.00  0.00    -0.272 NA
HETATM   16  C   UNL     1       8.871  20.085  55.011  1.00  0.00     0.116 A 
HETATM   17  C   UNL     1       8.782  21.333  55.604  1.00  0.00     0.020 A 
HETATM   18  C   UNL     1       8.376  22.407  54.819  1.00  0.00     0.012 A 
ENDBRANCH  12  13
ENDBRANCH  11  12
ENDBRANCH   7  11
ENDBRANCH   1   5
BRANCH   2  19
HETATM   19  C   UNL     1       3.374  28.303  49.941  1.00  0.00     0.059 A 
HETATM   20  C   UNL     1       2.911  27.586  48.845  1.00  0.00     0.057 A 
HETATM   21  C   UNL     1       1.790  27.981  48.113  1.00  0.00    -0.022 A 
HETATM   22  N   UNL     1       3.425  26.419  48.290  1.00  0.00    -0.325 N 
HETATM   23  C   UNL     1       1.546  27.003  47.000  1.00  0.00     0.144 A 
HETATM   24  C   UNL     1       1.092  29.127  48.445  1.00  0.00     0.010 A 
HETATM   25  C   UNL     1       2.693  26.004  47.188  1.00  0.00     0.226 A 
HETATM   26  O   UNL     1       2.918  25.025  46.497  1.00  0.00    -0.273 OA
HETATM   27  C   UNL     1       1.552  29.884  49.526  1.00  0.00     0.002 A 
HETATM   28  C   UNL     1       2.684  29.483  50.265  1.00  0.00     0.019 A 
HETATM   29  H   UNL     1       4.271  25.967  48.623  1.00  0.00     0.169 HD
ENDBRANCH   2  19
TORSDOF 5
ENDMDL
