MODEL 1
REMARK VINA RESULT:     -10.6      0.000      0.000
REMARK  12 active torsions:
REMARK  status: ('A' for Active; 'I' for Inactive)
REMARK    1  A    between atoms: C_7  and  N_8 
REMARK    2  A    between atoms: C_12  and  N_13 
REMARK       I    between atoms: N_13  and  C_14 
REMARK    3  A    between atoms: C_14  and  C_15 
REMARK    4  A    between atoms: C_15  and  C_16 
REMARK    5  A    between atoms: C_16  and  C_17 
REMARK    6  A    between atoms: C_17  and  C_18 
REMARK    7  A    between atoms: C_18  and  C_19 
REMARK    8  A    between atoms: C_19  and  C_20 
REMARK    9  A    between atoms: C_20  and  C_21 
REMARK   10  A    between atoms: C_21  and  C_22 
REMARK       I    between atoms: C_22  and  N_23 
REMARK   11  A    between atoms: N_23  and  C_24 
REMARK   12  A    between atoms: C_33  and  N_34 
ROOT
HETATM    1  C   UNL     1       9.116  28.548  57.163  1.00  0.00     0.000 C 
ENDROOT
BRANCH   1   2
HETATM    2  C   UNL     1       8.348  28.611  55.839  1.00  0.00     0.000 C 
BRANCH   2   3
HETATM    3  C   UNL     1       7.102  29.503  55.892  1.00  0.00     0.009 C 
BRANCH   3   4
HETATM    4  C   UNL     1       6.085  29.152  56.982  1.00  0.00     0.103 C 
BRANCH   4   5
HETATM    5  C   UNL     1       4.748  28.691  56.446  1.00  0.00     0.222 C 
HETATM    6  N   UNL     1       4.573  27.436  55.935  1.00  0.00    -0.327 N 
HETATM    7  H   UNL     1       3.609  27.354  55.622  1.00  0.00     0.169 HD
HETATM    8  O   UNL     1       3.761  29.431  56.442  1.00  0.00    -0.273 OA
BRANCH   6   9
HETATM    9  C   UNL     1       5.382  26.300  55.762  1.00  0.00     0.035 A 
HETATM   10  C   UNL     1       5.737  25.392  56.753  1.00  0.00     0.032 A 
HETATM   11  C   UNL     1       6.524  24.273  56.447  1.00  0.00     0.033 A 
HETATM   12  C   UNL     1       6.978  24.050  55.142  1.00  0.00     0.044 A 
HETATM   13  N   UNL     1       7.694  22.945  54.860  1.00  0.00    -0.359 N 
HETATM   14  C   UNL     1       6.669  24.964  54.113  1.00  0.00     0.014 A 
HETATM   15  C   UNL     1       8.121  22.634  53.627  1.00  0.00     0.007 A 
HETATM   16  H   UNL     1       7.898  22.298  55.621  1.00  0.00     0.166 HD
HETATM   17  C   UNL     1       8.861  21.354  53.416  1.00  0.00     0.068 C 
HETATM   18  C   UNL     1       7.858  23.513  52.579  1.00  0.00     0.048 A 
HETATM   19  C   UNL     1       7.180  24.711  52.815  1.00  0.00     0.020 A 
HETATM   20  C   UNL     1       5.858  26.077  54.456  1.00  0.00     0.045 A 
BRANCH  19  21
HETATM   21  N   UNL     1       6.835  25.501  51.712  1.00  0.00    -0.302 NA
HETATM   22  H   UNL     1       7.339  26.377  51.605  1.00  0.00     0.124 HD
HETATM   23  H   UNL     1       6.777  25.018  50.816  1.00  0.00     0.124 HD
ENDBRANCH  19  21
ENDBRANCH   6   9
ENDBRANCH   4   5
ENDBRANCH   3   4
ENDBRANCH   2   3
ENDBRANCH   1   2
BRANCH   1  24
HETATM   24  C   UNL     1      10.051  29.752  57.315  1.00  0.00     0.000 C 
BRANCH  24  25
HETATM   25  C   UNL     1       9.723  30.650  58.512  1.00  0.00     0.009 C 
BRANCH  25  26
HETATM   26  C   UNL     1       8.504  30.238  59.331  1.00  0.00     0.103 C 
BRANCH  26  27
HETATM   27  C   UNL     1       7.850  31.366  60.112  1.00  0.00     0.222 C 
HETATM   28  N   UNL     1       7.579  31.041  61.431  1.00  0.00    -0.327 N 
HETATM   29  H   UNL     1       7.721  30.071  61.692  1.00  0.00     0.169 HD
HETATM   30  O   UNL     1       7.626  32.447  59.575  1.00  0.00    -0.273 OA
BRANCH  28  31
HETATM   31  C   UNL     1       7.095  31.901  62.438  1.00  0.00     0.035 A 
HETATM   32  C   UNL     1       5.750  32.268  62.569  1.00  0.00     0.045 A 
HETATM   33  C   UNL     1       5.301  33.149  63.584  1.00  0.00     0.014 A 
HETATM   34  C   UNL     1       6.269  33.669  64.471  1.00  0.00     0.044 A 
HETATM   35  C   UNL     1       3.949  33.540  63.759  1.00  0.00     0.020 A 
HETATM   36  N   UNL     1       5.895  34.538  65.428  1.00  0.00    -0.359 N 
HETATM   37  C   UNL     1       7.617  33.307  64.346  1.00  0.00     0.033 A 
HETATM   38  H   UNL     1       6.613  34.902  66.054  1.00  0.00     0.166 HD
HETATM   39  C   UNL     1       4.634  34.972  65.584  1.00  0.00     0.007 A 
HETATM   40  C   UNL     1       4.338  35.979  66.649  1.00  0.00     0.068 C 
HETATM   41  C   UNL     1       3.643  34.492  64.733  1.00  0.00     0.048 A 
HETATM   42  C   UNL     1       8.025  32.433  63.334  1.00  0.00     0.032 A 
BRANCH  35  43
HETATM   43  N   UNL     1       2.946  33.191  62.845  1.00  0.00    -0.302 NA
HETATM   44  H   UNL     1       2.631  32.224  62.869  1.00  0.00     0.124 HD
HETATM   45  H   UNL     1       3.082  33.500  61.885  1.00  0.00     0.124 HD
ENDBRANCH  35  43
ENDBRANCH  28  31
ENDBRANCH  26  27
ENDBRANCH  25  26
ENDBRANCH  24  25
ENDBRANCH   1  24
TORSDOF 12
ENDMDL
MODEL 2
REMARK VINA RESULT:     -10.1      2.657     10.082
REMARK  12 active torsions:
REMARK  status: ('A' for Active; 'I' for Inactive)
REMARK    1  A    between atoms: C_7  and  N_8 
REMARK    2  A    between atoms: C_12  and  N_13 
REMARK       I    between atoms: N_13  and  C_14 
REMARK    3  A    between atoms: C_14  and  C_15 
REMARK    4  A    between atoms: C_15  and  C_16 
REMARK    5  A    between atoms: C_16  and  C_17 
REMARK    6  A    between atoms: C_17  and  C_18 
REMARK    7  A    between atoms: C_18  and  C_19 
REMARK    8  A    between atoms: C_19  and  C_20 
REMARK    9  A    between atoms: C_20  and  C_21 
REMARK   10  A    between atoms: C_21  and  C_22 
REMARK       I    between atoms: C_22  and  N_23 
REMARK   11  A    between atoms: N_23  and  C_24 
REMARK   12  A    between atoms: C_33  and  N_34 
ROOT
HETATM    1  C   UNL     1       7.907  31.405  62.670  1.00  0.00     0.000 C 
ENDROOT
BRANCH   1   2
HETATM    2  C   UNL     1       7.894  32.829  63.237  1.00  0.00     0.000 C 
BRANCH   2   3
HETATM    3  C   UNL     1       7.377  32.912  64.677  1.00  0.00     0.009 C 
BRANCH   3   4
HETATM    4  C   UNL     1       6.486  34.118  64.990  1.00  0.00     0.103 C 
BRANCH   4   5
HETATM    5  C   UNL     1       5.027  33.768  65.181  1.00  0.00     0.222 C 
HETATM    6  N   UNL     1       4.188  33.584  64.120  1.00  0.00    -0.327 N 
HETATM    7  H   UNL     1       3.261  33.376  64.481  1.00  0.00     0.169 HD
HETATM    8  O   UNL     1       4.532  33.642  66.304  1.00  0.00    -0.273 OA
BRANCH   6   9
HETATM    9  C   UNL     1       4.318  33.610  62.720  1.00  0.00     0.035 A 
HETATM   10  C   UNL     1       4.939  34.607  61.976  1.00  0.00     0.032 A 
HETATM   11  C   UNL     1       5.037  34.502  60.582  1.00  0.00     0.033 A 
HETATM   12  C   UNL     1       4.507  33.396  59.907  1.00  0.00     0.044 A 
HETATM   13  N   UNL     1       4.653  33.292  58.572  1.00  0.00    -0.359 N 
HETATM   14  C   UNL     1       3.840  32.378  60.619  1.00  0.00     0.014 A 
HETATM   15  C   UNL     1       4.218  32.241  57.860  1.00  0.00     0.007 A 
HETATM   16  H   UNL     1       5.143  34.040  58.083  1.00  0.00     0.166 HD
HETATM   17  C   UNL     1       4.482  32.201  56.390  1.00  0.00     0.068 C 
HETATM   18  C   UNL     1       3.538  31.217  58.513  1.00  0.00     0.048 A 
HETATM   19  C   UNL     1       3.291  31.296  59.886  1.00  0.00     0.020 A 
HETATM   20  C   UNL     1       3.772  32.511  62.030  1.00  0.00     0.045 A 
BRANCH  19  21
HETATM   21  N   UNL     1       2.711  30.188  60.515  1.00  0.00    -0.302 NA
HETATM   22  H   UNL     1       1.814  29.878  60.152  1.00  0.00     0.124 HD
HETATM   23  H   UNL     1       3.323  29.388  60.668  1.00  0.00     0.124 HD
ENDBRANCH  19  21
ENDBRANCH   6   9
ENDBRANCH   4   5
ENDBRANCH   3   4
ENDBRANCH   2   3
ENDBRANCH   1   2
BRANCH   1  24
HETATM   24  C   UNL     1       9.152  31.166  61.810  1.00  0.00     0.000 C 
BRANCH  24  25
HETATM   25  C   UNL     1       9.243  32.071  60.578  1.00  0.00     0.009 C 
BRANCH  25  26
HETATM   26  C   UNL     1       8.146  31.877  59.535  1.00  0.00     0.103 C 
BRANCH  26  27
HETATM   27  C   UNL     1       8.390  30.738  58.558  1.00  0.00     0.222 C 
HETATM   28  N   UNL     1       7.291  29.914  58.385  1.00  0.00    -0.327 N 
HETATM   29  H   UNL     1       6.507  30.075  59.007  1.00  0.00     0.169 HD
HETATM   30  O   UNL     1       9.474  30.624  57.993  1.00  0.00    -0.273 OA
BRANCH  28  31
HETATM   31  C   UNL     1       7.158  28.855  57.463  1.00  0.00     0.035 A 
HETATM   32  C   UNL     1       7.559  27.539  57.724  1.00  0.00     0.045 A 
HETATM   33  C   UNL     1       7.426  26.502  56.767  1.00  0.00     0.014 A 
HETATM   34  C   UNL     1       6.877  26.843  55.510  1.00  0.00     0.044 A 
HETATM   35  C   UNL     1       7.810  25.157  56.992  1.00  0.00     0.020 A 
HETATM   36  N   UNL     1       6.764  25.899  54.557  1.00  0.00    -0.359 N 
HETATM   37  C   UNL     1       6.473  28.157  55.241  1.00  0.00     0.033 A 
HETATM   38  H   UNL     1       6.368  26.169  53.658  1.00  0.00     0.166 HD
HETATM   39  C   UNL     1       7.172  24.629  54.719  1.00  0.00     0.007 A 
HETATM   40  C   UNL     1       7.048  23.675  53.575  1.00  0.00     0.068 C 
HETATM   41  C   UNL     1       7.723  24.245  55.937  1.00  0.00     0.048 A 
HETATM   42  C   UNL     1       6.617  29.155  56.210  1.00  0.00     0.032 A 
BRANCH  35  43
HETATM   43  N   UNL     1       8.493  24.757  58.148  1.00  0.00    -0.302 NA
HETATM   44  H   UNL     1       7.954  24.754  59.011  1.00  0.00     0.124 HD
HETATM   45  H   UNL     1       9.409  25.176  58.300  1.00  0.00     0.124 HD
ENDBRANCH  35  43
ENDBRANCH  28  31
ENDBRANCH  26  27
ENDBRANCH  25  26
ENDBRANCH  24  25
ENDBRANCH   1  24
TORSDOF 12
ENDMDL
MODEL 3
REMARK VINA RESULT:      -9.9      1.577      2.728
REMARK  12 active torsions:
REMARK  status: ('A' for Active; 'I' for Inactive)
REMARK    1  A    between atoms: C_7  and  N_8 
REMARK    2  A    between atoms: C_12  and  N_13 
REMARK       I    between atoms: N_13  and  C_14 
REMARK    3  A    between atoms: C_14  and  C_15 
REMARK    4  A    between atoms: C_15  and  C_16 
REMARK    5  A    between atoms: C_16  and  C_17 
REMARK    6  A    between atoms: C_17  and  C_18 
REMARK    7  A    between atoms: C_18  and  C_19 
REMARK    8  A    between atoms: C_19  and  C_20 
REMARK    9  A    between atoms: C_20  and  C_21 
REMARK   10  A    between atoms: C_21  and  C_22 
REMARK       I    between atoms: C_22  and  N_23 
REMARK   11  A    between atoms: N_23  and  C_24 
REMARK   12  A    between atoms: C_33  and  N_34 
ROOT
HETATM    1  C   UNL     1       6.321  28.957  56.020  1.00  0.00     0.000 C 
ENDROOT
BRANCH   1   2
HETATM    2  C   UNL     1       5.101  28.037  55.906  1.00  0.00     0.000 C 
BRANCH   2   3
HETATM    3  C   UNL     1       4.281  28.258  54.630  1.00  0.00     0.009 C 
BRANCH   3   4
HETATM    4  C   UNL     1       4.697  27.414  53.422  1.00  0.00     0.103 C 
BRANCH   4   5
HETATM    5  C   UNL     1       5.985  27.867  52.772  1.00  0.00     0.222 C 
HETATM    6  N   UNL     1       7.083  27.056  52.712  1.00  0.00    -0.327 N 
HETATM    7  H   UNL     1       7.830  27.569  52.252  1.00  0.00     0.169 HD
HETATM    8  O   UNL     1       6.100  28.989  52.275  1.00  0.00    -0.273 OA
BRANCH   6   9
HETATM    9  C   UNL     1       7.386  25.745  53.118  1.00  0.00     0.035 A 
HETATM   10  C   UNL     1       7.631  24.665  52.277  1.00  0.00     0.032 A 
HETATM   11  C   UNL     1       7.960  23.409  52.805  1.00  0.00     0.033 A 
HETATM   12  C   UNL     1       8.042  23.211  54.189  1.00  0.00     0.044 A 
HETATM   13  N   UNL     1       8.405  22.009  54.673  1.00  0.00    -0.359 N 
HETATM   14  C   UNL     1       7.769  24.271  55.078  1.00  0.00     0.014 A 
HETATM   15  C   UNL     1       8.554  21.754  55.982  1.00  0.00     0.007 A 
HETATM   16  H   UNL     1       8.602  21.262  54.008  1.00  0.00     0.166 HD
HETATM   17  C   UNL     1       9.016  20.398  56.409  1.00  0.00     0.068 C 
HETATM   18  C   UNL     1       8.280  22.761  56.903  1.00  0.00     0.048 A 
HETATM   19  C   UNL     1       7.832  24.011  56.470  1.00  0.00     0.020 A 
HETATM   20  C   UNL     1       7.453  25.531  54.509  1.00  0.00     0.045 A 
BRANCH  19  21
HETATM   21  N   UNL     1       7.685  25.025  57.425  1.00  0.00    -0.302 NA
HETATM   22  H   UNL     1       8.534  25.339  57.887  1.00  0.00     0.124 HD
HETATM   23  H   UNL     1       7.120  25.825  57.146  1.00  0.00     0.124 HD
ENDBRANCH  19  21
ENDBRANCH   6   9
ENDBRANCH   4   5
ENDBRANCH   3   4
ENDBRANCH   2   3
ENDBRANCH   1   2
BRANCH   1  24
HETATM   24  C   UNL     1       6.433  29.550  57.428  1.00  0.00     0.000 C 
BRANCH  24  25
HETATM   25  C   UNL     1       7.611  29.006  58.243  1.00  0.00     0.009 C 
BRANCH  25  26
HETATM   26  C   UNL     1       8.605  30.050  58.742  1.00  0.00     0.103 C 
BRANCH  26  27
HETATM   27  C   UNL     1       7.995  31.159  59.584  1.00  0.00     0.222 C 
HETATM   28  N   UNL     1       7.738  30.783  60.891  1.00  0.00    -0.327 N 
HETATM   29  H   UNL     1       7.858  29.799  61.107  1.00  0.00     0.169 HD
HETATM   30  O   UNL     1       7.790  32.268  59.099  1.00  0.00    -0.273 OA
BRANCH  28  31
HETATM   31  C   UNL     1       7.293  31.610  61.944  1.00  0.00     0.035 A 
HETATM   32  C   UNL     1       5.958  31.988  62.127  1.00  0.00     0.045 A 
HETATM   33  C   UNL     1       5.549  32.836  63.187  1.00  0.00     0.014 A 
HETATM   34  C   UNL     1       6.549  33.310  64.065  1.00  0.00     0.044 A 
HETATM   35  C   UNL     1       4.209  33.237  63.415  1.00  0.00     0.020 A 
HETATM   36  N   UNL     1       6.214  34.145  65.065  1.00  0.00    -0.359 N 
HETATM   37  C   UNL     1       7.888  32.936  63.888  1.00  0.00     0.033 A 
HETATM   38  H   UNL     1       6.954  34.476  65.683  1.00  0.00     0.166 HD
HETATM   39  C   UNL     1       4.964  34.590  65.273  1.00  0.00     0.007 A 
HETATM   40  C   UNL     1       4.711  35.559  66.383  1.00  0.00     0.068 C 
HETATM   41  C   UNL     1       3.943  34.155  64.433  1.00  0.00     0.048 A 
HETATM   42  C   UNL     1       8.255  32.096  62.832  1.00  0.00     0.032 A 
BRANCH  35  43
HETATM   43  N   UNL     1       3.175  32.936  62.518  1.00  0.00    -0.302 NA
HETATM   44  H   UNL     1       2.266  32.738  62.928  1.00  0.00     0.124 HD
HETATM   45  H   UNL     1       3.393  32.260  61.788  1.00  0.00     0.124 HD
ENDBRANCH  35  43
ENDBRANCH  28  31
ENDBRANCH  26  27
ENDBRANCH  25  26
ENDBRANCH  24  25
ENDBRANCH   1  24
TORSDOF 12
ENDMDL
MODEL 4
REMARK VINA RESULT:      -9.6      1.903      2.862
REMARK  12 active torsions:
REMARK  status: ('A' for Active; 'I' for Inactive)
REMARK    1  A    between atoms: C_7  and  N_8 
REMARK    2  A    between atoms: C_12  and  N_13 
REMARK       I    between atoms: N_13  and  C_14 
REMARK    3  A    between atoms: C_14  and  C_15 
REMARK    4  A    between atoms: C_15  and  C_16 
REMARK    5  A    between atoms: C_16  and  C_17 
REMARK    6  A    between atoms: C_17  and  C_18 
REMARK    7  A    between atoms: C_18  and  C_19 
REMARK    8  A    between atoms: C_19  and  C_20 
REMARK    9  A    between atoms: C_20  and  C_21 
REMARK   10  A    between atoms: C_21  and  C_22 
REMARK       I    between atoms: C_22  and  N_23 
REMARK   11  A    between atoms: N_23  and  C_24 
REMARK   12  A    between atoms: C_33  and  N_34 
ROOT
HETATM    1  C   UNL     1       6.966  31.652  59.478  1.00  0.00     0.000 C 
ENDROOT
BRANCH   1   2
HETATM    2  C   UNL     1       8.058  31.105  58.551  1.00  0.00     0.000 C 
BRANCH   2   3
HETATM    3  C   UNL     1       7.935  29.601  58.278  1.00  0.00     0.009 C 
BRANCH   3   4
HETATM    4  C   UNL     1       8.003  29.190  56.805  1.00  0.00     0.103 C 
BRANCH   4   5
HETATM    5  C   UNL     1       6.663  29.201  56.103  1.00  0.00     0.222 C 
HETATM    6  N   UNL     1       6.099  28.058  55.615  1.00  0.00    -0.327 N 
HETATM    7  H   UNL     1       5.217  28.304  55.173  1.00  0.00     0.169 HD
HETATM    8  O   UNL     1       6.028  30.245  55.937  1.00  0.00    -0.273 OA
BRANCH   6   9
HETATM    9  C   UNL     1       6.446  26.696  55.595  1.00  0.00     0.035 A 
HETATM   10  C   UNL     1       6.393  25.823  56.675  1.00  0.00     0.032 A 
HETATM   11  C   UNL     1       6.732  24.472  56.520  1.00  0.00     0.033 A 
HETATM   12  C   UNL     1       7.140  23.973  55.277  1.00  0.00     0.044 A 
HETATM   13  N   UNL     1       7.417  22.663  55.139  1.00  0.00    -0.359 N 
HETATM   14  C   UNL     1       7.240  24.830  54.162  1.00  0.00     0.014 A 
HETATM   15  C   UNL     1       7.764  22.099  53.972  1.00  0.00     0.007 A 
HETATM   16  H   UNL     1       7.332  22.065  55.960  1.00  0.00     0.166 HD
HETATM   17  C   UNL     1       7.996  20.624  53.918  1.00  0.00     0.068 C 
HETATM   18  C   UNL     1       7.894  22.905  52.844  1.00  0.00     0.048 A 
HETATM   19  C   UNL     1       7.689  24.284  52.934  1.00  0.00     0.020 A 
HETATM   20  C   UNL     1       6.874  26.188  54.353  1.00  0.00     0.045 A 
BRANCH  19  21
HETATM   21  N   UNL     1       7.714  25.031  51.750  1.00  0.00    -0.302 NA
HETATM   22  H   UNL     1       6.978  24.839  51.076  1.00  0.00     0.124 HD
HETATM   23  H   UNL     1       7.838  26.037  51.858  1.00  0.00     0.124 HD
ENDBRANCH  19  21
ENDBRANCH   6   9
ENDBRANCH   4   5
ENDBRANCH   3   4
ENDBRANCH   2   3
ENDBRANCH   1   2
BRANCH   1  24
HETATM   24  C   UNL     1       5.800  32.233  58.673  1.00  0.00     0.000 C 
BRANCH  24  25
HETATM   25  C   UNL     1       4.421  31.754  59.135  1.00  0.00     0.009 C 
BRANCH  25  26
HETATM   26  C   UNL     1       3.685  32.688  60.091  1.00  0.00     0.103 C 
BRANCH  26  27
HETATM   27  C   UNL     1       4.042  32.509  61.557  1.00  0.00     0.222 C 
HETATM   28  N   UNL     1       4.930  33.460  62.030  1.00  0.00    -0.327 N 
HETATM   29  H   UNL     1       5.338  34.078  61.337  1.00  0.00     0.169 HD
HETATM   30  O   UNL     1       3.543  31.599  62.213  1.00  0.00    -0.273 OA
BRANCH  28  31
HETATM   31  C   UNL     1       5.356  33.640  63.363  1.00  0.00     0.035 A 
HETATM   32  C   UNL     1       4.552  34.183  64.372  1.00  0.00     0.045 A 
HETATM   33  C   UNL     1       5.020  34.364  65.698  1.00  0.00     0.014 A 
HETATM   34  C   UNL     1       6.352  33.986  65.976  1.00  0.00     0.044 A 
HETATM   35  C   UNL     1       4.238  34.901  66.751  1.00  0.00     0.020 A 
HETATM   36  N   UNL     1       6.851  34.173  67.212  1.00  0.00    -0.359 N 
HETATM   37  C   UNL     1       7.163  33.442  64.971  1.00  0.00     0.033 A 
HETATM   38  H   UNL     1       7.816  33.895  67.387  1.00  0.00     0.166 HD
HETATM   39  C   UNL     1       6.156  34.732  68.216  1.00  0.00     0.007 A 
HETATM   40  C   UNL     1       6.826  34.941  69.536  1.00  0.00     0.068 C 
HETATM   41  C   UNL     1       4.840  35.125  67.991  1.00  0.00     0.048 A 
HETATM   42  C   UNL     1       6.668  33.275  63.674  1.00  0.00     0.032 A 
BRANCH  35  43
HETATM   43  N   UNL     1       2.960  35.435  66.538  1.00  0.00    -0.302 NA
HETATM   44  H   UNL     1       2.177  34.807  66.701  1.00  0.00     0.124 HD
HETATM   45  H   UNL     1       2.827  35.957  65.673  1.00  0.00     0.124 HD
ENDBRANCH  35  43
ENDBRANCH  28  31
ENDBRANCH  26  27
ENDBRANCH  25  26
ENDBRANCH  24  25
ENDBRANCH   1  24
TORSDOF 12
ENDMDL
MODEL 5
REMARK VINA RESULT:      -9.6      1.634     11.983
REMARK  12 active torsions:
REMARK  status: ('A' for Active; 'I' for Inactive)
REMARK    1  A    between atoms: C_7  and  N_8 
REMARK    2  A    between atoms: C_12  and  N_13 
REMARK       I    between atoms: N_13  and  C_14 
REMARK    3  A    between atoms: C_14  and  C_15 
REMARK    4  A    between atoms: C_15  and  C_16 
REMARK    5  A    between atoms: C_16  and  C_17 
REMARK    6  A    between atoms: C_17  and  C_18 
REMARK    7  A    between atoms: C_18  and  C_19 
REMARK    8  A    between atoms: C_19  and  C_20 
REMARK    9  A    between atoms: C_20  and  C_21 
REMARK   10  A    between atoms: C_21  and  C_22 
REMARK       I    between atoms: C_22  and  N_23 
REMARK   11  A    between atoms: N_23  and  C_24 
REMARK   12  A    between atoms: C_33  and  N_34 
ROOT
HETATM    1  C   UNL     1       4.736  32.605  56.644  1.00  0.00     0.000 C 
ENDROOT
BRANCH   1   2
HETATM    2  C   UNL     1       5.244  32.373  58.071  1.00  0.00     0.000 C 
BRANCH   2   3
HETATM    3  C   UNL     1       6.548  31.569  58.137  1.00  0.00     0.009 C 
BRANCH   3   4
HETATM    4  C   UNL     1       7.509  31.962  59.262  1.00  0.00     0.103 C 
BRANCH   4   5
HETATM    5  C   UNL     1       7.969  30.798  60.110  1.00  0.00     0.222 C 
HETATM    6  N   UNL     1       7.875  30.820  61.473  1.00  0.00    -0.327 N 
HETATM    7  H   UNL     1       8.255  29.948  61.831  1.00  0.00     0.169 HD
HETATM    8  O   UNL     1       8.454  29.782  59.608  1.00  0.00    -0.273 OA
BRANCH   6   9
HETATM    9  C   UNL     1       7.392  31.728  62.431  1.00  0.00     0.035 A 
HETATM   10  C   UNL     1       8.151  32.377  63.398  1.00  0.00     0.032 A 
HETATM   11  C   UNL     1       7.556  33.291  64.278  1.00  0.00     0.033 A 
HETATM   12  C   UNL     1       6.185  33.566  64.209  1.00  0.00     0.044 A 
HETATM   13  N   UNL     1       5.642  34.482  65.033  1.00  0.00    -0.359 N 
HETATM   14  C   UNL     1       5.372  32.905  63.265  1.00  0.00     0.014 A 
HETATM   15  C   UNL     1       4.349  34.837  64.995  1.00  0.00     0.007 A 
HETATM   16  H   UNL     1       6.254  34.948  65.702  1.00  0.00     0.166 HD
HETATM   17  C   UNL     1       3.862  35.906  65.919  1.00  0.00     0.068 C 
HETATM   18  C   UNL     1       3.499  34.202  64.093  1.00  0.00     0.048 A 
HETATM   19  C   UNL     1       3.984  33.192  63.257  1.00  0.00     0.020 A 
HETATM   20  C   UNL     1       6.010  31.997  62.382  1.00  0.00     0.045 A 
BRANCH  19  21
HETATM   21  N   UNL     1       3.120  32.670  62.288  1.00  0.00    -0.302 NA
HETATM   22  H   UNL     1       3.550  32.327  61.434  1.00  0.00     0.124 HD
HETATM   23  H   UNL     1       2.421  32.007  62.621  1.00  0.00     0.124 HD
ENDBRANCH  19  21
ENDBRANCH   6   9
ENDBRANCH   4   5
ENDBRANCH   3   4
ENDBRANCH   2   3
ENDBRANCH   1   2
BRANCH   1  24
HETATM   24  C   UNL     1       3.534  31.708  56.334  1.00  0.00     0.000 C 
BRANCH  24  25
HETATM   25  C   UNL     1       3.882  30.449  55.535  1.00  0.00     0.009 C 
BRANCH  25  26
HETATM   26  C   UNL     1       4.199  29.208  56.364  1.00  0.00     0.103 C 
BRANCH  26  27
HETATM   27  C   UNL     1       5.202  28.257  55.731  1.00  0.00     0.222 C 
HETATM   28  N   UNL     1       4.855  26.923  55.859  1.00  0.00    -0.327 N 
HETATM   29  H   UNL     1       4.061  26.721  56.457  1.00  0.00     0.169 HD
HETATM   30  O   UNL     1       6.197  28.692  55.158  1.00  0.00    -0.273 OA
BRANCH  28  31
HETATM   31  C   UNL     1       5.506  25.815  55.278  1.00  0.00     0.035 A 
HETATM   32  C   UNL     1       6.354  24.952  55.982  1.00  0.00     0.045 A 
HETATM   33  C   UNL     1       7.005  23.856  55.361  1.00  0.00     0.014 A 
HETATM   34  C   UNL     1       6.781  23.663  53.980  1.00  0.00     0.044 A 
HETATM   35  C   UNL     1       7.865  22.954  56.037  1.00  0.00     0.020 A 
HETATM   36  N   UNL     1       7.406  22.657  53.340  1.00  0.00    -0.359 N 
HETATM   37  C   UNL     1       5.933  24.522  53.269  1.00  0.00     0.033 A 
HETATM   38  H   UNL     1       7.230  22.539  52.343  1.00  0.00     0.166 HD
HETATM   39  C   UNL     1       8.270  21.821  53.939  1.00  0.00     0.007 A 
HETATM   40  C   UNL     1       8.949  20.770  53.121  1.00  0.00     0.068 C 
HETATM   41  C   UNL     1       8.528  21.973  55.297  1.00  0.00     0.048 A 
HETATM   42  C   UNL     1       5.305  25.591  53.914  1.00  0.00     0.032 A 
BRANCH  35  43
HETATM   43  N   UNL     1       8.260  23.151  57.367  1.00  0.00    -0.302 NA
HETATM   44  H   UNL     1       7.558  22.959  58.078  1.00  0.00     0.124 HD
HETATM   45  H   UNL     1       8.746  24.022  57.570  1.00  0.00     0.124 HD
ENDBRANCH  35  43
ENDBRANCH  28  31
ENDBRANCH  26  27
ENDBRANCH  25  26
ENDBRANCH  24  25
ENDBRANCH   1  24
TORSDOF 12
ENDMDL
MODEL 6
REMARK VINA RESULT:      -9.5      1.909     12.758
REMARK  12 active torsions:
REMARK  status: ('A' for Active; 'I' for Inactive)
REMARK    1  A    between atoms: C_7  and  N_8 
REMARK    2  A    between atoms: C_12  and  N_13 
REMARK       I    between atoms: N_13  and  C_14 
REMARK    3  A    between atoms: C_14  and  C_15 
REMARK    4  A    between atoms: C_15  and  C_16 
REMARK    5  A    between atoms: C_16  and  C_17 
REMARK    6  A    between atoms: C_17  and  C_18 
REMARK    7  A    between atoms: C_18  and  C_19 
REMARK    8  A    between atoms: C_19  and  C_20 
REMARK    9  A    between atoms: C_20  and  C_21 
REMARK   10  A    between atoms: C_21  and  C_22 
REMARK       I    between atoms: C_22  and  N_23 
REMARK   11  A    between atoms: N_23  and  C_24 
REMARK   12  A    between atoms: C_33  and  N_34 
ROOT
HETATM    1  C   UNL     1       9.221  31.648  59.118  1.00  0.00     0.000 C 
ENDROOT
BRANCH   1   2
HETATM    2  C   UNL     1       8.324  32.306  60.172  1.00  0.00     0.000 C 
BRANCH   2   3
HETATM    3  C   UNL     1       6.893  32.564  59.686  1.00  0.00     0.009 C 
BRANCH   3   4
HETATM    4  C   UNL     1       5.785  32.224  60.686  1.00  0.00     0.103 C 
BRANCH   4   5
HETATM    5  C   UNL     1       4.763  33.325  60.868  1.00  0.00     0.222 C 
HETATM    6  N   UNL     1       4.630  33.992  62.052  1.00  0.00    -0.327 N 
HETATM    7  H   UNL     1       3.880  34.670  61.951  1.00  0.00     0.169 HD
HETATM    8  O   UNL     1       4.004  33.661  59.957  1.00  0.00    -0.273 OA
BRANCH   6   9
HETATM    9  C   UNL     1       5.269  33.954  63.303  1.00  0.00     0.035 A 
HETATM   10  C   UNL     1       6.562  33.505  63.548  1.00  0.00     0.032 A 
HETATM   11  C   UNL     1       7.103  33.551  64.840  1.00  0.00     0.033 A 
HETATM   12  C   UNL     1       6.351  34.041  65.915  1.00  0.00     0.044 A 
HETATM   13  N   UNL     1       6.905  34.120  67.139  1.00  0.00    -0.359 N 
HETATM   14  C   UNL     1       5.024  34.476  65.718  1.00  0.00     0.014 A 
HETATM   15  C   UNL     1       6.269  34.624  68.208  1.00  0.00     0.007 A 
HETATM   16  H   UNL     1       7.867  33.804  67.252  1.00  0.00     0.166 HD
HETATM   17  C   UNL     1       6.997  34.716  69.510  1.00  0.00     0.068 C 
HETATM   18  C   UNL     1       4.950  35.050  68.071  1.00  0.00     0.048 A 
HETATM   19  C   UNL     1       4.293  34.932  66.844  1.00  0.00     0.020 A 
HETATM   20  C   UNL     1       4.516  34.429  64.394  1.00  0.00     0.045 A 
BRANCH  19  21
HETATM   21  N   UNL     1       3.012  35.484  66.728  1.00  0.00    -0.302 NA
HETATM   22  H   UNL     1       2.441  35.149  65.957  1.00  0.00     0.124 HD
HETATM   23  H   UNL     1       2.461  35.520  67.584  1.00  0.00     0.124 HD
ENDBRANCH  19  21
ENDBRANCH   6   9
ENDBRANCH   4   5
ENDBRANCH   3   4
ENDBRANCH   2   3
ENDBRANCH   1   2
BRANCH   1  24
HETATM   24  C   UNL     1       8.927  30.150  59.002  1.00  0.00     0.000 C 
BRANCH  24  25
HETATM   25  C   UNL     1       8.299  29.738  57.667  1.00  0.00     0.009 C 
BRANCH  25  26
HETATM   26  C   UNL     1       6.827  29.339  57.727  1.00  0.00     0.103 C 
BRANCH  26  27
HETATM   27  C   UNL     1       6.472  28.094  56.929  1.00  0.00     0.222 C 
HETATM   28  N   UNL     1       7.560  27.510  56.303  1.00  0.00    -0.327 N 
HETATM   29  H   UNL     1       8.429  28.032  56.334  1.00  0.00     0.169 HD
HETATM   30  O   UNL     1       5.315  27.685  56.897  1.00  0.00    -0.273 OA
BRANCH  28  31
HETATM   31  C   UNL     1       7.582  26.289  55.598  1.00  0.00     0.035 A 
HETATM   32  C   UNL     1       7.766  25.041  56.205  1.00  0.00     0.045 A 
HETATM   33  C   UNL     1       7.799  23.834  55.462  1.00  0.00     0.014 A 
HETATM   34  C   UNL     1       7.652  23.928  54.061  1.00  0.00     0.044 A 
HETATM   35  C   UNL     1       7.974  22.550  56.037  1.00  0.00     0.020 A 
HETATM   36  N   UNL     1       7.712  22.813  53.310  1.00  0.00    -0.359 N 
HETATM   37  C   UNL     1       7.467  25.173  53.445  1.00  0.00     0.033 A 
HETATM   38  H   UNL     1       7.606  22.906  52.301  1.00  0.00     0.166 HD
HETATM   39  C   UNL     1       7.935  21.589  53.817  1.00  0.00     0.007 A 
HETATM   40  C   UNL     1       8.036  20.424  52.886  1.00  0.00     0.068 C 
HETATM   41  C   UNL     1       8.090  21.444  55.192  1.00  0.00     0.048 A 
HETATM   42  C   UNL     1       7.437  26.344  54.210  1.00  0.00     0.032 A 
BRANCH  35  43
HETATM   43  N   UNL     1       8.271  22.372  57.394  1.00  0.00    -0.302 NA
HETATM   44  H   UNL     1       8.144  21.433  57.764  1.00  0.00     0.124 HD
HETATM   45  H   UNL     1       7.888  23.064  58.035  1.00  0.00     0.124 HD
ENDBRANCH  35  43
ENDBRANCH  28  31
ENDBRANCH  26  27
ENDBRANCH  25  26
ENDBRANCH  24  25
ENDBRANCH   1  24
TORSDOF 12
ENDMDL
MODEL 7
REMARK VINA RESULT:      -9.2      2.290     12.722
REMARK  12 active torsions:
REMARK  status: ('A' for Active; 'I' for Inactive)
REMARK    1  A    between atoms: C_7  and  N_8 
REMARK    2  A    between atoms: C_12  and  N_13 
REMARK       I    between atoms: N_13  and  C_14 
REMARK    3  A    between atoms: C_14  and  C_15 
REMARK    4  A    between atoms: C_15  and  C_16 
REMARK    5  A    between atoms: C_16  and  C_17 
REMARK    6  A    between atoms: C_17  and  C_18 
REMARK    7  A    between atoms: C_18  and  C_19 
REMARK    8  A    between atoms: C_19  and  C_20 
REMARK    9  A    between atoms: C_20  and  C_21 
REMARK   10  A    between atoms: C_21  and  C_22 
REMARK       I    between atoms: C_22  and  N_23 
REMARK   11  A    between atoms: N_23  and  C_24 
REMARK   12  A    between atoms: C_33  and  N_34 
ROOT
HETATM    1  C   UNL     1       4.574  31.847  57.898  1.00  0.00     0.000 C 
ENDROOT
BRANCH   1   2
HETATM    2  C   UNL     1       5.538  32.489  58.902  1.00  0.00     0.000 C 
BRANCH   2   3
HETATM    3  C   UNL     1       5.150  32.249  60.365  1.00  0.00     0.009 C 
BRANCH   3   4
HETATM    4  C   UNL     1       3.806  32.841  60.798  1.00  0.00     0.103 C 
BRANCH   4   5
HETATM    5  C   UNL     1       3.779  34.353  60.818  1.00  0.00     0.222 C 
HETATM    6  N   UNL     1       4.309  35.067  61.855  1.00  0.00    -0.327 N 
HETATM    7  H   UNL     1       4.165  36.055  61.666  1.00  0.00     0.169 HD
HETATM    8  O   UNL     1       3.272  35.004  59.903  1.00  0.00    -0.273 OA
BRANCH   6   9
HETATM    9  C   UNL     1       4.975  34.753  63.053  1.00  0.00     0.035 A 
HETATM   10  C   UNL     1       6.263  34.240  63.162  1.00  0.00     0.032 A 
HETATM   11  C   UNL     1       6.833  34.002  64.420  1.00  0.00     0.033 A 
HETATM   12  C   UNL     1       6.117  34.267  65.594  1.00  0.00     0.044 A 
HETATM   13  N   UNL     1       6.701  34.076  66.792  1.00  0.00    -0.359 N 
HETATM   14  C   UNL     1       4.797  34.758  65.529  1.00  0.00     0.014 A 
HETATM   15  C   UNL     1       6.101  34.353  67.959  1.00  0.00     0.007 A 
HETATM   16  H   UNL     1       7.658  33.725  66.810  1.00  0.00     0.166 HD
HETATM   17  C   UNL     1       6.860  34.155  69.231  1.00  0.00     0.068 C 
HETATM   18  C   UNL     1       4.790  34.823  67.951  1.00  0.00     0.048 A 
HETATM   19  C   UNL     1       4.103  34.979  66.745  1.00  0.00     0.020 A 
HETATM   20  C   UNL     1       4.258  35.000  64.239  1.00  0.00     0.045 A 
BRANCH  19  21
HETATM   21  N   UNL     1       2.833  35.566  66.782  1.00  0.00    -0.302 NA
HETATM   22  H   UNL     1       2.220  35.276  67.539  1.00  0.00     0.124 HD
HETATM   23  H   UNL     1       2.805  36.579  66.677  1.00  0.00     0.124 HD
ENDBRANCH  19  21
ENDBRANCH   6   9
ENDBRANCH   4   5
ENDBRANCH   3   4
ENDBRANCH   2   3
ENDBRANCH   1   2
BRANCH   1  24
HETATM   24  C   UNL     1       5.045  30.446  57.499  1.00  0.00     0.000 C 
BRANCH  24  25
HETATM   25  C   UNL     1       6.547  30.349  57.213  1.00  0.00     0.009 C 
BRANCH  25  26
HETATM   26  C   UNL     1       7.332  29.410  58.124  1.00  0.00     0.103 C 
BRANCH  26  27
HETATM   27  C   UNL     1       8.059  28.285  57.404  1.00  0.00     0.222 C 
HETATM   28  N   UNL     1       7.368  27.086  57.415  1.00  0.00    -0.327 N 
HETATM   29  H   UNL     1       6.538  27.051  57.997  1.00  0.00     0.169 HD
HETATM   30  O   UNL     1       9.144  28.488  56.867  1.00  0.00    -0.273 OA
BRANCH  28  31
HETATM   31  C   UNL     1       7.713  25.898  56.736  1.00  0.00     0.035 A 
HETATM   32  C   UNL     1       7.358  25.628  55.409  1.00  0.00     0.045 A 
HETATM   33  C   UNL     1       7.707  24.415  54.764  1.00  0.00     0.014 A 
HETATM   34  C   UNL     1       8.428  23.461  55.516  1.00  0.00     0.044 A 
HETATM   35  C   UNL     1       7.376  24.104  53.421  1.00  0.00     0.020 A 
HETATM   36  N   UNL     1       8.751  22.281  54.956  1.00  0.00    -0.359 N 
HETATM   37  C   UNL     1       8.787  23.724  56.844  1.00  0.00     0.033 A 
HETATM   38  H   UNL     1       9.268  21.607  55.519  1.00  0.00     0.166 HD
HETATM   39  C   UNL     1       8.402  21.932  53.706  1.00  0.00     0.007 A 
HETATM   40  C   UNL     1       8.767  20.573  53.202  1.00  0.00     0.068 C 
HETATM   41  C   UNL     1       7.688  22.836  52.926  1.00  0.00     0.048 A 
HETATM   42  C   UNL     1       8.428  24.933  57.449  1.00  0.00     0.032 A 
BRANCH  35  43
HETATM   43  N   UNL     1       6.543  24.923  52.647  1.00  0.00    -0.302 NA
HETATM   44  H   UNL     1       5.544  24.746  52.720  1.00  0.00     0.124 HD
HETATM   45  H   UNL     1       6.814  25.051  51.674  1.00  0.00     0.124 HD
ENDBRANCH  35  43
ENDBRANCH  28  31
ENDBRANCH  26  27
ENDBRANCH  25  26
ENDBRANCH  24  25
ENDBRANCH   1  24
TORSDOF 12
ENDMDL
MODEL 8
REMARK VINA RESULT:      -9.0      4.550      8.146
REMARK  12 active torsions:
REMARK  status: ('A' for Active; 'I' for Inactive)
REMARK    1  A    between atoms: C_7  and  N_8 
REMARK    2  A    between atoms: C_12  and  N_13 
REMARK       I    between atoms: N_13  and  C_14 
REMARK    3  A    between atoms: C_14  and  C_15 
REMARK    4  A    between atoms: C_15  and  C_16 
REMARK    5  A    between atoms: C_16  and  C_17 
REMARK    6  A    between atoms: C_17  and  C_18 
REMARK    7  A    between atoms: C_18  and  C_19 
REMARK    8  A    between atoms: C_19  and  C_20 
REMARK    9  A    between atoms: C_20  and  C_21 
REMARK   10  A    between atoms: C_21  and  C_22 
REMARK       I    between atoms: C_22  and  N_23 
REMARK   11  A    between atoms: N_23  and  C_24 
REMARK   12  A    between atoms: C_33  and  N_34 
ROOT
HETATM    1  C   UNL     1       7.957  22.105  52.873  1.00  0.00     0.000 C 
ENDROOT
BRANCH   1   2
HETATM    2  C   UNL     1       8.218  23.576  53.212  1.00  0.00     0.000 C 
BRANCH   2   3
HETATM    3  C   UNL     1       7.750  24.550  52.125  1.00  0.00     0.009 C 
BRANCH   3   4
HETATM    4  C   UNL     1       7.005  25.791  52.625  1.00  0.00     0.103 C 
BRANCH   4   5
HETATM    5  C   UNL     1       5.558  25.534  52.984  1.00  0.00     0.222 C 
HETATM    6  N   UNL     1       4.547  26.307  52.487  1.00  0.00    -0.327 N 
HETATM    7  H   UNL     1       3.671  25.966  52.871  1.00  0.00     0.169 HD
HETATM    8  O   UNL     1       5.231  24.621  53.745  1.00  0.00    -0.273 OA
BRANCH   6   9
HETATM    9  C   UNL     1       4.459  27.400  51.608  1.00  0.00     0.035 A 
HETATM   10  C   UNL     1       4.163  28.711  51.962  1.00  0.00     0.032 A 
HETATM   11  C   UNL     1       4.139  29.725  50.994  1.00  0.00     0.033 A 
HETATM   12  C   UNL     1       4.404  29.439  49.649  1.00  0.00     0.044 A 
HETATM   13  N   UNL     1       4.422  30.435  48.743  1.00  0.00    -0.359 N 
HETATM   14  C   UNL     1       4.676  28.117  49.241  1.00  0.00     0.014 A 
HETATM   15  C   UNL     1       4.716  30.250  47.447  1.00  0.00     0.007 A 
HETATM   16  H   UNL     1       4.227  31.381  49.066  1.00  0.00     0.166 HD
HETATM   17  C   UNL     1       4.762  31.435  46.537  1.00  0.00     0.068 C 
HETATM   18  C   UNL     1       4.975  28.961  46.989  1.00  0.00     0.048 A 
HETATM   19  C   UNL     1       4.905  27.873  47.863  1.00  0.00     0.020 A 
HETATM   20  C   UNL     1       4.706  27.120  50.250  1.00  0.00     0.045 A 
BRANCH  19  21
HETATM   21  N   UNL     1       5.291  26.616  47.382  1.00  0.00    -0.302 NA
HETATM   22  H   UNL     1       4.597  26.103  46.846  1.00  0.00     0.124 HD
HETATM   23  H   UNL     1       6.196  26.574  46.917  1.00  0.00     0.124 HD
ENDBRANCH  19  21
ENDBRANCH   6   9
ENDBRANCH   4   5
ENDBRANCH   3   4
ENDBRANCH   2   3
ENDBRANCH   1   2
BRANCH   1  24
HETATM   24  C   UNL     1       8.042  21.228  54.126  1.00  0.00     0.000 C 
BRANCH  24  25
HETATM   25  C   UNL     1       8.894  21.825  55.251  1.00  0.00     0.009 C 
BRANCH  25  26
HETATM   26  C   UNL     1       8.155  22.115  56.554  1.00  0.00     0.103 C 
BRANCH  26  27
HETATM   27  C   UNL     1       8.151  23.576  56.972  1.00  0.00     0.222 C 
HETATM   28  N   UNL     1       7.130  24.313  56.397  1.00  0.00    -0.327 N 
HETATM   29  H   UNL     1       6.588  23.845  55.678  1.00  0.00     0.169 HD
HETATM   30  O   UNL     1       8.989  24.000  57.763  1.00  0.00    -0.273 OA
BRANCH  28  31
HETATM   31  C   UNL     1       6.784  25.652  56.675  1.00  0.00     0.035 A 
HETATM   32  C   UNL     1       7.717  26.690  56.791  1.00  0.00     0.045 A 
HETATM   33  C   UNL     1       7.335  28.022  57.089  1.00  0.00     0.014 A 
HETATM   34  C   UNL     1       5.959  28.277  57.284  1.00  0.00     0.044 A 
HETATM   35  C   UNL     1       8.243  29.103  57.207  1.00  0.00     0.020 A 
HETATM   36  N   UNL     1       5.553  29.519  57.603  1.00  0.00    -0.359 N 
HETATM   37  C   UNL     1       5.020  27.243  57.169  1.00  0.00     0.033 A 
HETATM   38  H   UNL     1       4.555  29.678  57.742  1.00  0.00     0.166 HD
HETATM   39  C   UNL     1       6.393  30.552  57.779  1.00  0.00     0.007 A 
HETATM   40  C   UNL     1       5.838  31.880  58.186  1.00  0.00     0.068 C 
HETATM   41  C   UNL     1       7.758  30.351  57.603  1.00  0.00     0.048 A 
HETATM   42  C   UNL     1       5.432  25.941  56.872  1.00  0.00     0.032 A 
BRANCH  35  43
HETATM   43  N   UNL     1       9.632  28.921  57.174  1.00  0.00    -0.302 NA
HETATM   44  H   UNL     1      10.020  28.290  57.871  1.00  0.00     0.124 HD
HETATM   45  H   UNL     1      10.197  29.765  57.101  1.00  0.00     0.124 HD
ENDBRANCH  35  43
ENDBRANCH  28  31
ENDBRANCH  26  27
ENDBRANCH  25  26
ENDBRANCH  24  25
ENDBRANCH   1  24
TORSDOF 12
ENDMDL
MODEL 9
REMARK VINA RESULT:      -9.0      4.360      8.185
REMARK  12 active torsions:
REMARK  status: ('A' for Active; 'I' for Inactive)
REMARK    1  A    between atoms: C_7  and  N_8 
REMARK    2  A    between atoms: C_12  and  N_13 
REMARK       I    between atoms: N_13  and  C_14 
REMARK    3  A    between atoms: C_14  and  C_15 
REMARK    4  A    between atoms: C_15  and  C_16 
REMARK    5  A    between atoms: C_16  and  C_17 
REMARK    6  A    between atoms: C_17  and  C_18 
REMARK    7  A    between atoms: C_18  and  C_19 
REMARK    8  A    between atoms: C_19  and  C_20 
REMARK    9  A    between atoms: C_20  and  C_21 
REMARK   10  A    between atoms: C_21  and  C_22 
REMARK       I    between atoms: C_22  and  N_23 
REMARK   11  A    between atoms: N_23  and  C_24 
REMARK   12  A    between atoms: C_33  and  N_34 
ROOT
HETATM    1  C   UNL     1       7.824  22.711  52.791  1.00  0.00     0.000 C 
ENDROOT
BRANCH   1   2
HETATM    2  C   UNL     1       7.927  24.195  53.159  1.00  0.00     0.000 C 
BRANCH   2   3
HETATM    3  C   UNL     1       7.137  25.117  52.223  1.00  0.00     0.009 C 
BRANCH   3   4
HETATM    4  C   UNL     1       6.361  26.246  52.907  1.00  0.00     0.103 C 
BRANCH   4   5
HETATM    5  C   UNL     1       4.886  25.959  53.079  1.00  0.00     0.222 C 
HETATM    6  N   UNL     1       3.961  26.963  53.127  1.00  0.00    -0.327 N 
HETATM    7  H   UNL     1       3.045  26.543  53.263  1.00  0.00     0.169 HD
HETATM    8  O   UNL     1       4.458  24.808  53.189  1.00  0.00    -0.273 OA
BRANCH   6   9
HETATM    9  C   UNL     1       3.994  28.365  53.030  1.00  0.00     0.035 A 
HETATM   10  C   UNL     1       4.343  29.098  51.901  1.00  0.00     0.032 A 
HETATM   11  C   UNL     1       4.302  30.498  51.918  1.00  0.00     0.033 A 
HETATM   12  C   UNL     1       3.918  31.191  53.073  1.00  0.00     0.044 A 
HETATM   13  N   UNL     1       3.841  32.535  53.054  1.00  0.00    -0.359 N 
HETATM   14  C   UNL     1       3.588  30.488  54.250  1.00  0.00     0.014 A 
HETATM   15  C   UNL     1       3.434  33.267  54.102  1.00  0.00     0.007 A 
HETATM   16  H   UNL     1       4.080  33.018  52.188  1.00  0.00     0.166 HD
HETATM   17  C   UNL     1       3.332  34.751  53.955  1.00  0.00     0.068 C 
HETATM   18  C   UNL     1       3.113  32.623  55.293  1.00  0.00     0.048 A 
HETATM   19  C   UNL     1       3.238  31.236  55.402  1.00  0.00     0.020 A 
HETATM   20  C   UNL     1       3.626  29.071  54.191  1.00  0.00     0.045 A 
BRANCH  19  21
HETATM   21  N   UNL     1       2.791  30.625  56.580  1.00  0.00    -0.302 NA
HETATM   22  H   UNL     1       3.143  29.691  56.769  1.00  0.00     0.124 HD
HETATM   23  H   UNL     1       2.833  31.195  57.424  1.00  0.00     0.124 HD
ENDBRANCH  19  21
ENDBRANCH   6   9
ENDBRANCH   4   5
ENDBRANCH   3   4
ENDBRANCH   2   3
ENDBRANCH   1   2
BRANCH   1  24
HETATM   24  C   UNL     1       8.038  21.822  54.020  1.00  0.00     0.000 C 
BRANCH  24  25
HETATM   25  C   UNL     1       8.963  22.431  55.078  1.00  0.00     0.009 C 
BRANCH  25  26
HETATM   26  C   UNL     1       8.378  22.535  56.484  1.00  0.00     0.103 C 
BRANCH  26  27
HETATM   27  C   UNL     1       8.269  23.950  57.026  1.00  0.00     0.222 C 
HETATM   28  N   UNL     1       7.339  24.728  56.358  1.00  0.00    -0.327 N 
HETATM   29  H   UNL     1       6.935  24.324  55.520  1.00  0.00     0.169 HD
HETATM   30  O   UNL     1       8.956  24.306  57.980  1.00  0.00    -0.273 OA
BRANCH  28  31
HETATM   31  C   UNL     1       6.919  26.031  56.696  1.00  0.00     0.035 A 
HETATM   32  C   UNL     1       7.795  27.066  57.046  1.00  0.00     0.045 A 
HETATM   33  C   UNL     1       7.336  28.361  57.396  1.00  0.00     0.014 A 
HETATM   34  C   UNL     1       5.941  28.580  57.395  1.00  0.00     0.044 A 
HETATM   35  C   UNL     1       8.187  29.439  57.749  1.00  0.00     0.020 A 
HETATM   36  N   UNL     1       5.457  29.783  57.755  1.00  0.00    -0.359 N 
HETATM   37  C   UNL     1       5.058  27.550  57.045  1.00  0.00     0.033 A 
HETATM   38  H   UNL     1       4.446  29.916  57.749  1.00  0.00     0.166 HD
HETATM   39  C   UNL     1       6.232  30.807  58.150  1.00  0.00     0.007 A 
HETATM   40  C   UNL     1       5.586  32.084  58.579  1.00  0.00     0.068 C 
HETATM   41  C   UNL     1       7.613  30.640  58.172  1.00  0.00     0.048 A 
HETATM   42  C   UNL     1       5.545  26.285  56.703  1.00  0.00     0.032 A 
BRANCH  35  43
HETATM   43  N   UNL     1       9.568  29.277  57.918  1.00  0.00    -0.302 NA
HETATM   44  H   UNL     1       9.867  28.445  58.421  1.00  0.00     0.124 HD
HETATM   45  H   UNL     1      10.083  30.095  58.240  1.00  0.00     0.124 HD
ENDBRANCH  35  43
ENDBRANCH  28  31
ENDBRANCH  26  27
ENDBRANCH  25  26
ENDBRANCH  24  25
ENDBRANCH   1  24
TORSDOF 12
ENDMDL
MODEL 10
REMARK VINA RESULT:      -9.0      1.953      2.713
REMARK  12 active torsions:
REMARK  status: ('A' for Active; 'I' for Inactive)
REMARK    1  A    between atoms: C_7  and  N_8 
REMARK    2  A    between atoms: C_12  and  N_13 
REMARK       I    between atoms: N_13  and  C_14 
REMARK    3  A    between atoms: C_14  and  C_15 
REMARK    4  A    between atoms: C_15  and  C_16 
REMARK    5  A    between atoms: C_16  and  C_17 
REMARK    6  A    between atoms: C_17  and  C_18 
REMARK    7  A    between atoms: C_18  and  C_19 
REMARK    8  A    between atoms: C_19  and  C_20 
REMARK    9  A    between atoms: C_20  and  C_21 
REMARK   10  A    between atoms: C_21  and  C_22 
REMARK       I    between atoms: C_22  and  N_23 
REMARK   11  A    between atoms: N_23  and  C_24 
REMARK   12  A    between atoms: C_33  and  N_34 
ROOT
HETATM    1  C   UNL     1       4.677  30.390  55.374  1.00  0.00     0.000 C 
ENDROOT
BRANCH   1   2
HETATM    2  C   UNL     1       4.032  29.136  55.972  1.00  0.00     0.000 C 
BRANCH   2   3
HETATM    3  C   UNL     1       4.909  27.883  55.865  1.00  0.00     0.009 C 
BRANCH   3   4
HETATM    4  C   UNL     1       6.415  28.137  55.768  1.00  0.00     0.103 C 
BRANCH   4   5
HETATM    5  C   UNL     1       7.144  28.016  57.088  1.00  0.00     0.222 C 
HETATM    6  N   UNL     1       7.779  26.864  57.455  1.00  0.00    -0.327 N 
HETATM    7  H   UNL     1       8.181  27.004  58.377  1.00  0.00     0.169 HD
HETATM    8  O   UNL     1       7.190  28.951  57.891  1.00  0.00    -0.273 OA
BRANCH   6   9
HETATM    9  C   UNL     1       7.990  25.604  56.868  1.00  0.00     0.035 A 
HETATM   10  C   UNL     1       8.317  24.433  57.543  1.00  0.00     0.032 A 
HETATM   11  C   UNL     1       8.467  23.226  56.847  1.00  0.00     0.033 A 
HETATM   12  C   UNL     1       8.300  23.172  55.458  1.00  0.00     0.044 A 
HETATM   13  N   UNL     1       8.402  21.994  54.815  1.00  0.00    -0.359 N 
HETATM   14  C   UNL     1       8.000  24.342  54.730  1.00  0.00     0.014 A 
HETATM   15  C   UNL     1       8.206  21.851  53.496  1.00  0.00     0.007 A 
HETATM   16  H   UNL     1       8.615  21.163  55.366  1.00  0.00     0.166 HD
HETATM   17  C   UNL     1       8.290  20.487  52.892  1.00  0.00     0.068 C 
HETATM   18  C   UNL     1       7.925  22.979  52.728  1.00  0.00     0.048 A 
HETATM   19  C   UNL     1       7.873  24.242  53.322  1.00  0.00     0.020 A 
HETATM   20  C   UNL     1       7.841  25.543  55.469  1.00  0.00     0.045 A 
BRANCH  19  21
HETATM   21  N   UNL     1       7.469  25.325  52.531  1.00  0.00    -0.302 NA
HETATM   22  H   UNL     1       6.836  25.116  51.765  1.00  0.00     0.124 HD
HETATM   23  H   UNL     1       7.152  26.153  53.033  1.00  0.00     0.124 HD
ENDBRANCH  19  21
ENDBRANCH   6   9
ENDBRANCH   4   5
ENDBRANCH   3   4
ENDBRANCH   2   3
ENDBRANCH   1   2
BRANCH   1  24
HETATM   24  C   UNL     1       3.970  31.659  55.859  1.00  0.00     0.000 C 
BRANCH  24  25
HETATM   25  C   UNL     1       3.971  31.832  57.381  1.00  0.00     0.009 C 
BRANCH  25  26
HETATM   26  C   UNL     1       5.347  31.968  58.027  1.00  0.00     0.103 C 
BRANCH  26  27
HETATM   27  C   UNL     1       5.349  32.661  59.380  1.00  0.00     0.222 C 
HETATM   28  N   UNL     1       5.866  31.880  60.400  1.00  0.00    -0.327 N 
HETATM   29  H   UNL     1       6.061  30.911  60.169  1.00  0.00     0.169 HD
HETATM   30  O   UNL     1       4.936  33.812  59.492  1.00  0.00    -0.273 OA
BRANCH  28  31
HETATM   31  C   UNL     1       6.117  32.274  61.731  1.00  0.00     0.035 A 
HETATM   32  C   UNL     1       5.132  32.763  62.598  1.00  0.00     0.045 A 
HETATM   33  C   UNL     1       5.424  33.166  63.925  1.00  0.00     0.014 A 
HETATM   34  C   UNL     1       6.766  33.071  64.355  1.00  0.00     0.044 A 
HETATM   35  C   UNL     1       4.458  33.658  64.838  1.00  0.00     0.020 A 
HETATM   36  N   UNL     1       7.097  33.476  65.595  1.00  0.00    -0.359 N 
HETATM   37  C   UNL     1       7.757  32.583  63.493  1.00  0.00     0.033 A 
HETATM   38  H   UNL     1       8.072  33.401  65.881  1.00  0.00     0.166 HD
HETATM   39  C   UNL     1       6.217  34.000  66.464  1.00  0.00     0.007 A 
HETATM   40  C   UNL     1       6.702  34.466  67.798  1.00  0.00     0.068 C 
HETATM   41  C   UNL     1       4.883  34.118  66.086  1.00  0.00     0.048 A 
HETATM   42  C   UNL     1       7.433  32.192  62.190  1.00  0.00     0.032 A 
BRANCH  35  43
HETATM   43  N   UNL     1       3.135  33.922  64.458  1.00  0.00    -0.302 NA
HETATM   44  H   UNL     1       2.571  33.116  64.201  1.00  0.00     0.124 HD
HETATM   45  H   UNL     1       2.999  34.681  63.793  1.00  0.00     0.124 HD
ENDBRANCH  35  43
ENDBRANCH  28  31
ENDBRANCH  26  27
ENDBRANCH  25  26
ENDBRANCH  24  25
ENDBRANCH   1  24
TORSDOF 12
ENDMDL
