MODEL 1
REMARK VINA RESULT:      -8.8      0.000      0.000
REMARK  3 active torsions:
REMARK  status: ('A' for Active; 'I' for Inactive)
REMARK    1  A    between atoms: C_12  and  C_13 
REMARK    2  A    between atoms: C_13  and  N_14 
REMARK    3  A    between atoms: C_18  and  C_19 
ROOT
HETATM    1  N   UNL     1       7.357  27.361  56.845  1.00  0.00    -0.067 N 
HETATM    2  H   UNL     1       7.263  27.337  55.822  1.00  0.00     0.280 HD
HETATM    3  C   UNL     1       6.226  28.212  57.381  1.00  0.00     0.236 C 
HETATM    4  C   UNL     1       6.374  29.654  56.917  1.00  0.00     0.040 C 
HETATM    5  C   UNL     1       7.736  30.256  57.267  1.00  0.00     0.062 C 
HETATM    6  C   UNL     1       8.852  29.360  56.727  1.00  0.00     0.040 C 
HETATM    7  C   UNL     1       8.724  27.915  57.181  1.00  0.00     0.236 C 
ENDROOT
BRANCH   1   8
HETATM    8  C   UNL     1       7.265  25.922  57.325  1.00  0.00     0.273 C 
BRANCH   8   9
HETATM    9  C   UNL     1       7.435  24.898  56.237  1.00  0.00    -0.028 A 
HETATM   10  C   UNL     1       7.498  23.534  56.556  1.00  0.00     0.048 A 
HETATM   11  C   UNL     1       7.623  22.570  55.552  1.00  0.00     0.103 A 
HETATM   12  C   UNL     1       7.671  22.949  54.209  1.00  0.00     0.119 A 
HETATM   13  O   UNL     1       7.566  21.268  55.967  1.00  0.00    -0.348 OA
HETATM   14  O   UNL     1       7.659  22.025  53.200  1.00  0.00    -0.347 OA
HETATM   15  C   UNL     1       7.597  24.308  53.884  1.00  0.00     0.047 A 
HETATM   16  C   UNL     1       8.825  21.201  53.197  1.00  0.00     0.178 C 
HETATM   17  C   UNL     1       8.690  20.040  54.170  1.00  0.00     0.053 C 
HETATM   18  C   UNL     1       8.734  20.525  55.610  1.00  0.00     0.178 C 
HETATM   19 BR   UNL     1       7.635  24.900  52.081  1.00  0.00    -0.048 Br
HETATM   20  C   UNL     1       7.490  25.278  54.889  1.00  0.00     0.031 A 
ENDBRANCH   8   9
ENDBRANCH   1   8
BRANCH   5  21
HETATM   21  C   UNL     1       7.871  30.514  58.734  1.00  0.00     0.151 A 
HETATM   22  N   UNL     1       6.918  31.109  59.450  1.00  0.00    -0.158 NA
HETATM   23  N   UNL     1       7.454  31.109  60.681  1.00  0.00    -0.270 N 
HETATM   24  H   UNL     1       6.936  31.510  61.457  1.00  0.00     0.190 HD
HETATM   25  C   UNL     1       8.684  30.528  60.671  1.00  0.00     0.227 A 
HETATM   26  N   UNL     1       8.979  30.139  59.450  1.00  0.00    -0.225 NA
ENDBRANCH   5  21
TORSDOF 3
ENDMDL
MODEL 2
REMARK VINA RESULT:      -8.5      4.888      6.739
REMARK  3 active torsions:
REMARK  status: ('A' for Active; 'I' for Inactive)
REMARK    1  A    between atoms: C_12  and  C_13 
REMARK    2  A    between atoms: C_13  and  N_14 
REMARK    3  A    between atoms: C_18  and  C_19 
ROOT
HETATM    1  N   UNL     1       5.551  26.604  52.249  1.00  0.00    -0.067 N 
HETATM    2  H   UNL     1       6.576  26.576  52.182  1.00  0.00     0.280 HD
HETATM    3  C   UNL     1       5.001  25.947  51.001  1.00  0.00     0.236 C 
HETATM    4  C   UNL     1       5.357  26.761  49.765  1.00  0.00     0.040 C 
HETATM    5  C   UNL     1       4.914  28.221  49.866  1.00  0.00     0.062 C 
HETATM    6  C   UNL     1       5.472  28.845  51.146  1.00  0.00     0.040 C 
HETATM    7  C   UNL     1       5.125  28.048  52.393  1.00  0.00     0.236 C 
ENDROOT
BRANCH   1   8
HETATM    8  C   UNL     1       5.176  25.840  53.508  1.00  0.00     0.273 C 
BRANCH   8   9
HETATM    9  C   UNL     1       6.233  24.882  53.984  1.00  0.00    -0.028 A 
HETATM   10  C   UNL     1       6.611  23.794  53.184  1.00  0.00     0.048 A 
HETATM   11  C   UNL     1       7.614  22.915  53.601  1.00  0.00     0.103 A 
HETATM   12  C   UNL     1       8.270  23.115  54.818  1.00  0.00     0.119 A 
HETATM   13  O   UNL     1       7.977  21.955  52.697  1.00  0.00    -0.348 OA
HETATM   14  O   UNL     1       9.343  22.352  55.190  1.00  0.00    -0.347 OA
HETATM   15  C   UNL     1       7.904  24.205  55.615  1.00  0.00     0.047 A 
HETATM   16  C   UNL     1       8.997  20.982  55.393  1.00  0.00     0.178 C 
HETATM   17  C   UNL     1       8.988  20.208  54.085  1.00  0.00     0.053 C 
HETATM   18  C   UNL     1       7.819  20.629  53.208  1.00  0.00     0.178 C 
HETATM   19 BR   UNL     1       8.765  24.554  57.271  1.00  0.00    -0.048 Br
HETATM   20  C   UNL     1       6.887  25.078  55.209  1.00  0.00     0.031 A 
ENDBRANCH   8   9
ENDBRANCH   1   8
BRANCH   5  21
HETATM   21  C   UNL     1       3.429  28.362  49.763  1.00  0.00     0.151 A 
HETATM   22  N   UNL     1       2.686  27.584  48.977  1.00  0.00    -0.158 NA
HETATM   23  N   UNL     1       1.448  28.046  49.218  1.00  0.00    -0.270 N 
HETATM   24  H   UNL     1       0.653  27.629  48.744  1.00  0.00     0.190 HD
HETATM   25  C   UNL     1       1.481  29.064  50.120  1.00  0.00     0.227 A 
HETATM   26  N   UNL     1       2.724  29.289  50.487  1.00  0.00    -0.225 NA
ENDBRANCH   5  21
TORSDOF 3
ENDMDL
MODEL 3
REMARK VINA RESULT:      -8.3      4.689      8.907
REMARK  3 active torsions:
REMARK  status: ('A' for Active; 'I' for Inactive)
REMARK    1  A    between atoms: C_12  and  C_13 
REMARK    2  A    between atoms: C_13  and  N_14 
REMARK    3  A    between atoms: C_18  and  C_19 
ROOT
HETATM    1  N   UNL     1       6.938  27.665  57.314  1.00  0.00    -0.067 N 
HETATM    2  H   UNL     1       6.701  27.685  58.313  1.00  0.00     0.280 HD
HETATM    3  C   UNL     1       5.732  27.123  56.576  1.00  0.00     0.236 C 
HETATM    4  C   UNL     1       5.468  25.676  56.968  1.00  0.00     0.040 C 
HETATM    5  C   UNL     1       6.689  24.775  56.775  1.00  0.00     0.062 C 
HETATM    6  C   UNL     1       7.891  25.363  57.516  1.00  0.00     0.040 C 
HETATM    7  C   UNL     1       8.172  26.807  57.137  1.00  0.00     0.236 C 
ENDROOT
BRANCH   1   8
HETATM    8  C   UNL     1       7.257  29.095  56.913  1.00  0.00     0.273 C 
BRANCH   8   9
HETATM    9  C   UNL     1       7.169  30.085  58.042  1.00  0.00    -0.028 A 
HETATM   10  C   UNL     1       8.113  30.059  59.078  1.00  0.00     0.048 A 
HETATM   11  C   UNL     1       8.062  30.993  60.116  1.00  0.00     0.103 A 
HETATM   12  C   UNL     1       7.076  31.983  60.129  1.00  0.00     0.119 A 
HETATM   13  O   UNL     1       9.093  30.943  61.013  1.00  0.00    -0.348 OA
HETATM   14  O   UNL     1       7.080  32.989  61.057  1.00  0.00    -0.347 OA
HETATM   15  C   UNL     1       6.138  32.021  59.092  1.00  0.00     0.047 A 
HETATM   16  C   UNL     1       6.875  32.510  62.386  1.00  0.00     0.178 C 
HETATM   17  C   UNL     1       8.172  32.023  63.010  1.00  0.00     0.053 C 
HETATM   18  C   UNL     1       8.645  30.734  62.355  1.00  0.00     0.178 C 
HETATM   19 BR   UNL     1       4.782  33.348  59.030  1.00  0.00    -0.048 Br
HETATM   20  C   UNL     1       6.175  31.075  58.060  1.00  0.00     0.031 A 
ENDBRANCH   8   9
ENDBRANCH   1   8
BRANCH   5  21
HETATM   21  C   UNL     1       6.976  24.530  55.328  1.00  0.00     0.151 A 
HETATM   22  N   UNL     1       8.184  24.185  54.884  1.00  0.00    -0.158 NA
HETATM   23  N   UNL     1       7.969  24.056  53.564  1.00  0.00    -0.270 N 
HETATM   24  H   UNL     1       8.735  23.791  52.952  1.00  0.00     0.190 HD
HETATM   25  C   UNL     1       6.669  24.319  53.260  1.00  0.00     0.227 A 
HETATM   26  N   UNL     1       6.012  24.623  54.358  1.00  0.00    -0.225 NA
ENDBRANCH   5  21
TORSDOF 3
ENDMDL
MODEL 4
REMARK VINA RESULT:      -8.0      4.580      8.543
REMARK  3 active torsions:
REMARK  status: ('A' for Active; 'I' for Inactive)
REMARK    1  A    between atoms: C_12  and  C_13 
REMARK    2  A    between atoms: C_13  and  N_14 
REMARK    3  A    between atoms: C_18  and  C_19 
ROOT
HETATM    1  N   UNL     1       6.750  27.087  55.871  1.00  0.00    -0.067 N 
HETATM    2  H   UNL     1       7.656  27.121  56.353  1.00  0.00     0.280 HD
HETATM    3  C   UNL     1       6.446  25.631  55.589  1.00  0.00     0.236 C 
HETATM    4  C   UNL     1       7.458  25.050  54.611  1.00  0.00     0.040 C 
HETATM    5  C   UNL     1       7.565  25.857  53.316  1.00  0.00     0.062 C 
HETATM    6  C   UNL     1       7.853  27.323  53.640  1.00  0.00     0.040 C 
HETATM    7  C   UNL     1       6.851  27.922  54.614  1.00  0.00     0.236 C 
ENDROOT
BRANCH   1   8
HETATM    8  C   UNL     1       5.732  27.711  56.810  1.00  0.00     0.273 C 
BRANCH   8   9
HETATM    9  C   UNL     1       6.204  28.972  57.480  1.00  0.00    -0.028 A 
HETATM   10  C   UNL     1       7.417  28.985  58.183  1.00  0.00     0.048 A 
HETATM   11  C   UNL     1       7.882  30.159  58.782  1.00  0.00     0.103 A 
HETATM   12  C   UNL     1       7.153  31.346  58.676  1.00  0.00     0.119 A 
HETATM   13  O   UNL     1       9.125  30.085  59.349  1.00  0.00    -0.348 OA
HETATM   14  O   UNL     1       7.647  32.536  59.136  1.00  0.00    -0.347 OA
HETATM   15  C   UNL     1       5.948  31.340  57.966  1.00  0.00     0.047 A 
HETATM   16  C   UNL     1       7.810  32.550  60.555  1.00  0.00     0.178 C 
HETATM   17  C   UNL     1       9.130  31.921  60.971  1.00  0.00     0.053 C 
HETATM   18  C   UNL     1       9.117  30.418  60.740  1.00  0.00     0.178 C 
HETATM   19 BR   UNL     1       4.913  32.918  57.760  1.00  0.00    -0.048 Br
HETATM   20  C   UNL     1       5.469  30.162  57.379  1.00  0.00     0.031 A 
ENDBRANCH   8   9
ENDBRANCH   1   8
BRANCH   5  21
HETATM   21  C   UNL     1       6.353  25.691  52.455  1.00  0.00     0.151 A 
HETATM   22  N   UNL     1       5.489  24.690  52.616  1.00  0.00    -0.158 NA
HETATM   23  N   UNL     1       4.580  24.951  51.662  1.00  0.00    -0.270 N 
HETATM   24  H   UNL     1       3.779  24.337  51.546  1.00  0.00     0.190 HD
HETATM   25  C   UNL     1       4.916  26.075  50.971  1.00  0.00     0.227 A 
HETATM   26  N   UNL     1       6.036  26.569  51.450  1.00  0.00    -0.225 NA
ENDBRANCH   5  21
TORSDOF 3
ENDMDL
MODEL 5
REMARK VINA RESULT:      -8.0      1.841      2.568
REMARK  3 active torsions:
REMARK  status: ('A' for Active; 'I' for Inactive)
REMARK    1  A    between atoms: C_12  and  C_13 
REMARK    2  A    between atoms: C_13  and  N_14 
REMARK    3  A    between atoms: C_18  and  C_19 
ROOT
HETATM    1  N   UNL     1       6.643  29.228  57.393  1.00  0.00    -0.067 N 
HETATM    2  H   UNL     1       6.800  29.508  56.418  1.00  0.00     0.280 HD
HETATM    3  C   UNL     1       5.990  30.398  58.097  1.00  0.00     0.236 C 
HETATM    4  C   UNL     1       6.939  31.587  58.155  1.00  0.00     0.040 C 
HETATM    5  C   UNL     1       8.288  31.241  58.786  1.00  0.00     0.062 C 
HETATM    6  C   UNL     1       8.908  30.044  58.064  1.00  0.00     0.040 C 
HETATM    7  C   UNL     1       7.976  28.846  57.997  1.00  0.00     0.236 C 
ENDROOT
BRANCH   1   8
HETATM    8  C   UNL     1       5.738  28.008  57.356  1.00  0.00     0.273 C 
BRANCH   8   9
HETATM    9  C   UNL     1       5.950  27.120  56.161  1.00  0.00    -0.028 A 
HETATM   10  C   UNL     1       6.507  25.843  56.321  1.00  0.00     0.048 A 
HETATM   11  C   UNL     1       6.680  24.996  55.223  1.00  0.00     0.103 A 
HETATM   12  C   UNL     1       6.284  25.402  53.946  1.00  0.00     0.119 A 
HETATM   13  O   UNL     1       7.130  23.737  55.508  1.00  0.00    -0.348 OA
HETATM   14  O   UNL     1       6.317  24.548  52.878  1.00  0.00    -0.347 OA
HETATM   15  C   UNL     1       5.718  26.671  53.783  1.00  0.00     0.047 A 
HETATM   16  C   UNL     1       7.645  24.147  52.538  1.00  0.00     0.178 C 
HETATM   17  C   UNL     1       8.113  22.983  53.395  1.00  0.00     0.053 C 
HETATM   18  C   UNL     1       8.350  23.421  54.832  1.00  0.00     0.178 C 
HETATM   19 BR   UNL     1       5.137  27.285  52.083  1.00  0.00    -0.048 Br
HETATM   20  C   UNL     1       5.560  27.530  54.878  1.00  0.00     0.031 A 
ENDBRANCH   8   9
ENDBRANCH   1   8
BRANCH   5  21
HETATM   21  C   UNL     1       8.173  31.019  60.261  1.00  0.00     0.151 A 
HETATM   22  N   UNL     1       8.998  30.217  60.934  1.00  0.00    -0.158 NA
HETATM   23  N   UNL     1       8.542  30.339  62.191  1.00  0.00    -0.270 N 
HETATM   24  H   UNL     1       8.993  29.827  62.943  1.00  0.00     0.190 HD
HETATM   25  C   UNL     1       7.481  31.190  62.238  1.00  0.00     0.227 A 
HETATM   26  N   UNL     1       7.222  31.639  61.029  1.00  0.00    -0.225 NA
ENDBRANCH   5  21
TORSDOF 3
ENDMDL
MODEL 6
REMARK VINA RESULT:      -7.6      4.807      6.218
REMARK  3 active torsions:
REMARK  status: ('A' for Active; 'I' for Inactive)
REMARK    1  A    between atoms: C_12  and  C_13 
REMARK    2  A    between atoms: C_13  and  N_14 
REMARK    3  A    between atoms: C_18  and  C_19 
ROOT
HETATM    1  N   UNL     1       5.957  26.327  51.992  1.00  0.00    -0.067 N 
HETATM    2  H   UNL     1       5.373  25.788  52.641  1.00  0.00     0.280 HD
HETATM    3  C   UNL     1       6.149  27.703  52.594  1.00  0.00     0.236 C 
HETATM    4  C   UNL     1       4.822  28.444  52.670  1.00  0.00     0.040 C 
HETATM    5  C   UNL     1       4.105  28.523  51.321  1.00  0.00     0.062 C 
HETATM    6  C   UNL     1       3.947  27.119  50.735  1.00  0.00     0.040 C 
HETATM    7  C   UNL     1       5.262  26.362  50.648  1.00  0.00     0.236 C 
ENDROOT
BRANCH   1   8
HETATM    8  C   UNL     1       7.271  25.574  51.859  1.00  0.00     0.273 C 
BRANCH   8   9
HETATM    9  C   UNL     1       7.615  24.724  53.051  1.00  0.00    -0.028 A 
HETATM   10  C   UNL     1       8.098  23.420  52.871  1.00  0.00     0.048 A 
HETATM   11  C   UNL     1       8.452  22.631  53.969  1.00  0.00     0.103 A 
HETATM   12  C   UNL     1       8.347  23.136  55.267  1.00  0.00     0.119 A 
HETATM   13  O   UNL     1       9.010  21.418  53.675  1.00  0.00    -0.348 OA
HETATM   14  O   UNL     1       8.810  22.439  56.350  1.00  0.00    -0.347 OA
HETATM   15  C   UNL     1       7.876  24.441  55.452  1.00  0.00     0.047 A 
HETATM   16  C   UNL     1       8.090  21.225  56.569  1.00  0.00     0.178 C 
HETATM   17  C   UNL     1       8.622  20.096  55.700  1.00  0.00     0.053 C 
HETATM   18  C   UNL     1       8.280  20.324  54.236  1.00  0.00     0.178 C 
HETATM   19 BR   UNL     1       7.726  25.204  57.184  1.00  0.00    -0.048 Br
HETATM   20  C   UNL     1       7.504  25.228  54.355  1.00  0.00     0.031 A 
ENDBRANCH   8   9
ENDBRANCH   1   8
BRANCH   5  21
HETATM   21  C   UNL     1       4.792  29.460  50.379  1.00  0.00     0.151 A 
HETATM   22  N   UNL     1       4.525  29.490  49.074  1.00  0.00    -0.158 NA
HETATM   23  N   UNL     1       5.340  30.469  48.646  1.00  0.00    -0.270 N 
HETATM   24  H   UNL     1       5.352  30.721  47.663  1.00  0.00     0.190 HD
HETATM   25  C   UNL     1       6.056  30.987  49.681  1.00  0.00     0.227 A 
HETATM   26  N   UNL     1       5.731  30.368  50.796  1.00  0.00    -0.225 NA
ENDBRANCH   5  21
TORSDOF 3
ENDMDL
MODEL 7
REMARK VINA RESULT:      -7.3      4.488      7.072
REMARK  3 active torsions:
REMARK  status: ('A' for Active; 'I' for Inactive)
REMARK    1  A    between atoms: C_12  and  C_13 
REMARK    2  A    between atoms: C_13  and  N_14 
REMARK    3  A    between atoms: C_18  and  C_19 
ROOT
HETATM    1  N   UNL     1       6.344  32.024  60.865  1.00  0.00    -0.067 N 
HETATM    2  H   UNL     1       5.877  31.170  60.538  1.00  0.00     0.280 HD
HETATM    3  C   UNL     1       6.595  31.859  62.350  1.00  0.00     0.236 C 
HETATM    4  C   UNL     1       5.279  31.789  63.111  1.00  0.00     0.040 C 
HETATM    5  C   UNL     1       4.365  32.982  62.831  1.00  0.00     0.062 C 
HETATM    6  C   UNL     1       4.151  33.130  61.324  1.00  0.00     0.040 C 
HETATM    7  C   UNL     1       5.454  33.204  60.546  1.00  0.00     0.236 C 
ENDROOT
BRANCH   1   8
HETATM    8  C   UNL     1       7.639  32.142  60.078  1.00  0.00     0.273 C 
BRANCH   8   9
HETATM    9  C   UNL     1       7.768  31.151  58.954  1.00  0.00    -0.028 A 
HETATM   10  C   UNL     1       6.621  30.621  58.346  1.00  0.00     0.048 A 
HETATM   11  C   UNL     1       6.728  29.724  57.280  1.00  0.00     0.103 A 
HETATM   12  C   UNL     1       7.982  29.353  56.789  1.00  0.00     0.119 A 
HETATM   13  O   UNL     1       5.549  29.354  56.694  1.00  0.00    -0.348 OA
HETATM   14  O   UNL     1       8.115  28.585  55.664  1.00  0.00    -0.347 OA
HETATM   15  C   UNL     1       9.129  29.889  57.384  1.00  0.00     0.047 A 
HETATM   16  C   UNL     1       7.591  27.268  55.835  1.00  0.00     0.178 C 
HETATM   17  C   UNL     1       6.089  27.230  55.600  1.00  0.00     0.053 C 
HETATM   18  C   UNL     1       5.342  27.939  56.718  1.00  0.00     0.178 C 
HETATM   19 BR   UNL     1      10.867  29.449  56.759  1.00  0.00    -0.048 Br
HETATM   20  C   UNL     1       9.027  30.773  58.465  1.00  0.00     0.031 A 
ENDBRANCH   8   9
ENDBRANCH   1   8
BRANCH   5  21
HETATM   21  C   UNL     1       4.880  34.238  63.459  1.00  0.00     0.151 A 
HETATM   22  N   UNL     1       5.605  34.238  64.577  1.00  0.00    -0.158 NA
HETATM   23  N   UNL     1       5.854  35.547  64.749  1.00  0.00    -0.270 N 
HETATM   24  H   UNL     1       6.404  35.856  65.545  1.00  0.00     0.190 HD
HETATM   25  C   UNL     1       5.285  36.279  63.753  1.00  0.00     0.227 A 
HETATM   26  N   UNL     1       4.660  35.478  62.918  1.00  0.00    -0.225 NA
ENDBRANCH   5  21
TORSDOF 3
ENDMDL
MODEL 8
REMARK VINA RESULT:      -7.3      4.445      8.569
REMARK  3 active torsions:
REMARK  status: ('A' for Active; 'I' for Inactive)
REMARK    1  A    between atoms: C_12  and  C_13 
REMARK    2  A    between atoms: C_13  and  N_14 
REMARK    3  A    between atoms: C_18  and  C_19 
ROOT
HETATM    1  N   UNL     1       6.964  27.202  54.739  1.00  0.00    -0.067 N 
HETATM    2  H   UNL     1       6.078  27.716  54.669  1.00  0.00     0.280 HD
HETATM    3  C   UNL     1       7.245  26.602  53.377  1.00  0.00     0.236 C 
HETATM    4  C   UNL     1       6.191  25.564  53.020  1.00  0.00     0.040 C 
HETATM    5  C   UNL     1       6.040  24.477  54.086  1.00  0.00     0.062 C 
HETATM    6  C   UNL     1       5.778  25.120  55.449  1.00  0.00     0.040 C 
HETATM    7  C   UNL     1       6.821  26.158  55.825  1.00  0.00     0.236 C 
ENDROOT
BRANCH   1   8
HETATM    8  C   UNL     1       8.024  28.212  55.147  1.00  0.00     0.273 C 
BRANCH   8   9
HETATM    9  C   UNL     1       7.586  29.160  56.229  1.00  0.00    -0.028 A 
HETATM   10  C   UNL     1       6.223  29.419  56.431  1.00  0.00     0.048 A 
HETATM   11  C   UNL     1       5.801  30.272  57.454  1.00  0.00     0.103 A 
HETATM   12  C   UNL     1       6.733  30.870  58.307  1.00  0.00     0.119 A 
HETATM   13  O   UNL     1       4.448  30.369  57.629  1.00  0.00    -0.348 OA
HETATM   14  O   UNL     1       6.345  31.601  59.396  1.00  0.00    -0.347 OA
HETATM   15  C   UNL     1       8.094  30.606  58.117  1.00  0.00     0.047 A 
HETATM   16  C   UNL     1       5.640  32.789  59.036  1.00  0.00     0.178 C 
HETATM   17  C   UNL     1       4.167  32.510  58.785  1.00  0.00     0.053 C 
HETATM   18  C   UNL     1       3.971  31.711  57.506  1.00  0.00     0.178 C 
HETATM   19 BR   UNL     1       9.417  31.364  59.247  1.00  0.00    -0.048 Br
HETATM   20  C   UNL     1       8.521  29.765  57.081  1.00  0.00     0.031 A 
ENDBRANCH   8   9
ENDBRANCH   1   8
BRANCH   5  21
HETATM   21  C   UNL     1       7.216  23.553  54.109  1.00  0.00     0.151 A 
HETATM   22  N   UNL     1       7.851  23.169  53.002  1.00  0.00    -0.158 NA
HETATM   23  N   UNL     1       8.821  22.383  53.496  1.00  0.00    -0.270 N 
HETATM   24  H   UNL     1       9.480  21.938  52.864  1.00  0.00     0.190 HD
HETATM   25  C   UNL     1       8.745  22.318  54.853  1.00  0.00     0.227 A 
HETATM   26  N   UNL     1       7.737  23.050  55.273  1.00  0.00    -0.225 NA
ENDBRANCH   5  21
TORSDOF 3
ENDMDL
MODEL 9
REMARK VINA RESULT:      -7.2      5.133      9.308
REMARK  3 active torsions:
REMARK  status: ('A' for Active; 'I' for Inactive)
REMARK    1  A    between atoms: C_12  and  C_13 
REMARK    2  A    between atoms: C_13  and  N_14 
REMARK    3  A    between atoms: C_18  and  C_19 
ROOT
HETATM    1  N   UNL     1       6.540  27.957  57.202  1.00  0.00    -0.067 N 
HETATM    2  H   UNL     1       6.347  28.001  58.209  1.00  0.00     0.280 HD
HETATM    3  C   UNL     1       5.360  27.271  56.547  1.00  0.00     0.236 C 
HETATM    4  C   UNL     1       5.254  25.825  57.012  1.00  0.00     0.040 C 
HETATM    5  C   UNL     1       6.545  25.034  56.798  1.00  0.00     0.062 C 
HETATM    6  C   UNL     1       7.717  25.766  57.454  1.00  0.00     0.040 C 
HETATM    7  C   UNL     1       7.841  27.211  57.001  1.00  0.00     0.236 C 
ENDROOT
BRANCH   1   8
HETATM    8  C   UNL     1       6.702  29.391  56.725  1.00  0.00     0.273 C 
BRANCH   8   9
HETATM    9  C   UNL     1       6.339  30.426  57.754  1.00  0.00    -0.028 A 
HETATM   10  C   UNL     1       5.030  30.923  57.822  1.00  0.00     0.048 A 
HETATM   11  C   UNL     1       4.671  31.861  58.794  1.00  0.00     0.103 A 
HETATM   12  C   UNL     1       5.610  32.307  59.728  1.00  0.00     0.119 A 
HETATM   13  O   UNL     1       3.346  32.196  58.837  1.00  0.00    -0.348 OA
HETATM   14  O   UNL     1       5.256  33.121  60.770  1.00  0.00    -0.347 OA
HETATM   15  C   UNL     1       6.915  31.806  59.671  1.00  0.00     0.047 A 
HETATM   16  C   UNL     1       4.808  34.405  60.335  1.00  0.00     0.178 C 
HETATM   17  C   UNL     1       3.339  34.381  59.945  1.00  0.00     0.053 C 
HETATM   18  C   UNL     1       3.126  33.598  58.659  1.00  0.00     0.178 C 
HETATM   19 BR   UNL     1       8.239  32.348  60.918  1.00  0.00    -0.048 Br
HETATM   20  C   UNL     1       7.282  30.879  58.688  1.00  0.00     0.031 A 
ENDBRANCH   8   9
ENDBRANCH   1   8
BRANCH   5  21
HETATM   21  C   UNL     1       6.790  24.750  55.350  1.00  0.00     0.151 A 
HETATM   22  N   UNL     1       5.827  24.813  54.432  1.00  0.00    -0.158 NA
HETATM   23  N   UNL     1       6.494  24.509  53.306  1.00  0.00    -0.270 N 
HETATM   24  H   UNL     1       6.001  24.481  52.419  1.00  0.00     0.190 HD
HETATM   25  C   UNL     1       7.808  24.278  53.573  1.00  0.00     0.227 A 
HETATM   26  N   UNL     1       8.029  24.423  54.862  1.00  0.00    -0.225 NA
ENDBRANCH   5  21
TORSDOF 3
ENDMDL
MODEL 10
REMARK VINA RESULT:      -7.1      6.569      8.482
REMARK  3 active torsions:
REMARK  status: ('A' for Active; 'I' for Inactive)
REMARK    1  A    between atoms: C_12  and  C_13 
REMARK    2  A    between atoms: C_13  and  N_14 
REMARK    3  A    between atoms: C_18  and  C_19 
ROOT
HETATM    1  N   UNL     1       4.041  27.469  50.429  1.00  0.00    -0.067 N 
HETATM    2  H   UNL     1       3.572  26.769  51.015  1.00  0.00     0.280 HD
HETATM    3  C   UNL     1       3.452  28.819  50.782  1.00  0.00     0.236 C 
HETATM    4  C   UNL     1       1.980  28.878  50.401  1.00  0.00     0.040 C 
HETATM    5  C   UNL     1       1.731  28.531  48.932  1.00  0.00     0.062 C 
HETATM    6  C   UNL     1       2.355  27.173  48.607  1.00  0.00     0.040 C 
HETATM    7  C   UNL     1       3.827  27.094  48.979  1.00  0.00     0.236 C 
ENDROOT
BRANCH   1   8
HETATM    8  C   UNL     1       5.523  27.391  50.756  1.00  0.00     0.273 C 
BRANCH   8   9
HETATM    9  C   UNL     1       5.838  26.590  51.989  1.00  0.00    -0.028 A 
HETATM   10  C   UNL     1       5.376  27.014  53.243  1.00  0.00     0.048 A 
HETATM   11  C   UNL     1       5.635  26.262  54.392  1.00  0.00     0.103 A 
HETATM   12  C   UNL     1       6.347  25.063  54.308  1.00  0.00     0.119 A 
HETATM   13  O   UNL     1       5.047  26.711  55.542  1.00  0.00    -0.348 OA
HETATM   14  O   UNL     1       6.501  24.241  55.391  1.00  0.00    -0.347 OA
HETATM   15  C   UNL     1       6.801  24.630  53.058  1.00  0.00     0.047 A 
HETATM   16  C   UNL     1       7.277  24.840  56.429  1.00  0.00     0.178 C 
HETATM   17  C   UNL     1       6.427  25.736  57.316  1.00  0.00     0.053 C 
HETATM   18  C   UNL     1       5.996  26.991  56.574  1.00  0.00     0.178 C 
HETATM   19 BR   UNL     1       7.757  23.001  52.861  1.00  0.00    -0.048 Br
HETATM   20  C   UNL     1       6.559  25.390  51.907  1.00  0.00     0.031 A 
ENDBRANCH   8   9
ENDBRANCH   1   8
BRANCH   5  21
HETATM   21  C   UNL     1       2.208  29.612  48.015  1.00  0.00     0.151 A 
HETATM   22  N   UNL     1       2.339  30.879  48.405  1.00  0.00    -0.158 NA
HETATM   23  N   UNL     1       2.800  31.468  47.289  1.00  0.00    -0.270 N 
HETATM   24  H   UNL     1       2.999  32.463  47.289  1.00  0.00     0.190 HD
HETATM   25  C   UNL     1       2.930  30.559  46.284  1.00  0.00     0.227 A 
HETATM   26  N   UNL     1       2.563  29.371  46.713  1.00  0.00    -0.225 NA
ENDBRANCH   5  21
TORSDOF 3
ENDMDL
