MODEL 1
REMARK VINA RESULT:      -9.1      0.000      0.000
REMARK  10 active torsions:
REMARK  status: ('A' for Active; 'I' for Inactive)
REMARK    1  A    between atoms: C_4  and  C_5 
REMARK    2  A    between atoms: C_7  and  C_8 
REMARK    3  A    between atoms: C_8  and  C_9 
REMARK       I    between atoms: C_9  and  N_10 
REMARK    4  A    between atoms: N_10  and  C_11 
REMARK    5  A    between atoms: C_11  and  C_12 
REMARK    6  A    between atoms: C_12  and  N_13 
REMARK    7  A    between atoms: C_24  and  C_25 
REMARK    8  A    between atoms: C_25  and  O_26 
REMARK    9  A    between atoms: O_26  and  C_27 
REMARK   10  A    between atoms: C_27  and  C_28 
ROOT
HETATM    1  C   UNL     1       7.013  27.040  55.063  1.00  0.00     0.166 C 
HETATM    2  N   UNL     1       6.730  28.339  55.707  1.00  0.00    -0.318 N 
HETATM    3  C   UNL     1       7.390  29.410  56.003  1.00  0.00     0.011 C 
HETATM    4  C   UNL     1       5.279  28.413  56.248  1.00  0.00     0.170 C 
HETATM    5  S   UNL     1       4.815  30.050  56.559  1.00  0.00    -0.086 SA
HETATM    6  C   UNL     1       6.575  30.522  56.632  1.00  0.00     0.135 C 
HETATM    7  N   UNL     1       4.589  27.385  56.603  1.00  0.00    -0.229 NA
HETATM    8  C   UNL     1       5.264  26.175  56.642  1.00  0.00     0.048 C 
HETATM    9  C   UNL     1       4.640  25.169  57.580  1.00  0.00     0.071 C 
HETATM   10  C   UNL     1       6.438  25.993  55.996  1.00  0.00     0.069 C 
ENDROOT
BRANCH   3  11
HETATM   11  C   UNL     1       8.873  29.532  55.798  1.00  0.00     0.156 C 
BRANCH  11  12
HETATM   12  C   UNL     1       9.637  29.792  57.081  1.00  0.00     0.223 C 
HETATM   13  N   UNL     1       8.947  30.511  58.023  1.00  0.00    -0.359 N 
HETATM   14  H   UNL     1       8.048  30.902  57.748  1.00  0.00     0.162 HD
HETATM   15  O   UNL     1      10.786  29.389  57.240  1.00  0.00    -0.273 OA
BRANCH  13  16
HETATM   16  C   UNL     1       9.495  31.100  59.249  1.00  0.00     0.150 C 
BRANCH  16  17
HETATM   17  C   UNL     1       9.050  30.518  60.609  1.00  0.00     0.253 C 
BRANCH  17  18
HETATM   18  N   UNL     1       7.686  31.007  61.056  1.00  0.00    -0.077 N 
HETATM   19  H   UNL     1       7.013  30.262  60.792  1.00  0.00     0.279 HD
HETATM   20  C   UNL     1       7.560  31.226  62.539  1.00  0.00     0.269 C 
HETATM   21  C   UNL     1       7.271  32.241  60.300  1.00  0.00     0.269 C 
ENDBRANCH  17  18
ENDBRANCH  16  17
ENDBRANCH  13  16
ENDBRANCH  11  12
ENDBRANCH   3  11
BRANCH   1  22
HETATM   22  C   UNL     1       6.460  26.938  53.612  1.00  0.00    -0.024 A 
HETATM   23  C   UNL     1       5.338  27.743  53.267  1.00  0.00     0.017 A 
HETATM   24  C   UNL     1       4.753  27.746  51.992  1.00  0.00    -0.061 A 
HETATM   25  C   UNL     1       3.590  28.648  51.685  1.00  0.00     0.048 C 
HETATM   26  C   UNL     1       5.299  26.944  51.003  1.00  0.00     0.007 A 
HETATM   27  C   UNL     1       6.363  26.106  51.309  1.00  0.00     0.008 A 
HETATM   28  C   UNL     1       6.931  26.055  52.602  1.00  0.00    -0.053 A 
HETATM   29  C   UNL     1       8.012  25.023  52.767  1.00  0.00     0.049 C 
ENDBRANCH   1  22
BRANCH  10  30
HETATM   30  C   UNL     1       7.340  24.858  56.255  1.00  0.00     0.294 C 
HETATM   31  O   UNL     1       8.445  25.051  56.737  1.00  0.00    -0.259 OA
BRANCH  30  32
HETATM   32  O   UNL     1       6.802  23.701  55.834  1.00  0.00    -0.313 OA
BRANCH  32  33
HETATM   33  C   UNL     1       7.446  22.496  56.286  1.00  0.00     0.217 C 
BRANCH  33  34
HETATM   34  C   UNL     1       7.906  21.673  55.110  1.00  0.00    -0.034 A 
HETATM   35  C   UNL     1       8.594  20.465  55.300  1.00  0.00     0.009 A 
HETATM   36  C   UNL     1       8.990  19.692  54.208  1.00  0.00     0.001 A 
HETATM   37  C   UNL     1       8.693  20.111  52.913  1.00  0.00     0.000 A 
HETATM   38  C   UNL     1       8.004  21.305  52.709  1.00  0.00     0.001 A 
HETATM   39  C   UNL     1       7.615  22.084  53.801  1.00  0.00     0.009 A 
ENDBRANCH  33  34
ENDBRANCH  32  33
ENDBRANCH  30  32
ENDBRANCH  10  30
TORSDOF 10
ENDMDL
MODEL 2
REMARK VINA RESULT:      -9.1      2.774      4.924
REMARK  10 active torsions:
REMARK  status: ('A' for Active; 'I' for Inactive)
REMARK    1  A    between atoms: C_4  and  C_5 
REMARK    2  A    between atoms: C_7  and  C_8 
REMARK    3  A    between atoms: C_8  and  C_9 
REMARK       I    between atoms: C_9  and  N_10 
REMARK    4  A    between atoms: N_10  and  C_11 
REMARK    5  A    between atoms: C_11  and  C_12 
REMARK    6  A    between atoms: C_12  and  N_13 
REMARK    7  A    between atoms: C_24  and  C_25 
REMARK    8  A    between atoms: C_25  and  O_26 
REMARK    9  A    between atoms: O_26  and  C_27 
REMARK   10  A    between atoms: C_27  and  C_28 
ROOT
HETATM    1  C   UNL     1       5.776  29.141  57.132  1.00  0.00     0.166 C 
HETATM    2  N   UNL     1       4.840  30.229  56.784  1.00  0.00    -0.318 N 
HETATM    3  C   UNL     1       3.932  30.922  57.388  1.00  0.00     0.011 C 
HETATM    4  C   UNL     1       4.900  30.584  55.276  1.00  0.00     0.170 C 
HETATM    5  S   UNL     1       4.183  32.128  54.972  1.00  0.00    -0.086 SA
HETATM    6  C   UNL     1       3.279  32.005  56.552  1.00  0.00     0.135 C 
HETATM    7  N   UNL     1       5.254  29.756  54.354  1.00  0.00    -0.229 NA
HETATM    8  C   UNL     1       5.432  28.439  54.746  1.00  0.00     0.048 C 
HETATM    9  C   UNL     1       5.261  27.449  53.619  1.00  0.00     0.071 C 
HETATM   10  C   UNL     1       5.607  28.100  56.043  1.00  0.00     0.069 C 
ENDROOT
BRANCH   3  11
HETATM   11  C   UNL     1       3.502  30.642  58.798  1.00  0.00     0.156 C 
BRANCH  11  12
HETATM   12  C   UNL     1       3.677  31.828  59.727  1.00  0.00     0.223 C 
HETATM   13  N   UNL     1       4.912  31.916  60.315  1.00  0.00    -0.359 N 
HETATM   14  H   UNL     1       5.553  31.138  60.178  1.00  0.00     0.162 HD
HETATM   15  O   UNL     1       2.769  32.629  59.928  1.00  0.00    -0.273 OA
BRANCH  13  16
HETATM   16  C   UNL     1       5.297  32.810  61.413  1.00  0.00     0.150 C 
BRANCH  16  17
HETATM   17  C   UNL     1       5.350  32.235  62.846  1.00  0.00     0.253 C 
BRANCH  17  18
HETATM   18  N   UNL     1       4.393  32.917  63.804  1.00  0.00    -0.077 N 
HETATM   19  H   UNL     1       3.729  32.182  64.119  1.00  0.00     0.279 HD
HETATM   20  C   UNL     1       5.046  33.491  65.031  1.00  0.00     0.269 C 
HETATM   21  C   UNL     1       3.567  33.963  63.104  1.00  0.00     0.269 C 
ENDBRANCH  17  18
ENDBRANCH  16  17
ENDBRANCH  13  16
ENDBRANCH  11  12
ENDBRANCH   3  11
BRANCH   1  22
HETATM   22  C   UNL     1       7.247  29.622  57.296  1.00  0.00    -0.024 A 
HETATM   23  C   UNL     1       7.541  30.520  58.360  1.00  0.00     0.017 A 
HETATM   24  C   UNL     1       8.826  31.018  58.618  1.00  0.00    -0.061 A 
HETATM   25  C   UNL     1       9.073  31.938  59.781  1.00  0.00     0.048 C 
HETATM   26  C   UNL     1       9.877  30.606  57.814  1.00  0.00     0.007 A 
HETATM   27  C   UNL     1       9.628  29.769  56.734  1.00  0.00     0.008 A 
HETATM   28  C   UNL     1       8.330  29.299  56.433  1.00  0.00    -0.053 A 
HETATM   29  C   UNL     1       8.241  28.481  55.175  1.00  0.00     0.049 C 
ENDBRANCH   1  22
BRANCH  10  30
HETATM   30  C   UNL     1       5.486  26.720  56.545  1.00  0.00     0.294 C 
HETATM   31  O   UNL     1       4.468  26.363  57.117  1.00  0.00    -0.259 OA
BRANCH  30  32
HETATM   32  O   UNL     1       6.618  26.026  56.342  1.00  0.00    -0.313 OA
BRANCH  32  33
HETATM   33  C   UNL     1       6.544  24.606  56.561  1.00  0.00     0.217 C 
BRANCH  33  34
HETATM   34  C   UNL     1       7.067  23.860  55.361  1.00  0.00    -0.034 A 
HETATM   35  C   UNL     1       7.497  22.529  55.471  1.00  0.00     0.009 A 
HETATM   36  C   UNL     1       7.952  21.833  54.349  1.00  0.00     0.001 A 
HETATM   37  C   UNL     1       7.971  22.455  53.103  1.00  0.00     0.000 A 
HETATM   38  C   UNL     1       7.540  23.774  52.978  1.00  0.00     0.001 A 
HETATM   39  C   UNL     1       7.094  24.475  54.101  1.00  0.00     0.009 A 
ENDBRANCH  33  34
ENDBRANCH  32  33
ENDBRANCH  30  32
ENDBRANCH  10  30
TORSDOF 10
ENDMDL
MODEL 3
REMARK VINA RESULT:      -8.6      4.196     10.130
REMARK  10 active torsions:
REMARK  status: ('A' for Active; 'I' for Inactive)
REMARK    1  A    between atoms: C_4  and  C_5 
REMARK    2  A    between atoms: C_7  and  C_8 
REMARK    3  A    between atoms: C_8  and  C_9 
REMARK       I    between atoms: C_9  and  N_10 
REMARK    4  A    between atoms: N_10  and  C_11 
REMARK    5  A    between atoms: C_11  and  C_12 
REMARK    6  A    between atoms: C_12  and  N_13 
REMARK    7  A    between atoms: C_24  and  C_25 
REMARK    8  A    between atoms: C_25  and  O_26 
REMARK    9  A    between atoms: O_26  and  C_27 
REMARK   10  A    between atoms: C_27  and  C_28 
ROOT
HETATM    1  C   UNL     1       4.769  31.530  57.838  1.00  0.00     0.166 C 
HETATM    2  N   UNL     1       5.956  30.652  57.859  1.00  0.00    -0.318 N 
HETATM    3  C   UNL     1       6.231  29.430  57.542  1.00  0.00     0.011 C 
HETATM    4  C   UNL     1       7.178  31.348  58.510  1.00  0.00     0.170 C 
HETATM    5  S   UNL     1       8.646  30.524  58.112  1.00  0.00    -0.086 SA
HETATM    6  C   UNL     1       7.683  29.027  57.711  1.00  0.00     0.135 C 
HETATM    7  N   UNL     1       7.091  32.288  59.386  1.00  0.00    -0.229 NA
HETATM    8  C   UNL     1       5.822  32.562  59.870  1.00  0.00     0.048 C 
HETATM    9  C   UNL     1       5.826  33.199  61.240  1.00  0.00     0.071 C 
HETATM   10  C   UNL     1       4.709  32.162  59.215  1.00  0.00     0.069 C 
ENDROOT
BRANCH   3  11
HETATM   11  C   UNL     1       5.184  28.452  57.095  1.00  0.00     0.156 C 
BRANCH  11  12
HETATM   12  C   UNL     1       5.613  27.614  55.906  1.00  0.00     0.223 C 
HETATM   13  N   UNL     1       5.243  26.296  55.972  1.00  0.00    -0.359 N 
HETATM   14  H   UNL     1       4.827  25.968  56.841  1.00  0.00     0.162 HD
HETATM   15  O   UNL     1       6.248  28.097  54.973  1.00  0.00    -0.273 OA
BRANCH  13  16
HETATM   16  C   UNL     1       5.703  25.213  55.094  1.00  0.00     0.150 C 
BRANCH  16  17
HETATM   17  C   UNL     1       5.196  25.182  53.636  1.00  0.00     0.253 C 
BRANCH  17  18
HETATM   18  N   UNL     1       6.061  25.979  52.680  1.00  0.00    -0.077 N 
HETATM   19  H   UNL     1       6.024  26.963  53.011  1.00  0.00     0.279 HD
HETATM   20  C   UNL     1       7.506  25.564  52.656  1.00  0.00     0.269 C 
HETATM   21  C   UNL     1       5.486  25.979  51.289  1.00  0.00     0.269 C 
ENDBRANCH  17  18
ENDBRANCH  16  17
ENDBRANCH  13  16
ENDBRANCH  11  12
ENDBRANCH   3  11
BRANCH   1  22
HETATM   22  C   UNL     1       4.795  32.576  56.685  1.00  0.00    -0.024 A 
HETATM   23  C   UNL     1       4.919  33.951  57.034  1.00  0.00     0.017 A 
HETATM   24  C   UNL     1       4.963  34.986  56.088  1.00  0.00    -0.061 A 
HETATM   25  C   UNL     1       5.130  36.415  56.523  1.00  0.00     0.048 C 
HETATM   26  C   UNL     1       4.903  34.665  54.742  1.00  0.00     0.007 A 
HETATM   27  C   UNL     1       4.733  33.341  54.358  1.00  0.00     0.008 A 
HETATM   28  C   UNL     1       4.637  32.293  55.301  1.00  0.00    -0.053 A 
HETATM   29  C   UNL     1       4.362  30.941  54.703  1.00  0.00     0.049 C 
ENDBRANCH   1  22
BRANCH  10  30
HETATM   30  C   UNL     1       3.369  32.145  59.826  1.00  0.00     0.294 C 
HETATM   31  O   UNL     1       2.973  31.147  60.407  1.00  0.00    -0.259 OA
BRANCH  30  32
HETATM   32  O   UNL     1       2.707  33.289  59.584  1.00  0.00    -0.313 OA
BRANCH  32  33
HETATM   33  C   UNL     1       2.139  33.953  60.727  1.00  0.00     0.217 C 
BRANCH  33  34
HETATM   34  C   UNL     1       2.871  35.239  61.006  1.00  0.00    -0.034 A 
HETATM   35  C   UNL     1       2.902  35.786  62.298  1.00  0.00     0.009 A 
HETATM   36  C   UNL     1       3.608  36.962  62.556  1.00  0.00     0.001 A 
HETATM   37  C   UNL     1       4.302  37.599  61.530  1.00  0.00     0.000 A 
HETATM   38  C   UNL     1       4.287  37.063  60.245  1.00  0.00     0.001 A 
HETATM   39  C   UNL     1       3.574  35.891  59.982  1.00  0.00     0.009 A 
ENDBRANCH  33  34
ENDBRANCH  32  33
ENDBRANCH  30  32
ENDBRANCH  10  30
TORSDOF 10
ENDMDL
MODEL 4
REMARK VINA RESULT:      -8.3      5.106     12.358
REMARK  10 active torsions:
REMARK  status: ('A' for Active; 'I' for Inactive)
REMARK    1  A    between atoms: C_4  and  C_5 
REMARK    2  A    between atoms: C_7  and  C_8 
REMARK    3  A    between atoms: C_8  and  C_9 
REMARK       I    between atoms: C_9  and  N_10 
REMARK    4  A    between atoms: N_10  and  C_11 
REMARK    5  A    between atoms: C_11  and  C_12 
REMARK    6  A    between atoms: C_12  and  N_13 
REMARK    7  A    between atoms: C_24  and  C_25 
REMARK    8  A    between atoms: C_25  and  O_26 
REMARK    9  A    between atoms: O_26  and  C_27 
REMARK   10  A    between atoms: C_27  and  C_28 
ROOT
HETATM    1  C   UNL     1       5.419  33.830  60.599  1.00  0.00     0.166 C 
HETATM    2  N   UNL     1       4.602  32.745  60.018  1.00  0.00    -0.318 N 
HETATM    3  C   UNL     1       4.535  32.114  58.892  1.00  0.00     0.011 C 
HETATM    4  C   UNL     1       3.470  32.296  60.976  1.00  0.00     0.170 C 
HETATM    5  S   UNL     1       2.840  30.753  60.512  1.00  0.00    -0.086 SA
HETATM    6  C   UNL     1       3.513  30.997  58.834  1.00  0.00     0.135 C 
HETATM    7  N   UNL     1       2.940  33.055  61.871  1.00  0.00    -0.229 NA
HETATM    8  C   UNL     1       3.313  34.389  61.845  1.00  0.00     0.048 C 
HETATM    9  C   UNL     1       2.289  35.311  62.466  1.00  0.00     0.071 C 
HETATM   10  C   UNL     1       4.426  34.805  61.200  1.00  0.00     0.069 C 
ENDROOT
BRANCH   3  11
HETATM   11  C   UNL     1       5.364  32.493  57.698  1.00  0.00     0.156 C 
BRANCH  11  12
HETATM   12  C   UNL     1       5.659  31.325  56.777  1.00  0.00     0.223 C 
HETATM   13  N   UNL     1       6.534  30.401  57.286  1.00  0.00    -0.359 N 
HETATM   14  H   UNL     1       6.994  30.625  58.165  1.00  0.00     0.162 HD
HETATM   15  O   UNL     1       5.149  31.239  55.663  1.00  0.00    -0.273 OA
BRANCH  13  16
HETATM   16  C   UNL     1       7.172  29.303  56.551  1.00  0.00     0.150 C 
BRANCH  16  17
HETATM   17  C   UNL     1       7.138  27.887  57.167  1.00  0.00     0.253 C 
BRANCH  17  18
HETATM   18  N   UNL     1       6.427  26.869  56.297  1.00  0.00    -0.077 N 
HETATM   19  H   UNL     1       7.091  26.629  55.535  1.00  0.00     0.279 HD
HETATM   20  C   UNL     1       6.068  25.591  57.003  1.00  0.00     0.269 C 
HETATM   21  C   UNL     1       5.216  27.466  55.632  1.00  0.00     0.269 C 
ENDBRANCH  17  18
ENDBRANCH  16  17
ENDBRANCH  13  16
ENDBRANCH  11  12
ENDBRANCH   3  11
BRANCH   1  22
HETATM   22  C   UNL     1       6.477  33.325  61.623  1.00  0.00    -0.024 A 
HETATM   23  C   UNL     1       6.303  33.676  62.991  1.00  0.00     0.017 A 
HETATM   24  C   UNL     1       7.182  33.276  64.008  1.00  0.00    -0.061 A 
HETATM   25  C   UNL     1       6.919  33.653  65.440  1.00  0.00     0.048 C 
HETATM   26  C   UNL     1       8.268  32.482  63.680  1.00  0.00     0.007 A 
HETATM   27  C   UNL     1       8.504  32.156  62.350  1.00  0.00     0.008 A 
HETATM   28  C   UNL     1       7.655  32.593  61.309  1.00  0.00    -0.053 A 
HETATM   29  C   UNL     1       8.121  32.221  59.929  1.00  0.00     0.049 C 
ENDBRANCH   1  22
BRANCH  10  30
HETATM   30  C   UNL     1       4.697  36.216  60.875  1.00  0.00     0.294 C 
HETATM   31  O   UNL     1       4.178  36.730  59.897  1.00  0.00    -0.259 OA
BRANCH  30  32
HETATM   32  O   UNL     1       5.588  36.751  61.727  1.00  0.00    -0.313 OA
BRANCH  32  33
HETATM   33  C   UNL     1       5.056  37.607  62.753  1.00  0.00     0.217 C 
BRANCH  33  34
HETATM   34  C   UNL     1       6.005  38.744  63.033  1.00  0.00    -0.034 A 
HETATM   35  C   UNL     1       6.820  39.269  62.020  1.00  0.00     0.009 A 
HETATM   36  C   UNL     1       7.675  40.342  62.279  1.00  0.00     0.001 A 
HETATM   37  C   UNL     1       7.715  40.911  63.550  1.00  0.00     0.000 A 
HETATM   38  C   UNL     1       6.905  40.404  64.563  1.00  0.00     0.001 A 
HETATM   39  C   UNL     1       6.056  39.325  64.309  1.00  0.00     0.009 A 
ENDBRANCH  33  34
ENDBRANCH  32  33
ENDBRANCH  30  32
ENDBRANCH  10  30
TORSDOF 10
ENDMDL
MODEL 5
REMARK VINA RESULT:      -8.2      4.810      7.383
REMARK  10 active torsions:
REMARK  status: ('A' for Active; 'I' for Inactive)
REMARK    1  A    between atoms: C_4  and  C_5 
REMARK    2  A    between atoms: C_7  and  C_8 
REMARK    3  A    between atoms: C_8  and  C_9 
REMARK       I    between atoms: C_9  and  N_10 
REMARK    4  A    between atoms: N_10  and  C_11 
REMARK    5  A    between atoms: C_11  and  C_12 
REMARK    6  A    between atoms: C_12  and  N_13 
REMARK    7  A    between atoms: C_24  and  C_25 
REMARK    8  A    between atoms: C_25  and  O_26 
REMARK    9  A    between atoms: O_26  and  C_27 
REMARK   10  A    between atoms: C_27  and  C_28 
ROOT
HETATM    1  C   UNL     1       4.363  30.002  48.950  1.00  0.00     0.166 C 
HETATM    2  N   UNL     1       3.247  30.452  49.807  1.00  0.00    -0.318 N 
HETATM    3  C   UNL     1       3.096  30.856  51.025  1.00  0.00     0.011 C 
HETATM    4  C   UNL     1       1.880  30.331  49.086  1.00  0.00     0.170 C 
HETATM    5  S   UNL     1       0.672  31.277  49.885  1.00  0.00    -0.086 SA
HETATM    6  C   UNL     1       1.687  31.272  51.400  1.00  0.00     0.135 C 
HETATM    7  N   UNL     1       1.634  29.489  48.143  1.00  0.00    -0.229 NA
HETATM    8  C   UNL     1       2.616  28.544  47.891  1.00  0.00     0.048 C 
HETATM    9  C   UNL     1       2.087  27.284  47.248  1.00  0.00     0.071 C 
HETATM   10  C   UNL     1       3.890  28.711  48.314  1.00  0.00     0.069 C 
ENDROOT
BRANCH   3  11
HETATM   11  C   UNL     1       4.216  30.859  52.024  1.00  0.00     0.156 C 
BRANCH  11  12
HETATM   12  C   UNL     1       4.230  29.632  52.915  1.00  0.00     0.223 C 
HETATM   13  N   UNL     1       5.031  29.739  54.023  1.00  0.00    -0.359 N 
HETATM   14  H   UNL     1       5.625  30.561  54.094  1.00  0.00     0.162 HD
HETATM   15  O   UNL     1       3.576  28.630  52.642  1.00  0.00    -0.273 OA
BRANCH  13  16
HETATM   16  C   UNL     1       5.416  28.653  54.932  1.00  0.00     0.150 C 
BRANCH  16  17
HETATM   17  C   UNL     1       4.497  28.336  56.131  1.00  0.00     0.253 C 
BRANCH  17  18
HETATM   18  N   UNL     1       4.994  28.914  57.441  1.00  0.00    -0.077 N 
HETATM   19  H   UNL     1       4.634  28.289  58.188  1.00  0.00     0.279 HD
HETATM   20  C   UNL     1       6.492  28.958  57.573  1.00  0.00     0.269 C 
HETATM   21  C   UNL     1       4.399  30.272  57.702  1.00  0.00     0.269 C 
ENDBRANCH  17  18
ENDBRANCH  16  17
ENDBRANCH  13  16
ENDBRANCH  11  12
ENDBRANCH   3  11
BRANCH   1  22
HETATM   22  C   UNL     1       4.811  31.070  47.909  1.00  0.00    -0.024 A 
HETATM   23  C   UNL     1       4.436  30.875  46.550  1.00  0.00     0.017 A 
HETATM   24  C   UNL     1       4.771  31.768  45.522  1.00  0.00    -0.061 A 
HETATM   25  C   UNL     1       4.311  31.519  44.112  1.00  0.00     0.048 C 
HETATM   26  C   UNL     1       5.486  32.912  45.835  1.00  0.00     0.007 A 
HETATM   27  C   UNL     1       5.916  33.117  47.140  1.00  0.00     0.008 A 
HETATM   28  C   UNL     1       5.629  32.201  48.177  1.00  0.00    -0.053 A 
HETATM   29  C   UNL     1       6.254  32.545  49.500  1.00  0.00     0.049 C 
ENDBRANCH   1  22
BRANCH  10  30
HETATM   30  C   UNL     1       4.881  27.622  48.353  1.00  0.00     0.294 C 
HETATM   31  O   UNL     1       5.243  27.087  47.317  1.00  0.00    -0.259 OA
BRANCH  30  32
HETATM   32  O   UNL     1       5.218  27.313  49.616  1.00  0.00    -0.313 OA
BRANCH  32  33
HETATM   33  C   UNL     1       4.600  26.139  50.172  1.00  0.00     0.217 C 
BRANCH  33  34
HETATM   34  C   UNL     1       5.354  25.676  51.392  1.00  0.00    -0.034 A 
HETATM   35  C   UNL     1       6.757  25.660  51.410  1.00  0.00     0.009 A 
HETATM   36  C   UNL     1       7.449  25.258  52.554  1.00  0.00     0.001 A 
HETATM   37  C   UNL     1       6.748  24.880  53.697  1.00  0.00     0.000 A 
HETATM   38  C   UNL     1       5.355  24.899  53.695  1.00  0.00     0.001 A 
HETATM   39  C   UNL     1       4.661  25.291  52.549  1.00  0.00     0.009 A 
ENDBRANCH  33  34
ENDBRANCH  32  33
ENDBRANCH  30  32
ENDBRANCH  10  30
TORSDOF 10
ENDMDL
MODEL 6
REMARK VINA RESULT:      -8.1      1.164      2.065
REMARK  10 active torsions:
REMARK  status: ('A' for Active; 'I' for Inactive)
REMARK    1  A    between atoms: C_4  and  C_5 
REMARK    2  A    between atoms: C_7  and  C_8 
REMARK    3  A    between atoms: C_8  and  C_9 
REMARK       I    between atoms: C_9  and  N_10 
REMARK    4  A    between atoms: N_10  and  C_11 
REMARK    5  A    between atoms: C_11  and  C_12 
REMARK    6  A    between atoms: C_12  and  N_13 
REMARK    7  A    between atoms: C_24  and  C_25 
REMARK    8  A    between atoms: C_25  and  O_26 
REMARK    9  A    between atoms: O_26  and  C_27 
REMARK   10  A    between atoms: C_27  and  C_28 
ROOT
HETATM    1  C   UNL     1       6.865  27.386  55.750  1.00  0.00     0.166 C 
HETATM    2  N   UNL     1       6.187  28.598  56.251  1.00  0.00    -0.318 N 
HETATM    3  C   UNL     1       6.532  29.786  56.627  1.00  0.00     0.011 C 
HETATM    4  C   UNL     1       4.669  28.367  56.465  1.00  0.00     0.170 C 
HETATM    5  S   UNL     1       3.822  29.870  56.586  1.00  0.00    -0.086 SA
HETATM    6  C   UNL     1       5.388  30.704  57.010  1.00  0.00     0.135 C 
HETATM    7  N   UNL     1       4.144  27.218  56.717  1.00  0.00    -0.229 NA
HETATM    8  C   UNL     1       5.027  26.178  56.961  1.00  0.00     0.048 C 
HETATM    9  C   UNL     1       4.432  25.068  57.794  1.00  0.00     0.071 C 
HETATM   10  C   UNL     1       6.326  26.245  56.591  1.00  0.00     0.069 C 
ENDROOT
BRANCH   3  11
HETATM   11  C   UNL     1       7.966  30.217  56.738  1.00  0.00     0.156 C 
BRANCH  11  12
HETATM   12  C   UNL     1       8.459  30.301  58.169  1.00  0.00     0.223 C 
HETATM   13  N   UNL     1       8.980  31.518  58.525  1.00  0.00    -0.359 N 
HETATM   14  H   UNL     1       9.099  32.210  57.788  1.00  0.00     0.162 HD
HETATM   15  O   UNL     1       8.395  29.339  58.930  1.00  0.00    -0.273 OA
BRANCH  13  16
HETATM   16  C   UNL     1       9.728  31.826  59.749  1.00  0.00     0.150 C 
BRANCH  16  17
HETATM   17  C   UNL     1       8.935  32.182  61.026  1.00  0.00     0.253 C 
BRANCH  17  18
HETATM   18  N   UNL     1       8.199  31.001  61.627  1.00  0.00    -0.077 N 
HETATM   19  H   UNL     1       7.825  30.457  60.825  1.00  0.00     0.279 HD
HETATM   20  C   UNL     1       9.065  30.075  62.436  1.00  0.00     0.269 C 
HETATM   21  C   UNL     1       7.006  31.449  62.429  1.00  0.00     0.269 C 
ENDBRANCH  17  18
ENDBRANCH  16  17
ENDBRANCH  13  16
ENDBRANCH  11  12
ENDBRANCH   3  11
BRANCH   1  22
HETATM   22  C   UNL     1       6.677  27.162  54.221  1.00  0.00    -0.024 A 
HETATM   23  C   UNL     1       7.301  26.026  53.632  1.00  0.00     0.017 A 
HETATM   24  C   UNL     1       7.201  25.711  52.269  1.00  0.00    -0.061 A 
HETATM   25  C   UNL     1       7.856  24.475  51.718  1.00  0.00     0.048 C 
HETATM   26  C   UNL     1       6.442  26.528  51.447  1.00  0.00     0.007 A 
HETATM   27  C   UNL     1       5.857  27.675  51.970  1.00  0.00     0.008 A 
HETATM   28  C   UNL     1       5.990  28.031  53.331  1.00  0.00    -0.053 A 
HETATM   29  C   UNL     1       5.367  29.350  53.692  1.00  0.00     0.049 C 
ENDBRANCH   1  22
BRANCH  10  30
HETATM   30  C   UNL     1       7.362  25.328  57.094  1.00  0.00     0.294 C 
HETATM   31  O   UNL     1       8.094  25.673  58.009  1.00  0.00    -0.259 OA
BRANCH  30  32
HETATM   32  O   UNL     1       7.395  24.190  56.381  1.00  0.00    -0.313 OA
BRANCH  32  33
HETATM   33  C   UNL     1       8.343  23.196  56.809  1.00  0.00     0.217 C 
BRANCH  33  34
HETATM   34  C   UNL     1       8.452  22.097  55.783  1.00  0.00    -0.034 A 
HETATM   35  C   UNL     1       8.415  22.385  54.411  1.00  0.00     0.009 A 
HETATM   36  C   UNL     1       8.546  21.366  53.466  1.00  0.00     0.001 A 
HETATM   37  C   UNL     1       8.730  20.049  53.881  1.00  0.00     0.000 A 
HETATM   38  C   UNL     1       8.776  19.749  55.241  1.00  0.00     0.001 A 
HETATM   39  C   UNL     1       8.635  20.766  56.188  1.00  0.00     0.009 A 
ENDBRANCH  33  34
ENDBRANCH  32  33
ENDBRANCH  30  32
ENDBRANCH  10  30
TORSDOF 10
ENDMDL
MODEL 7
REMARK VINA RESULT:      -7.8      7.667     12.755
REMARK  10 active torsions:
REMARK  status: ('A' for Active; 'I' for Inactive)
REMARK    1  A    between atoms: C_4  and  C_5 
REMARK    2  A    between atoms: C_7  and  C_8 
REMARK    3  A    between atoms: C_8  and  C_9 
REMARK       I    between atoms: C_9  and  N_10 
REMARK    4  A    between atoms: N_10  and  C_11 
REMARK    5  A    between atoms: C_11  and  C_12 
REMARK    6  A    between atoms: C_12  and  N_13 
REMARK    7  A    between atoms: C_24  and  C_25 
REMARK    8  A    between atoms: C_25  and  O_26 
REMARK    9  A    between atoms: O_26  and  C_27 
REMARK   10  A    between atoms: C_27  and  C_28 
ROOT
HETATM    1  C   UNL     1       5.443  33.948  60.584  1.00  0.00     0.166 C 
HETATM    2  N   UNL     1       4.659  32.868  59.951  1.00  0.00    -0.318 N 
HETATM    3  C   UNL     1       4.638  32.260  58.811  1.00  0.00     0.011 C 
HETATM    4  C   UNL     1       3.497  32.389  60.859  1.00  0.00     0.170 C 
HETATM    5  S   UNL     1       2.899  30.850  60.342  1.00  0.00    -0.086 SA
HETATM    6  C   UNL     1       3.629  31.135  58.694  1.00  0.00     0.135 C 
HETATM    7  N   UNL     1       2.928  33.125  61.750  1.00  0.00    -0.229 NA
HETATM    8  C   UNL     1       3.289  34.462  61.764  1.00  0.00     0.048 C 
HETATM    9  C   UNL     1       2.235  35.362  62.367  1.00  0.00     0.071 C 
HETATM   10  C   UNL     1       4.420  34.901  61.168  1.00  0.00     0.069 C 
ENDROOT
BRANCH   3  11
HETATM   11  C   UNL     1       5.505  32.670  57.657  1.00  0.00     0.156 C 
BRANCH  11  12
HETATM   12  C   UNL     1       4.811  33.608  56.688  1.00  0.00     0.223 C 
HETATM   13  N   UNL     1       4.221  34.699  57.271  1.00  0.00    -0.359 N 
HETATM   14  H   UNL     1       4.193  34.730  58.287  1.00  0.00     0.162 HD
HETATM   15  O   UNL     1       4.786  33.384  55.481  1.00  0.00    -0.273 OA
BRANCH  13  16
HETATM   16  C   UNL     1       3.300  35.644  56.628  1.00  0.00     0.150 C 
BRANCH  16  17
HETATM   17  C   UNL     1       1.872  35.165  56.289  1.00  0.00     0.253 C 
BRANCH  17  18
HETATM   18  N   UNL     1       1.766  34.496  54.933  1.00  0.00    -0.077 N 
HETATM   19  H   UNL     1       2.720  34.526  54.523  1.00  0.00     0.279 HD
HETATM   20  C   UNL     1       1.340  33.055  54.982  1.00  0.00     0.269 C 
HETATM   21  C   UNL     1       0.880  35.281  54.002  1.00  0.00     0.269 C 
ENDBRANCH  17  18
ENDBRANCH  16  17
ENDBRANCH  13  16
ENDBRANCH  11  12
ENDBRANCH   3  11
BRANCH   1  22
HETATM   22  C   UNL     1       6.469  33.431  61.634  1.00  0.00    -0.024 A 
HETATM   23  C   UNL     1       6.277  33.805  62.994  1.00  0.00     0.017 A 
HETATM   24  C   UNL     1       7.127  33.398  64.033  1.00  0.00    -0.061 A 
HETATM   25  C   UNL     1       6.846  33.800  65.454  1.00  0.00     0.048 C 
HETATM   26  C   UNL     1       8.200  32.573  63.737  1.00  0.00     0.007 A 
HETATM   27  C   UNL     1       8.454  32.225  62.416  1.00  0.00     0.008 A 
HETATM   28  C   UNL     1       7.635  32.668  61.353  1.00  0.00    -0.053 A 
HETATM   29  C   UNL     1       8.118  32.266  59.987  1.00  0.00     0.049 C 
ENDBRANCH   1  22
BRANCH  10  30
HETATM   30  C   UNL     1       4.689  36.321  60.882  1.00  0.00     0.294 C 
HETATM   31  O   UNL     1       4.311  36.816  59.832  1.00  0.00    -0.259 OA
BRANCH  30  32
HETATM   32  O   UNL     1       5.416  36.887  61.859  1.00  0.00    -0.313 OA
BRANCH  32  33
HETATM   33  C   UNL     1       6.270  37.977  61.470  1.00  0.00     0.217 C 
BRANCH  33  34
HETATM   34  C   UNL     1       6.514  38.898  62.637  1.00  0.00    -0.034 A 
HETATM   35  C   UNL     1       7.402  39.979  62.530  1.00  0.00     0.009 A 
HETATM   36  C   UNL     1       7.600  40.846  63.606  1.00  0.00     0.001 A 
HETATM   37  C   UNL     1       6.905  40.651  64.797  1.00  0.00     0.000 A 
HETATM   38  C   UNL     1       6.015  39.586  64.915  1.00  0.00     0.001 A 
HETATM   39  C   UNL     1       5.822  38.712  63.843  1.00  0.00     0.009 A 
ENDBRANCH  33  34
ENDBRANCH  32  33
ENDBRANCH  30  32
ENDBRANCH  10  30
TORSDOF 10
ENDMDL
MODEL 8
REMARK VINA RESULT:      -7.8      6.853      9.547
REMARK  10 active torsions:
REMARK  status: ('A' for Active; 'I' for Inactive)
REMARK    1  A    between atoms: C_4  and  C_5 
REMARK    2  A    between atoms: C_7  and  C_8 
REMARK    3  A    between atoms: C_8  and  C_9 
REMARK       I    between atoms: C_9  and  N_10 
REMARK    4  A    between atoms: N_10  and  C_11 
REMARK    5  A    between atoms: C_11  and  C_12 
REMARK    6  A    between atoms: C_12  and  N_13 
REMARK    7  A    between atoms: C_24  and  C_25 
REMARK    8  A    between atoms: C_25  and  O_26 
REMARK    9  A    between atoms: O_26  and  C_27 
REMARK   10  A    between atoms: C_27  and  C_28 
ROOT
HETATM    1  C   UNL     1       3.721  34.729  56.967  1.00  0.00     0.166 C 
HETATM    2  N   UNL     1       2.322  34.848  56.510  1.00  0.00    -0.318 N 
HETATM    3  C   UNL     1       1.260  35.487  56.878  1.00  0.00     0.011 C 
HETATM    4  C   UNL     1       2.016  33.893  55.328  1.00  0.00     0.170 C 
HETATM    5  S   UNL     1       0.567  34.364  54.509  1.00  0.00    -0.086 SA
HETATM    6  C   UNL     1       0.047  35.295  55.989  1.00  0.00     0.135 C 
HETATM    7  N   UNL     1       2.644  32.789  55.112  1.00  0.00    -0.229 NA
HETATM    8  C   UNL     1       3.528  32.382  56.097  1.00  0.00     0.048 C 
HETATM    9  C   UNL     1       3.776  30.892  56.104  1.00  0.00     0.071 C 
HETATM   10  C   UNL     1       4.001  33.241  57.029  1.00  0.00     0.069 C 
ENDROOT
BRANCH   3  11
HETATM   11  C   UNL     1       1.203  36.315  58.128  1.00  0.00     0.156 C 
BRANCH  11  12
HETATM   12  C   UNL     1       0.833  35.515  59.362  1.00  0.00     0.223 C 
HETATM   13  N   UNL     1       1.851  35.355  60.267  1.00  0.00    -0.359 N 
HETATM   14  H   UNL     1       2.777  35.673  59.991  1.00  0.00     0.162 HD
HETATM   15  O   UNL     1      -0.293  35.051  59.516  1.00  0.00    -0.273 OA
BRANCH  13  16
HETATM   16  C   UNL     1       1.858  34.455  61.426  1.00  0.00     0.150 C 
BRANCH  16  17
HETATM   17  C   UNL     1       2.533  34.937  62.728  1.00  0.00     0.253 C 
BRANCH  17  18
HETATM   18  N   UNL     1       3.193  33.821  63.514  1.00  0.00    -0.077 N 
HETATM   19  H   UNL     1       2.456  33.106  63.671  1.00  0.00     0.279 HD
HETATM   20  C   UNL     1       4.332  33.148  62.800  1.00  0.00     0.269 C 
HETATM   21  C   UNL     1       3.625  34.291  64.877  1.00  0.00     0.269 C 
ENDBRANCH  17  18
ENDBRANCH  16  17
ENDBRANCH  13  16
ENDBRANCH  11  12
ENDBRANCH   3  11
BRANCH   1  22
HETATM   22  C   UNL     1       4.730  35.505  56.071  1.00  0.00    -0.024 A 
HETATM   23  C   UNL     1       5.218  34.858  54.901  1.00  0.00     0.017 A 
HETATM   24  C   UNL     1       6.123  35.454  54.010  1.00  0.00    -0.061 A 
HETATM   25  C   UNL     1       6.571  34.727  52.773  1.00  0.00     0.048 C 
HETATM   26  C   UNL     1       6.557  36.745  54.261  1.00  0.00     0.007 A 
HETATM   27  C   UNL     1       6.145  37.396  55.417  1.00  0.00     0.008 A 
HETATM   28  C   UNL     1       5.272  36.789  56.349  1.00  0.00    -0.053 A 
HETATM   29  C   UNL     1       5.013  37.609  57.582  1.00  0.00     0.049 C 
ENDBRANCH   1  22
BRANCH  10  30
HETATM   30  C   UNL     1       4.678  32.807  58.263  1.00  0.00     0.294 C 
HETATM   31  O   UNL     1       4.030  32.599  59.277  1.00  0.00    -0.259 OA
BRANCH  30  32
HETATM   32  O   UNL     1       6.011  32.762  58.099  1.00  0.00    -0.313 OA
BRANCH  32  33
HETATM   33  C   UNL     1       6.641  31.491  58.335  1.00  0.00     0.217 C 
BRANCH  33  34
HETATM   34  C   UNL     1       7.476  31.542  59.588  1.00  0.00    -0.034 A 
HETATM   35  C   UNL     1       7.251  32.523  60.565  1.00  0.00     0.009 A 
HETATM   36  C   UNL     1       8.008  32.546  61.738  1.00  0.00     0.001 A 
HETATM   37  C   UNL     1       8.990  31.581  61.954  1.00  0.00     0.000 A 
HETATM   38  C   UNL     1       9.218  30.597  60.995  1.00  0.00     0.001 A 
HETATM   39  C   UNL     1       8.469  30.577  59.817  1.00  0.00     0.009 A 
ENDBRANCH  33  34
ENDBRANCH  32  33
ENDBRANCH  30  32
ENDBRANCH  10  30
TORSDOF 10
ENDMDL
MODEL 9
REMARK VINA RESULT:      -7.8      5.876     11.996
REMARK  10 active torsions:
REMARK  status: ('A' for Active; 'I' for Inactive)
REMARK    1  A    between atoms: C_4  and  C_5 
REMARK    2  A    between atoms: C_7  and  C_8 
REMARK    3  A    between atoms: C_8  and  C_9 
REMARK       I    between atoms: C_9  and  N_10 
REMARK    4  A    between atoms: N_10  and  C_11 
REMARK    5  A    between atoms: C_11  and  C_12 
REMARK    6  A    between atoms: C_12  and  N_13 
REMARK    7  A    between atoms: C_24  and  C_25 
REMARK    8  A    between atoms: C_25  and  O_26 
REMARK    9  A    between atoms: O_26  and  C_27 
REMARK   10  A    between atoms: C_27  and  C_28 
ROOT
HETATM    1  C   UNL     1       4.040  35.862  59.017  1.00  0.00     0.166 C 
HETATM    2  N   UNL     1       3.262  35.663  57.777  1.00  0.00    -0.318 N 
HETATM    3  C   UNL     1       3.500  35.291  56.563  1.00  0.00     0.011 C 
HETATM    4  C   UNL     1       1.782  36.093  57.947  1.00  0.00     0.170 C 
HETATM    5  S   UNL     1       0.795  35.432  56.690  1.00  0.00    -0.086 SA
HETATM    6  C   UNL     1       2.284  35.195  55.663  1.00  0.00     0.135 C 
HETATM    7  N   UNL     1       1.382  36.979  58.792  1.00  0.00    -0.229 NA
HETATM    8  C   UNL     1       2.371  37.683  59.460  1.00  0.00     0.048 C 
HETATM    9  C   UNL     1       1.915  39.036  59.954  1.00  0.00     0.071 C 
HETATM   10  C   UNL     1       3.644  37.233  59.527  1.00  0.00     0.069 C 
ENDROOT
BRANCH   3  11
HETATM   11  C   UNL     1       4.887  35.028  56.052  1.00  0.00     0.156 C 
BRANCH  11  12
HETATM   12  C   UNL     1       4.977  33.806  55.159  1.00  0.00     0.223 C 
HETATM   13  N   UNL     1       4.634  32.626  55.768  1.00  0.00    -0.359 N 
HETATM   14  H   UNL     1       4.467  32.648  56.771  1.00  0.00     0.162 HD
HETATM   15  O   UNL     1       5.338  33.887  53.989  1.00  0.00    -0.273 OA
BRANCH  13  16
HETATM   16  C   UNL     1       4.837  31.274  55.234  1.00  0.00     0.150 C 
BRANCH  16  17
HETATM   17  C   UNL     1       5.504  30.217  56.141  1.00  0.00     0.253 C 
BRANCH  17  18
HETATM   18  N   UNL     1       6.773  29.633  55.552  1.00  0.00    -0.077 N 
HETATM   19  H   UNL     1       7.084  30.300  54.819  1.00  0.00     0.279 HD
HETATM   20  C   UNL     1       7.901  29.480  56.534  1.00  0.00     0.269 C 
HETATM   21  C   UNL     1       6.501  28.329  54.849  1.00  0.00     0.269 C 
ENDBRANCH  17  18
ENDBRANCH  16  17
ENDBRANCH  13  16
ENDBRANCH  11  12
ENDBRANCH   3  11
BRANCH   1  22
HETATM   22  C   UNL     1       3.827  34.732  60.066  1.00  0.00    -0.024 A 
HETATM   23  C   UNL     1       2.939  34.986  61.149  1.00  0.00     0.017 A 
HETATM   24  C   UNL     1       2.657  34.048  62.153  1.00  0.00    -0.061 A 
HETATM   25  C   UNL     1       1.682  34.370  63.251  1.00  0.00     0.048 C 
HETATM   26  C   UNL     1       3.253  32.799  62.088  1.00  0.00     0.007 A 
HETATM   27  C   UNL     1       4.164  32.525  61.076  1.00  0.00     0.008 A 
HETATM   28  C   UNL     1       4.495  33.477  60.086  1.00  0.00    -0.053 A 
HETATM   29  C   UNL     1       5.566  33.034  59.130  1.00  0.00     0.049 C 
ENDBRANCH   1  22
BRANCH  10  30
HETATM   30  C   UNL     1       4.781  38.073  59.940  1.00  0.00     0.294 C 
HETATM   31  O   UNL     1       5.548  38.520  59.102  1.00  0.00    -0.259 OA
BRANCH  30  32
HETATM   32  O   UNL     1       4.850  38.179  61.277  1.00  0.00    -0.313 OA
BRANCH  32  33
HETATM   33  C   UNL     1       6.027  37.635  61.901  1.00  0.00     0.217 C 
BRANCH  33  34
HETATM   34  C   UNL     1       5.645  36.643  62.970  1.00  0.00    -0.034 A 
HETATM   35  C   UNL     1       6.163  35.339  62.962  1.00  0.00     0.009 A 
HETATM   36  C   UNL     1       5.830  34.435  63.972  1.00  0.00     0.001 A 
HETATM   37  C   UNL     1       4.985  34.828  65.008  1.00  0.00     0.000 A 
HETATM   38  C   UNL     1       4.470  36.121  65.033  1.00  0.00     0.001 A 
HETATM   39  C   UNL     1       4.795  37.024  64.018  1.00  0.00     0.009 A 
ENDBRANCH  33  34
ENDBRANCH  32  33
ENDBRANCH  30  32
ENDBRANCH  10  30
TORSDOF 10
ENDMDL
MODEL 10
REMARK VINA RESULT:      -7.7      7.228     10.206
REMARK  10 active torsions:
REMARK  status: ('A' for Active; 'I' for Inactive)
REMARK    1  A    between atoms: C_4  and  C_5 
REMARK    2  A    between atoms: C_7  and  C_8 
REMARK    3  A    between atoms: C_8  and  C_9 
REMARK       I    between atoms: C_9  and  N_10 
REMARK    4  A    between atoms: N_10  and  C_11 
REMARK    5  A    between atoms: C_11  and  C_12 
REMARK    6  A    between atoms: C_12  and  N_13 
REMARK    7  A    between atoms: C_24  and  C_25 
REMARK    8  A    between atoms: C_25  and  O_26 
REMARK    9  A    between atoms: O_26  and  C_27 
REMARK   10  A    between atoms: C_27  and  C_28 
ROOT
HETATM    1  C   UNL     1       4.041  29.845  47.814  1.00  0.00     0.166 C 
HETATM    2  N   UNL     1       3.511  31.077  47.196  1.00  0.00    -0.318 N 
HETATM    3  C   UNL     1       3.832  31.855  46.215  1.00  0.00     0.011 C 
HETATM    4  C   UNL     1       2.296  31.639  47.977  1.00  0.00     0.170 C 
HETATM    5  S   UNL     1       1.407  32.769  47.015  1.00  0.00    -0.086 SA
HETATM    6  C   UNL     1       2.875  33.001  45.956  1.00  0.00     0.135 C 
HETATM    7  N   UNL     1       2.092  31.442  49.234  1.00  0.00    -0.229 NA
HETATM    8  C   UNL     1       3.117  30.823  49.932  1.00  0.00     0.048 C 
HETATM    9  C   UNL     1       3.108  31.133  51.411  1.00  0.00     0.071 C 
HETATM   10  C   UNL     1       4.090  30.127  49.302  1.00  0.00     0.069 C 
ENDROOT
BRANCH   3  11
HETATM   11  C   UNL     1       5.094  31.681  45.421  1.00  0.00     0.156 C 
BRANCH  11  12
HETATM   12  C   UNL     1       5.918  32.949  45.316  1.00  0.00     0.223 C 
HETATM   13  N   UNL     1       6.255  33.308  44.036  1.00  0.00    -0.359 N 
HETATM   14  H   UNL     1       6.033  32.651  43.291  1.00  0.00     0.162 HD
HETATM   15  O   UNL     1       6.253  33.584  46.311  1.00  0.00    -0.273 OA
BRANCH  13  16
HETATM   16  C   UNL     1       7.219  34.342  43.642  1.00  0.00     0.150 C 
BRANCH  16  17
HETATM   17  C   UNL     1       6.702  35.776  43.400  1.00  0.00     0.253 C 
BRANCH  17  18
HETATM   18  N   UNL     1       7.085  36.749  44.498  1.00  0.00    -0.077 N 
HETATM   19  H   UNL     1       6.284  36.766  45.159  1.00  0.00     0.279 HD
HETATM   20  C   UNL     1       8.307  36.352  45.280  1.00  0.00     0.269 C 
HETATM   21  C   UNL     1       7.227  38.150  43.966  1.00  0.00     0.269 C 
ENDBRANCH  17  18
ENDBRANCH  16  17
ENDBRANCH  13  16
ENDBRANCH  11  12
ENDBRANCH   3  11
BRANCH   1  22
HETATM   22  C   UNL     1       3.217  28.573  47.458  1.00  0.00    -0.024 A 
HETATM   23  C   UNL     1       1.836  28.736  47.155  1.00  0.00     0.017 A 
HETATM   24  C   UNL     1       0.990  27.671  46.812  1.00  0.00    -0.061 A 
HETATM   25  C   UNL     1      -0.452  27.918  46.469  1.00  0.00     0.048 C 
HETATM   26  C   UNL     1       1.519  26.392  46.743  1.00  0.00     0.007 A 
HETATM   27  C   UNL     1       2.850  26.180  47.078  1.00  0.00     0.008 A 
HETATM   28  C   UNL     1       3.701  27.237  47.473  1.00  0.00    -0.053 A 
HETATM   29  C   UNL     1       5.080  26.802  47.887  1.00  0.00     0.049 C 
ENDBRANCH   1  22
BRANCH  10  30
HETATM   30  C   UNL     1       5.350  29.726  49.950  1.00  0.00     0.294 C 
HETATM   31  O   UNL     1       6.355  30.404  49.807  1.00  0.00    -0.259 OA
BRANCH  30  32
HETATM   32  O   UNL     1       5.216  28.556  50.596  1.00  0.00    -0.313 OA
BRANCH  32  33
HETATM   33  C   UNL     1       5.711  28.512  51.946  1.00  0.00     0.217 C 
BRANCH  33  34
HETATM   34  C   UNL     1       5.932  27.086  52.380  1.00  0.00    -0.034 A 
HETATM   35  C   UNL     1       7.010  26.744  53.211  1.00  0.00     0.009 A 
HETATM   36  C   UNL     1       7.192  25.426  53.633  1.00  0.00     0.001 A 
HETATM   37  C   UNL     1       6.293  24.437  53.241  1.00  0.00     0.000 A 
HETATM   38  C   UNL     1       5.215  24.763  52.421  1.00  0.00     0.001 A 
HETATM   39  C   UNL     1       5.036  26.080  51.990  1.00  0.00     0.009 A 
ENDBRANCH  33  34
ENDBRANCH  32  33
ENDBRANCH  30  32
ENDBRANCH  10  30
TORSDOF 10
ENDMDL
