MODEL 1
REMARK VINA RESULT:      -9.6      0.000      0.000
REMARK  4 active torsions:
REMARK  status: ('A' for Active; 'I' for Inactive)
REMARK    1  A    between atoms: C_7  and  C_8 
REMARK    2  A    between atoms: N_9  and  C_10 
REMARK    3  A    between atoms: C_10  and  C_11 
REMARK       I    between atoms: C_11  and  N_12 
REMARK    4  A    between atoms: N_12  and  C_13 
ROOT
HETATM    1  C   UNL     1       6.233  28.439  56.973  1.00  0.00     0.158 A 
HETATM    2  N   UNL     1       6.266  26.994  56.815  1.00  0.00    -0.326 N 
HETATM    3  C   UNL     1       5.462  26.558  55.784  1.00  0.00     0.255 A 
HETATM    4  O   UNL     1       5.176  25.412  55.496  1.00  0.00    -0.267 OA
HETATM    5  C   UNL     1       4.945  27.754  55.109  1.00  0.00     0.040 A 
HETATM    6  C   UNL     1       5.406  28.879  55.799  1.00  0.00    -0.015 A 
HETATM    7  C   UNL     1       4.151  27.838  53.981  1.00  0.00     0.017 A 
HETATM    8  C   UNL     1       3.807  29.114  53.534  1.00  0.00     0.001 A 
HETATM    9  C   UNL     1       4.252  30.259  54.223  1.00  0.00     0.001 A 
HETATM   10  C   UNL     1       5.052  30.147  55.365  1.00  0.00     0.011 A 
ENDROOT
BRANCH   1  11
HETATM   11  C   UNL     1       7.587  29.065  56.832  1.00  0.00     0.004 A 
HETATM   12  C   UNL     1       8.496  28.978  55.779  1.00  0.00     0.015 A 
HETATM   13  C   UNL     1       8.429  28.267  54.474  1.00  0.00     0.069 C 
HETATM   14  N   UNL     1       9.604  29.713  56.119  1.00  0.00    -0.359 N 
HETATM   15  H   UNL     1      10.427  29.824  55.543  1.00  0.00     0.166 HD
HETATM   16  C   UNL     1       9.449  30.285  57.357  1.00  0.00     0.043 A 
HETATM   17  C   UNL     1       8.199  29.901  57.832  1.00  0.00     0.001 A 
HETATM   18  C   UNL     1      10.322  31.106  58.083  1.00  0.00     0.030 A 
HETATM   19  C   UNL     1       7.798  30.365  59.104  1.00  0.00     0.014 A 
HETATM   20  C   UNL     1       8.656  31.188  59.844  1.00  0.00     0.001 A 
HETATM   21  C   UNL     1       9.901  31.551  59.338  1.00  0.00     0.002 A 
ENDBRANCH   1  11
BRANCH   2  22
HETATM   22  C   UNL     1       6.951  26.120  57.756  1.00  0.00     0.229 C 
BRANCH  22  23
HETATM   23  C   UNL     1       8.034  25.234  57.133  1.00  0.00     0.235 C 
HETATM   24  N   UNL     1       7.605  23.981  56.744  1.00  0.00    -0.355 N 
HETATM   25  H   UNL     1       6.598  23.852  56.730  1.00  0.00     0.162 HD
HETATM   26  O   UNL     1       9.154  25.676  56.891  1.00  0.00    -0.272 OA
BRANCH  24  27
HETATM   27  C   UNL     1       8.397  23.050  55.945  1.00  0.00     0.084 C 
HETATM   28  C   UNL     1       8.447  21.638  56.559  1.00  0.00     0.025 C 
HETATM   29  C   UNL     1       7.656  20.605  55.762  1.00  0.00     0.002 C 
HETATM   30  C   UNL     1       8.088  20.532  54.298  1.00  0.00     0.000 C 
HETATM   31  C   UNL     1       8.609  21.855  53.736  1.00  0.00     0.002 C 
HETATM   32  C   UNL     1       8.015  23.059  54.456  1.00  0.00     0.025 C 
ENDBRANCH  24  27
ENDBRANCH  22  23
ENDBRANCH   2  22
TORSDOF 4
ENDMDL
MODEL 2
REMARK VINA RESULT:      -9.1      3.097      7.191
REMARK  4 active torsions:
REMARK  status: ('A' for Active; 'I' for Inactive)
REMARK    1  A    between atoms: C_7  and  C_8 
REMARK    2  A    between atoms: N_9  and  C_10 
REMARK    3  A    between atoms: C_10  and  C_11 
REMARK       I    between atoms: C_11  and  N_12 
REMARK    4  A    between atoms: N_12  and  C_13 
ROOT
HETATM    1  C   UNL     1       6.281  25.123  55.289  1.00  0.00     0.158 A 
HETATM    2  N   UNL     1       5.351  25.854  54.444  1.00  0.00    -0.326 N 
HETATM    3  C   UNL     1       5.447  27.218  54.612  1.00  0.00     0.255 A 
HETATM    4  O   UNL     1       4.719  28.078  54.154  1.00  0.00    -0.267 OA
HETATM    5  C   UNL     1       6.579  27.460  55.514  1.00  0.00     0.040 A 
HETATM    6  C   UNL     1       7.090  26.222  55.915  1.00  0.00    -0.015 A 
HETATM    7  C   UNL     1       7.113  28.664  55.931  1.00  0.00     0.017 A 
HETATM    8  C   UNL     1       8.210  28.614  56.792  1.00  0.00     0.001 A 
HETATM    9  C   UNL     1       8.732  27.377  57.216  1.00  0.00     0.001 A 
HETATM   10  C   UNL     1       8.171  26.171  56.782  1.00  0.00     0.011 A 
ENDROOT
BRANCH   1  11
HETATM   11  C   UNL     1       7.221  24.262  54.502  1.00  0.00     0.004 A 
HETATM   12  C   UNL     1       7.917  24.555  53.330  1.00  0.00     0.015 A 
HETATM   13  C   UNL     1       7.972  25.785  52.496  1.00  0.00     0.069 C 
HETATM   14  N   UNL     1       8.641  23.441  52.982  1.00  0.00    -0.359 N 
HETATM   15  H   UNL     1       9.236  23.367  52.169  1.00  0.00     0.166 HD
HETATM   16  C   UNL     1       8.447  22.430  53.889  1.00  0.00     0.043 A 
HETATM   17  C   UNL     1       7.565  22.909  54.854  1.00  0.00     0.001 A 
HETATM   18  C   UNL     1       8.984  21.137  53.922  1.00  0.00     0.030 A 
HETATM   19  C   UNL     1       7.202  22.046  55.911  1.00  0.00     0.014 A 
HETATM   20  C   UNL     1       7.730  20.750  55.962  1.00  0.00     0.001 A 
HETATM   21  C   UNL     1       8.608  20.304  54.978  1.00  0.00     0.002 A 
ENDBRANCH   1  11
BRANCH   2  22
HETATM   22  C   UNL     1       4.333  25.188  53.643  1.00  0.00     0.229 C 
BRANCH  22  23
HETATM   23  C   UNL     1       4.606  25.187  52.136  1.00  0.00     0.235 C 
HETATM   24  N   UNL     1       4.537  26.426  51.534  1.00  0.00    -0.355 N 
HETATM   25  H   UNL     1       4.508  27.217  52.169  1.00  0.00     0.162 HD
HETATM   26  O   UNL     1       4.984  24.170  51.561  1.00  0.00    -0.272 OA
BRANCH  24  27
HETATM   27  C   UNL     1       4.960  26.702  50.163  1.00  0.00     0.084 C 
HETATM   28  C   UNL     1       3.975  26.148  49.117  1.00  0.00     0.025 C 
HETATM   29  C   UNL     1       3.196  27.238  48.385  1.00  0.00     0.002 C 
HETATM   30  C   UNL     1       4.107  28.270  47.721  1.00  0.00     0.000 C 
HETATM   31  C   UNL     1       5.436  28.484  48.446  1.00  0.00     0.002 C 
HETATM   32  C   UNL     1       5.336  28.175  49.934  1.00  0.00     0.025 C 
ENDBRANCH  24  27
ENDBRANCH  22  23
ENDBRANCH   2  22
TORSDOF 4
ENDMDL
MODEL 3
REMARK VINA RESULT:      -9.0      1.998      7.092
REMARK  4 active torsions:
REMARK  status: ('A' for Active; 'I' for Inactive)
REMARK    1  A    between atoms: C_7  and  C_8 
REMARK    2  A    between atoms: N_9  and  C_10 
REMARK    3  A    between atoms: C_10  and  C_11 
REMARK       I    between atoms: C_11  and  N_12 
REMARK    4  A    between atoms: N_12  and  C_13 
ROOT
HETATM    1  C   UNL     1       6.786  27.944  54.299  1.00  0.00     0.158 A 
HETATM    2  N   UNL     1       7.095  28.815  55.421  1.00  0.00    -0.326 N 
HETATM    3  C   UNL     1       6.167  29.823  55.576  1.00  0.00     0.255 A 
HETATM    4  O   UNL     1       6.222  30.777  56.328  1.00  0.00    -0.267 OA
HETATM    5  C   UNL     1       5.095  29.571  54.605  1.00  0.00     0.040 A 
HETATM    6  C   UNL     1       5.447  28.450  53.848  1.00  0.00    -0.015 A 
HETATM    7  C   UNL     1       3.914  30.264  54.419  1.00  0.00     0.017 A 
HETATM    8  C   UNL     1       3.053  29.804  53.423  1.00  0.00     0.001 A 
HETATM    9  C   UNL     1       3.394  28.682  52.643  1.00  0.00     0.001 A 
HETATM   10  C   UNL     1       4.598  28.001  52.848  1.00  0.00     0.011 A 
ENDROOT
BRANCH   1  11
HETATM   11  C   UNL     1       6.613  26.514  54.711  1.00  0.00     0.004 A 
HETATM   12  C   UNL     1       5.945  25.986  55.815  1.00  0.00     0.015 A 
HETATM   13  C   UNL     1       5.188  26.640  56.916  1.00  0.00     0.069 C 
HETATM   14  N   UNL     1       6.075  24.620  55.771  1.00  0.00    -0.359 N 
HETATM   15  H   UNL     1       5.692  23.978  56.451  1.00  0.00     0.166 HD
HETATM   16  C   UNL     1       6.803  24.234  54.673  1.00  0.00     0.043 A 
HETATM   17  C   UNL     1       7.155  25.393  53.988  1.00  0.00     0.001 A 
HETATM   18  C   UNL     1       7.171  22.952  54.245  1.00  0.00     0.030 A 
HETATM   19  C   UNL     1       7.917  25.262  52.806  1.00  0.00     0.014 A 
HETATM   20  C   UNL     1       8.293  23.989  52.361  1.00  0.00     0.001 A 
HETATM   21  C   UNL     1       7.925  22.851  53.074  1.00  0.00     0.002 A 
ENDBRANCH   1  11
BRANCH   2  22
HETATM   22  C   UNL     1       8.336  28.710  56.175  1.00  0.00     0.229 C 
BRANCH  22  23
HETATM   23  C   UNL     1       8.172  28.831  57.693  1.00  0.00     0.235 C 
HETATM   24  N   UNL     1       8.266  30.116  58.186  1.00  0.00    -0.355 N 
HETATM   25  H   UNL     1       8.236  30.853  57.487  1.00  0.00     0.162 HD
HETATM   26  O   UNL     1       7.853  27.862  58.376  1.00  0.00    -0.272 OA
BRANCH  24  27
HETATM   27  C   UNL     1       7.939  30.501  59.556  1.00  0.00     0.084 C 
HETATM   28  C   UNL     1       9.176  30.532  60.473  1.00  0.00     0.025 C 
HETATM   29  C   UNL     1       9.586  31.944  60.885  1.00  0.00     0.002 C 
HETATM   30  C   UNL     1       8.448  32.718  61.550  1.00  0.00     0.000 C 
HETATM   31  C   UNL     1       7.055  32.322  61.058  1.00  0.00     0.002 C 
HETATM   32  C   UNL     1       7.082  31.775  59.636  1.00  0.00     0.025 C 
ENDBRANCH  24  27
ENDBRANCH  22  23
ENDBRANCH   2  22
TORSDOF 4
ENDMDL
MODEL 4
REMARK VINA RESULT:      -9.0      2.089      3.027
REMARK  4 active torsions:
REMARK  status: ('A' for Active; 'I' for Inactive)
REMARK    1  A    between atoms: C_7  and  C_8 
REMARK    2  A    between atoms: N_9  and  C_10 
REMARK    3  A    between atoms: C_10  and  C_11 
REMARK       I    between atoms: C_11  and  N_12 
REMARK    4  A    between atoms: N_12  and  C_13 
ROOT
HETATM    1  C   UNL     1       4.712  27.831  54.161  1.00  0.00     0.158 A 
HETATM    2  N   UNL     1       5.182  26.462  54.018  1.00  0.00    -0.326 N 
HETATM    3  C   UNL     1       5.396  26.114  52.701  1.00  0.00     0.255 A 
HETATM    4  O   UNL     1       5.654  25.014  52.254  1.00  0.00    -0.267 OA
HETATM    5  C   UNL     1       5.194  27.328  51.900  1.00  0.00     0.040 A 
HETATM    6  C   UNL     1       4.799  28.357  52.758  1.00  0.00    -0.015 A 
HETATM    7  C   UNL     1       5.358  27.504  50.539  1.00  0.00     0.017 A 
HETATM    8  C   UNL     1       5.108  28.777  50.024  1.00  0.00     0.001 A 
HETATM    9  C   UNL     1       4.699  29.824  50.871  1.00  0.00     0.001 A 
HETATM   10  C   UNL     1       4.536  29.619  52.246  1.00  0.00     0.011 A 
ENDROOT
BRANCH   1  11
HETATM   11  C   UNL     1       5.620  28.665  55.013  1.00  0.00     0.004 A 
HETATM   12  C   UNL     1       7.008  28.790  54.967  1.00  0.00     0.015 A 
HETATM   13  C   UNL     1       8.026  28.170  54.077  1.00  0.00     0.069 C 
HETATM   14  N   UNL     1       7.384  29.661  55.960  1.00  0.00    -0.359 N 
HETATM   15  H   UNL     1       8.335  29.935  56.161  1.00  0.00     0.166 HD
HETATM   16  C   UNL     1       6.289  30.115  56.652  1.00  0.00     0.043 A 
HETATM   17  C   UNL     1       5.169  29.512  56.086  1.00  0.00     0.001 A 
HETATM   18  C   UNL     1       6.214  31.006  57.729  1.00  0.00     0.030 A 
HETATM   19  C   UNL     1       3.902  29.820  56.629  1.00  0.00     0.014 A 
HETATM   20  C   UNL     1       3.806  30.711  57.705  1.00  0.00     0.001 A 
HETATM   21  C   UNL     1       4.949  31.294  58.246  1.00  0.00     0.002 A 
ENDBRANCH   1  11
BRANCH   2  22
HETATM   22  C   UNL     1       5.251  25.537  55.139  1.00  0.00     0.229 C 
BRANCH  22  23
HETATM   23  C   UNL     1       6.588  24.804  55.281  1.00  0.00     0.235 C 
HETATM   24  N   UNL     1       6.628  23.554  54.698  1.00  0.00    -0.355 N 
HETATM   25  H   UNL     1       5.852  23.337  54.081  1.00  0.00     0.162 HD
HETATM   26  O   UNL     1       7.569  25.362  55.765  1.00  0.00    -0.272 OA
BRANCH  24  27
HETATM   27  C   UNL     1       7.844  22.764  54.523  1.00  0.00     0.084 C 
HETATM   28  C   UNL     1       8.255  22.019  55.808  1.00  0.00     0.025 C 
HETATM   29  C   UNL     1       8.061  20.508  55.717  1.00  0.00     0.002 C 
HETATM   30  C   UNL     1       8.788  19.890  54.523  1.00  0.00     0.000 C 
HETATM   31  C   UNL     1       8.918  20.827  53.321  1.00  0.00     0.002 C 
HETATM   32  C   UNL     1       7.804  21.864  53.278  1.00  0.00     0.025 C 
ENDBRANCH  24  27
ENDBRANCH  22  23
ENDBRANCH   2  22
TORSDOF 4
ENDMDL
MODEL 5
REMARK VINA RESULT:      -9.0      2.963      5.946
REMARK  4 active torsions:
REMARK  status: ('A' for Active; 'I' for Inactive)
REMARK    1  A    between atoms: C_7  and  C_8 
REMARK    2  A    between atoms: N_9  and  C_10 
REMARK    3  A    between atoms: C_10  and  C_11 
REMARK       I    between atoms: C_11  and  N_12 
REMARK    4  A    between atoms: N_12  and  C_13 
ROOT
HETATM    1  C   UNL     1       8.029  26.782  55.185  1.00  0.00     0.158 A 
HETATM    2  N   UNL     1       7.154  26.753  54.024  1.00  0.00    -0.326 N 
HETATM    3  C   UNL     1       6.749  25.475  53.702  1.00  0.00     0.255 A 
HETATM    4  O   UNL     1       6.135  25.115  52.717  1.00  0.00    -0.267 OA
HETATM    5  C   UNL     1       7.255  24.587  54.756  1.00  0.00     0.040 A 
HETATM    6  C   UNL     1       8.008  25.355  55.649  1.00  0.00    -0.015 A 
HETATM    7  C   UNL     1       7.056  23.229  54.914  1.00  0.00     0.017 A 
HETATM    8  C   UNL     1       7.646  22.621  56.022  1.00  0.00     0.001 A 
HETATM    9  C   UNL     1       8.417  23.375  56.928  1.00  0.00     0.001 A 
HETATM   10  C   UNL     1       8.607  24.749  56.743  1.00  0.00     0.011 A 
ENDROOT
BRANCH   1  11
HETATM   11  C   UNL     1       7.484  27.627  56.296  1.00  0.00     0.004 A 
HETATM   12  C   UNL     1       6.203  27.648  56.844  1.00  0.00     0.015 A 
HETATM   13  C   UNL     1       4.983  26.855  56.532  1.00  0.00     0.069 C 
HETATM   14  N   UNL     1       6.183  28.602  57.831  1.00  0.00    -0.359 N 
HETATM   15  H   UNL     1       5.379  28.837  58.396  1.00  0.00     0.166 HD
HETATM   16  C   UNL     1       7.411  29.204  57.952  1.00  0.00     0.043 A 
HETATM   17  C   UNL     1       8.249  28.618  57.007  1.00  0.00     0.001 A 
HETATM   18  C   UNL     1       7.833  30.217  58.822  1.00  0.00     0.030 A 
HETATM   19  C   UNL     1       9.584  29.071  56.930  1.00  0.00     0.014 A 
HETATM   20  C   UNL     1      10.025  30.081  57.793  1.00  0.00     0.001 A 
HETATM   21  C   UNL     1       9.158  30.646  58.725  1.00  0.00     0.002 A 
ENDBRANCH   1  11
BRANCH   2  22
HETATM   22  C   UNL     1       6.886  27.934  53.216  1.00  0.00     0.229 C 
BRANCH  22  23
HETATM   23  C   UNL     1       5.523  27.934  52.519  1.00  0.00     0.235 C 
HETATM   24  N   UNL     1       5.570  27.737  51.154  1.00  0.00    -0.355 N 
HETATM   25  H   UNL     1       6.464  27.422  50.791  1.00  0.00     0.162 HD
HETATM   26  O   UNL     1       4.479  27.977  53.165  1.00  0.00    -0.272 OA
BRANCH  24  27
HETATM   27  C   UNL     1       4.400  27.490  50.315  1.00  0.00     0.084 C 
HETATM   28  C   UNL     1       4.019  28.712  49.458  1.00  0.00     0.025 C 
HETATM   29  C   UNL     1       4.295  28.516  47.970  1.00  0.00     0.002 C 
HETATM   30  C   UNL     1       3.613  27.271  47.402  1.00  0.00     0.000 C 
HETATM   31  C   UNL     1       3.442  26.138  48.415  1.00  0.00     0.002 C 
HETATM   32  C   UNL     1       4.499  26.184  49.512  1.00  0.00     0.025 C 
ENDBRANCH  24  27
ENDBRANCH  22  23
ENDBRANCH   2  22
TORSDOF 4
ENDMDL
MODEL 6
REMARK VINA RESULT:      -8.8      1.444      2.152
REMARK  4 active torsions:
REMARK  status: ('A' for Active; 'I' for Inactive)
REMARK    1  A    between atoms: C_7  and  C_8 
REMARK    2  A    between atoms: N_9  and  C_10 
REMARK    3  A    between atoms: C_10  and  C_11 
REMARK       I    between atoms: C_11  and  N_12 
REMARK    4  A    between atoms: N_12  and  C_13 
ROOT
HETATM    1  C   UNL     1       6.509  29.396  57.717  1.00  0.00     0.158 A 
HETATM    2  N   UNL     1       6.577  28.200  56.893  1.00  0.00    -0.326 N 
HETATM    3  C   UNL     1       5.851  28.321  55.728  1.00  0.00     0.255 A 
HETATM    4  O   UNL     1       5.604  27.455  54.911  1.00  0.00    -0.267 OA
HETATM    5  C   UNL     1       5.361  29.704  55.671  1.00  0.00     0.040 A 
HETATM    6  C   UNL     1       5.756  30.355  56.842  1.00  0.00    -0.015 A 
HETATM    7  C   UNL     1       4.643  30.328  54.668  1.00  0.00     0.017 A 
HETATM    8  C   UNL     1       4.309  31.669  54.861  1.00  0.00     0.001 A 
HETATM    9  C   UNL     1       4.688  32.340  56.039  1.00  0.00     0.001 A 
HETATM   10  C   UNL     1       5.411  31.684  57.042  1.00  0.00     0.011 A 
ENDROOT
BRANCH   1  11
HETATM   11  C   UNL     1       7.860  29.990  57.982  1.00  0.00     0.004 A 
HETATM   12  C   UNL     1       9.006  29.967  57.190  1.00  0.00     0.015 A 
HETATM   13  C   UNL     1       9.269  29.376  55.850  1.00  0.00     0.069 C 
HETATM   14  N   UNL     1       9.997  30.636  57.866  1.00  0.00    -0.359 N 
HETATM   15  H   UNL     1      10.940  30.771  57.529  1.00  0.00     0.166 HD
HETATM   16  C   UNL     1       9.536  31.101  59.072  1.00  0.00     0.043 A 
HETATM   17  C   UNL     1       8.203  30.715  59.177  1.00  0.00     0.001 A 
HETATM   18  C   UNL     1      10.201  31.827  60.068  1.00  0.00     0.030 A 
HETATM   19  C   UNL     1       7.495  31.078  60.344  1.00  0.00     0.014 A 
HETATM   20  C   UNL     1       8.142  31.806  61.350  1.00  0.00     0.001 A 
HETATM   21  C   UNL     1       9.478  32.173  61.212  1.00  0.00     0.002 A 
ENDBRANCH   1  11
BRANCH   2  22
HETATM   22  C   UNL     1       7.212  26.971  57.348  1.00  0.00     0.229 C 
BRANCH  22  23
HETATM   23  C   UNL     1       6.596  25.688  56.784  1.00  0.00     0.235 C 
HETATM   24  N   UNL     1       7.298  25.116  55.743  1.00  0.00    -0.355 N 
HETATM   25  H   UNL     1       8.231  25.486  55.594  1.00  0.00     0.162 HD
HETATM   26  O   UNL     1       5.625  25.161  57.321  1.00  0.00    -0.272 OA
BRANCH  24  27
HETATM   27  C   UNL     1       7.022  23.793  55.190  1.00  0.00     0.084 C 
HETATM   28  C   UNL     1       6.763  23.828  53.673  1.00  0.00     0.025 C 
HETATM   29  C   UNL     1       7.887  23.201  52.853  1.00  0.00     0.002 C 
HETATM   30  C   UNL     1       8.196  21.765  53.277  1.00  0.00     0.000 C 
HETATM   31  C   UNL     1       7.932  21.482  54.757  1.00  0.00     0.002 C 
HETATM   32  C   UNL     1       8.056  22.737  55.612  1.00  0.00     0.025 C 
ENDBRANCH  24  27
ENDBRANCH  22  23
ENDBRANCH   2  22
TORSDOF 4
ENDMDL
MODEL 7
REMARK VINA RESULT:      -8.7      1.932      6.754
REMARK  4 active torsions:
REMARK  status: ('A' for Active; 'I' for Inactive)
REMARK    1  A    between atoms: C_7  and  C_8 
REMARK    2  A    between atoms: N_9  and  C_10 
REMARK    3  A    between atoms: C_10  and  C_11 
REMARK       I    between atoms: C_11  and  N_12 
REMARK    4  A    between atoms: N_12  and  C_13 
ROOT
HETATM    1  C   UNL     1       5.246  26.062  54.518  1.00  0.00     0.158 A 
HETATM    2  N   UNL     1       5.564  26.262  55.923  1.00  0.00    -0.326 N 
HETATM    3  C   UNL     1       6.499  25.361  56.386  1.00  0.00     0.255 A 
HETATM    4  O   UNL     1       6.862  25.188  57.533  1.00  0.00    -0.267 OA
HETATM    5  C   UNL     1       6.951  24.581  55.227  1.00  0.00     0.040 A 
HETATM    6  C   UNL     1       6.222  24.997  54.109  1.00  0.00    -0.015 A 
HETATM    7  C   UNL     1       7.926  23.603  55.168  1.00  0.00     0.017 A 
HETATM    8  C   UNL     1       8.172  23.020  53.925  1.00  0.00     0.001 A 
HETATM    9  C   UNL     1       7.441  23.417  52.789  1.00  0.00     0.001 A 
HETATM   10  C   UNL     1       6.455  24.407  52.876  1.00  0.00     0.011 A 
ENDROOT
BRANCH   1  11
HETATM   11  C   UNL     1       5.527  27.276  53.685  1.00  0.00     0.004 A 
HETATM   12  C   UNL     1       6.729  27.953  53.486  1.00  0.00     0.015 A 
HETATM   13  C   UNL     1       8.101  27.702  54.005  1.00  0.00     0.069 C 
HETATM   14  N   UNL     1       6.480  29.014  52.651  1.00  0.00    -0.359 N 
HETATM   15  H   UNL     1       7.171  29.682  52.339  1.00  0.00     0.166 HD
HETATM   16  C   UNL     1       5.156  29.052  52.292  1.00  0.00     0.043 A 
HETATM   17  C   UNL     1       4.530  27.979  52.920  1.00  0.00     0.001 A 
HETATM   18  C   UNL     1       4.476  29.953  51.464  1.00  0.00     0.030 A 
HETATM   19  C   UNL     1       3.146  27.797  52.707  1.00  0.00     0.014 A 
HETATM   20  C   UNL     1       2.449  28.687  51.881  1.00  0.00     0.001 A 
HETATM   21  C   UNL     1       3.107  29.751  51.270  1.00  0.00     0.002 A 
ENDBRANCH   1  11
BRANCH   2  22
HETATM   22  C   UNL     1       4.841  27.208  56.761  1.00  0.00     0.229 C 
BRANCH  22  23
HETATM   23  C   UNL     1       5.503  28.584  56.888  1.00  0.00     0.235 C 
HETATM   24  N   UNL     1       6.753  28.575  57.471  1.00  0.00    -0.355 N 
HETATM   25  H   UNL     1       7.178  27.658  57.572  1.00  0.00     0.162 HD
HETATM   26  O   UNL     1       4.993  29.581  56.383  1.00  0.00    -0.272 OA
BRANCH  24  27
HETATM   27  C   UNL     1       7.655  29.723  57.506  1.00  0.00     0.084 C 
HETATM   28  C   UNL     1       7.313  30.708  58.640  1.00  0.00     0.025 C 
HETATM   29  C   UNL     1       8.343  30.712  59.767  1.00  0.00     0.002 C 
HETATM   30  C   UNL     1       9.761  30.990  59.269  1.00  0.00     0.000 C 
HETATM   31  C   UNL     1      10.028  30.502  57.845  1.00  0.00     0.002 C 
HETATM   32  C   UNL     1       9.139  29.324  57.465  1.00  0.00     0.025 C 
ENDBRANCH  24  27
ENDBRANCH  22  23
ENDBRANCH   2  22
TORSDOF 4
ENDMDL
MODEL 8
REMARK VINA RESULT:      -8.7      9.118     13.125
REMARK  4 active torsions:
REMARK  status: ('A' for Active; 'I' for Inactive)
REMARK    1  A    between atoms: C_7  and  C_8 
REMARK    2  A    between atoms: N_9  and  C_10 
REMARK    3  A    between atoms: C_10  and  C_11 
REMARK       I    between atoms: C_11  and  N_12 
REMARK    4  A    between atoms: N_12  and  C_13 
ROOT
HETATM    1  C   UNL     1       4.419  33.722  63.579  1.00  0.00     0.158 A 
HETATM    2  N   UNL     1       4.920  33.952  64.924  1.00  0.00    -0.326 N 
HETATM    3  C   UNL     1       6.237  33.571  65.068  1.00  0.00     0.255 A 
HETATM    4  O   UNL     1       6.887  33.512  66.093  1.00  0.00    -0.267 OA
HETATM    5  C   UNL     1       6.717  33.179  63.737  1.00  0.00     0.040 A 
HETATM    6  C   UNL     1       5.648  33.276  62.841  1.00  0.00    -0.015 A 
HETATM    7  C   UNL     1       7.985  32.786  63.354  1.00  0.00     0.017 A 
HETATM    8  C   UNL     1       8.180  32.475  62.008  1.00  0.00     0.001 A 
HETATM    9  C   UNL     1       7.113  32.556  61.093  1.00  0.00     0.001 A 
HETATM   10  C   UNL     1       5.837  32.952  61.506  1.00  0.00     0.011 A 
ENDROOT
BRANCH   1  11
HETATM   11  C   UNL     1       3.930  34.978  62.923  1.00  0.00     0.004 A 
HETATM   12  C   UNL     1       2.768  35.195  62.185  1.00  0.00     0.015 A 
HETATM   13  C   UNL     1       1.647  34.287  61.818  1.00  0.00     0.069 C 
HETATM   14  N   UNL     1       2.767  36.506  61.779  1.00  0.00    -0.359 N 
HETATM   15  H   UNL     1       2.045  36.941  61.222  1.00  0.00     0.166 HD
HETATM   16  C   UNL     1       3.887  37.158  62.232  1.00  0.00     0.043 A 
HETATM   17  C   UNL     1       4.636  36.232  62.952  1.00  0.00     0.001 A 
HETATM   18  C   UNL     1       4.285  38.489  62.054  1.00  0.00     0.030 A 
HETATM   19  C   UNL     1       5.852  36.662  63.527  1.00  0.00     0.014 A 
HETATM   20  C   UNL     1       6.266  37.990  63.362  1.00  0.00     0.001 A 
HETATM   21  C   UNL     1       5.491  38.888  62.633  1.00  0.00     0.002 A 
ENDBRANCH   1  11
BRANCH   2  22
HETATM   22  C   UNL     1       4.060  34.383  66.016  1.00  0.00     0.229 C 
BRANCH  22  23
HETATM   23  C   UNL     1       4.768  35.196  67.104  1.00  0.00     0.235 C 
HETATM   24  N   UNL     1       5.158  34.469  68.209  1.00  0.00    -0.355 N 
HETATM   25  H   UNL     1       5.114  33.460  68.104  1.00  0.00     0.162 HD
HETATM   26  O   UNL     1       5.068  36.373  66.922  1.00  0.00    -0.272 OA
BRANCH  24  27
HETATM   27  C   UNL     1       6.026  34.979  69.268  1.00  0.00     0.084 C 
HETATM   28  C   UNL     1       5.714  34.353  70.640  1.00  0.00     0.025 C 
HETATM   29  C   UNL     1       6.800  33.399  71.129  1.00  0.00     0.002 C 
HETATM   30  C   UNL     1       8.181  34.052  71.176  1.00  0.00     0.000 C 
HETATM   31  C   UNL     1       8.388  35.147  70.129  1.00  0.00     0.002 C 
HETATM   32  C   UNL     1       7.517  34.936  68.898  1.00  0.00     0.025 C 
ENDBRANCH  24  27
ENDBRANCH  22  23
ENDBRANCH   2  22
TORSDOF 4
ENDMDL
MODEL 9
REMARK VINA RESULT:      -8.5      4.800      8.114
REMARK  4 active torsions:
REMARK  status: ('A' for Active; 'I' for Inactive)
REMARK    1  A    between atoms: C_7  and  C_8 
REMARK    2  A    between atoms: N_9  and  C_10 
REMARK    3  A    between atoms: C_10  and  C_11 
REMARK       I    between atoms: C_11  and  N_12 
REMARK    4  A    between atoms: N_12  and  C_13 
ROOT
HETATM    1  C   UNL     1       4.430  29.361  50.766  1.00  0.00     0.158 A 
HETATM    2  N   UNL     1       3.999  29.673  52.119  1.00  0.00    -0.326 N 
HETATM    3  C   UNL     1       4.270  30.978  52.470  1.00  0.00     0.255 A 
HETATM    4  O   UNL     1       4.155  31.493  53.565  1.00  0.00    -0.267 OA
HETATM    5  C   UNL     1       4.794  31.644  51.272  1.00  0.00     0.040 A 
HETATM    6  C   UNL     1       4.883  30.696  50.249  1.00  0.00    -0.015 A 
HETATM    7  C   UNL     1       5.147  32.970  51.102  1.00  0.00     0.017 A 
HETATM    8  C   UNL     1       5.612  33.351  49.843  1.00  0.00     0.001 A 
HETATM    9  C   UNL     1       5.719  32.408  48.802  1.00  0.00     0.001 A 
HETATM   10  C   UNL     1       5.359  31.071  49.002  1.00  0.00     0.011 A 
ENDROOT
BRANCH   1  11
HETATM   11  C   UNL     1       3.302  28.898  49.894  1.00  0.00     0.004 A 
HETATM   12  C   UNL     1       2.037  29.454  49.715  1.00  0.00     0.015 A 
HETATM   13  C   UNL     1       1.400  30.665  50.299  1.00  0.00     0.069 C 
HETATM   14  N   UNL     1       1.352  28.663  48.827  1.00  0.00    -0.359 N 
HETATM   15  H   UNL     1       0.405  28.826  48.515  1.00  0.00     0.166 HD
HETATM   16  C   UNL     1       2.128  27.609  48.413  1.00  0.00     0.043 A 
HETATM   17  C   UNL     1       3.355  27.725  49.060  1.00  0.00     0.001 A 
HETATM   18  C   UNL     1       1.832  26.572  47.520  1.00  0.00     0.030 A 
HETATM   19  C   UNL     1       4.341  26.749  48.799  1.00  0.00     0.014 A 
HETATM   20  C   UNL     1       4.064  25.704  47.908  1.00  0.00     0.001 A 
HETATM   21  C   UNL     1       2.824  25.619  47.280  1.00  0.00     0.002 A 
ENDBRANCH   1  11
BRANCH   2  22
HETATM   22  C   UNL     1       3.491  28.659  53.031  1.00  0.00     0.229 C 
BRANCH  22  23
HETATM   23  C   UNL     1       4.481  27.535  53.351  1.00  0.00     0.235 C 
HETATM   24  N   UNL     1       4.108  26.287  52.894  1.00  0.00    -0.355 N 
HETATM   25  H   UNL     1       3.333  26.278  52.238  1.00  0.00     0.162 HD
HETATM   26  O   UNL     1       5.572  27.776  53.859  1.00  0.00    -0.272 OA
BRANCH  24  27
HETATM   27  C   UNL     1       4.978  25.114  52.895  1.00  0.00     0.084 C 
HETATM   28  C   UNL     1       5.989  25.127  51.733  1.00  0.00     0.025 C 
HETATM   29  C   UNL     1       7.427  25.365  52.186  1.00  0.00     0.002 C 
HETATM   30  C   UNL     1       7.887  24.358  53.241  1.00  0.00     0.000 C 
HETATM   31  C   UNL     1       6.762  23.841  54.139  1.00  0.00     0.002 C 
HETATM   32  C   UNL     1       5.620  24.841  54.264  1.00  0.00     0.025 C 
ENDBRANCH  24  27
ENDBRANCH  22  23
ENDBRANCH   2  22
TORSDOF 4
ENDMDL
MODEL 10
REMARK VINA RESULT:      -8.1      1.659      2.513
REMARK  4 active torsions:
REMARK  status: ('A' for Active; 'I' for Inactive)
REMARK    1  A    between atoms: C_7  and  C_8 
REMARK    2  A    between atoms: N_9  and  C_10 
REMARK    3  A    between atoms: C_10  and  C_11 
REMARK       I    between atoms: C_11  and  N_12 
REMARK    4  A    between atoms: N_12  and  C_13 
ROOT
HETATM    1  C   UNL     1       5.793  28.104  55.805  1.00  0.00     0.158 A 
HETATM    2  N   UNL     1       6.822  27.203  55.312  1.00  0.00    -0.326 N 
HETATM    3  C   UNL     1       6.936  27.236  53.938  1.00  0.00     0.255 A 
HETATM    4  O   UNL     1       7.602  26.507  53.229  1.00  0.00    -0.267 OA
HETATM    5  C   UNL     1       6.043  28.298  53.460  1.00  0.00     0.040 A 
HETATM    6  C   UNL     1       5.367  28.829  54.562  1.00  0.00    -0.015 A 
HETATM    7  C   UNL     1       5.857  28.758  52.170  1.00  0.00     0.017 A 
HETATM    8  C   UNL     1       4.946  29.799  51.988  1.00  0.00     0.001 A 
HETATM    9  C   UNL     1       4.247  30.340  53.084  1.00  0.00     0.001 A 
HETATM   10  C   UNL     1       4.450  29.853  54.380  1.00  0.00     0.011 A 
ENDROOT
BRANCH   1  11
HETATM   11  C   UNL     1       6.332  29.124  56.761  1.00  0.00     0.004 A 
HETATM   12  C   UNL     1       5.650  29.929  57.672  1.00  0.00     0.015 A 
HETATM   13  C   UNL     1       4.204  30.037  58.005  1.00  0.00     0.069 C 
HETATM   14  N   UNL     1       6.576  30.714  58.314  1.00  0.00    -0.359 N 
HETATM   15  H   UNL     1       6.363  31.399  59.026  1.00  0.00     0.166 HD
HETATM   16  C   UNL     1       7.843  30.447  57.859  1.00  0.00     0.043 A 
HETATM   17  C   UNL     1       7.727  29.457  56.887  1.00  0.00     0.001 A 
HETATM   18  C   UNL     1       9.069  31.008  58.234  1.00  0.00     0.030 A 
HETATM   19  C   UNL     1       8.906  29.002  56.257  1.00  0.00     0.014 A 
HETATM   20  C   UNL     1      10.143  29.550  56.620  1.00  0.00     0.001 A 
HETATM   21  C   UNL     1      10.220  30.540  57.595  1.00  0.00     0.002 A 
ENDBRANCH   1  11
BRANCH   2  22
HETATM   22  C   UNL     1       7.521  26.264  56.178  1.00  0.00     0.229 C 
BRANCH  22  23
HETATM   23  C   UNL     1       6.983  24.831  56.132  1.00  0.00     0.235 C 
HETATM   24  N   UNL     1       7.648  23.989  55.265  1.00  0.00    -0.355 N 
HETATM   25  H   UNL     1       8.529  24.345  54.904  1.00  0.00     0.162 HD
HETATM   26  O   UNL     1       6.112  24.456  56.912  1.00  0.00    -0.272 OA
BRANCH  24  27
HETATM   27  C   UNL     1       7.453  22.543  55.207  1.00  0.00     0.084 C 
HETATM   28  C   UNL     1       7.584  21.986  53.776  1.00  0.00     0.025 C 
HETATM   29  C   UNL     1       8.844  21.152  53.566  1.00  0.00     0.002 C 
HETATM   30  C   UNL     1       8.964  20.002  54.566  1.00  0.00     0.000 C 
HETATM   31  C   UNL     1       8.325  20.290  55.925  1.00  0.00     0.002 C 
HETATM   32  C   UNL     1       8.294  21.779  56.242  1.00  0.00     0.025 C 
ENDBRANCH  24  27
ENDBRANCH  22  23
ENDBRANCH   2  22
TORSDOF 4
ENDMDL
