MODEL 1
REMARK VINA RESULT:     -10.3      0.000      0.000
REMARK  10 active torsions:
REMARK  status: ('A' for Active; 'I' for Inactive)
REMARK    1  A    between atoms: C_4  and  C_5 
REMARK    2  A    between atoms: C_8  and  N_9 
REMARK    3  A    between atoms: C_15  and  C_16 
REMARK    4  A    between atoms: C_19  and  C_20 
REMARK    5  A    between atoms: C_20  and  N_21 
REMARK    6  A    between atoms: N_21  and  C_22 
REMARK    7  A    between atoms: C_22  and  N_23 
REMARK    8  A    between atoms: N_23  and  C_24 
REMARK    9  A    between atoms: C_26  and  C_27 
REMARK   10  A    between atoms: C_27  and  O_28 
ROOT
HETATM    1  C   UNL     1       4.223  28.962  56.085  1.00  0.00     0.067 C 
HETATM    2  C   UNL     1       4.421  30.437  55.693  1.00  0.00     0.001 C 
HETATM    3  C   UNL     1       5.832  30.937  56.065  1.00  0.00     0.040 C 
HETATM    4  C   UNL     1       6.066  30.914  57.583  1.00  0.00     0.206 C 
HETATM    5  N   UNL     1       4.925  30.109  58.193  1.00  0.00    -0.065 N 
HETATM    6  H   UNL     1       5.112  29.954  59.194  1.00  0.00     0.280 HD
HETATM    7  C   UNL     1       4.765  28.745  57.518  1.00  0.00     0.246 C 
HETATM    8  C   UNL     1       3.437  31.254  56.573  1.00  0.00     0.033 C 
HETATM    9  C   UNL     1       3.631  30.904  58.058  1.00  0.00     0.236 C 
ENDROOT
BRANCH   4  10
HETATM   10  C   UNL     1       7.462  30.389  57.988  1.00  0.00     0.155 C 
BRANCH  10  11
HETATM   11  N   UNL     1       7.567  30.157  59.426  1.00  0.00    -0.365 N 
HETATM   12  H   UNL     1       7.696  29.199  59.740  1.00  0.00     0.161 HD
BRANCH  11  13
HETATM   13  C   UNL     1       8.012  31.058  60.359  1.00  0.00     0.172 C 
HETATM   14  S   UNL     1       9.074  32.305  60.055  1.00  0.00    -0.041 SA
BRANCH  13  15
HETATM   15  N   UNL     1       7.576  30.860  61.643  1.00  0.00    -0.333 N 
HETATM   16  H   UNL     1       7.694  29.903  61.970  1.00  0.00     0.168 HD
BRANCH  15  17
HETATM   17  C   UNL     1       7.129  31.786  62.610  1.00  0.00     0.035 A 
HETATM   18  C   UNL     1       5.792  32.173  62.737  1.00  0.00     0.047 A 
HETATM   19  C   UNL     1       5.392  33.091  63.720  1.00  0.00     0.041 A 
HETATM   20  C   UNL     1       6.352  33.652  64.567  1.00  0.00     0.018 A 
HETATM   21  C   UNL     1       7.697  33.306  64.415  1.00  0.00     0.003 A 
HETATM   22  C   UNL     1       8.082  32.384  63.437  1.00  0.00     0.029 A 
BRANCH  19  23
HETATM   23  C   UNL     1       3.942  33.414  63.809  1.00  0.00     0.293 C 
HETATM   24  O   UNL     1       3.448  33.993  64.766  1.00  0.00    -0.259 OA
BRANCH  23  25
HETATM   25  O   UNL     1       3.295  33.036  62.683  1.00  0.00    -0.323 OA
HETATM   26  C   UNL     1       2.555  34.082  62.048  1.00  0.00     0.213 C 
ENDBRANCH  23  25
ENDBRANCH  19  23
ENDBRANCH  15  17
ENDBRANCH  13  15
ENDBRANCH  11  13
ENDBRANCH  10  11
ENDBRANCH   4  10
BRANCH   1  27
HETATM   27  C   UNL     1       4.631  27.842  55.170  1.00  0.00     0.038 C 
HETATM   28  N   UNL     1       4.451  27.643  53.819  1.00  0.00    -0.277 N 
HETATM   29  C   UNL     1       3.653  28.351  52.846  1.00  0.00     0.179 C 
HETATM   30  N   UNL     1       5.173  26.612  53.341  1.00  0.00    -0.172 NA
HETATM   31  C   UNL     1       5.682  25.996  54.413  1.00  0.00     0.089 C 
HETATM   32  C   UNL     1       5.352  26.725  55.576  1.00  0.00     0.061 C 
BRANCH  31  33
HETATM   33  C   UNL     1       6.505  24.794  54.319  1.00  0.00    -0.005 A 
HETATM   34  C   UNL     1       6.852  24.074  55.463  1.00  0.00     0.016 A 
HETATM   35  C   UNL     1       7.572  22.872  55.363  1.00  0.00     0.030 A 
HETATM   36  C   UNL     1       7.994  22.352  54.127  1.00  0.00     0.029 A 
HETATM   37  C   UNL     1       7.652  23.109  52.993  1.00  0.00     0.030 A 
HETATM   38  C   UNL     1       6.924  24.305  53.080  1.00  0.00     0.016 A 
BRANCH  36  39
HETATM   39  N   UNL     1       8.665  21.132  54.011  1.00  0.00    -0.390 N 
HETATM   40  C   UNL     1       8.475  20.315  52.814  1.00  0.00     0.149 C 
HETATM   41  C   UNL     1       8.946  20.387  55.239  1.00  0.00     0.149 C 
ENDBRANCH  36  39
ENDBRANCH  31  33
ENDBRANCH   1  27
TORSDOF 10
ENDMDL
MODEL 2
REMARK VINA RESULT:      -9.6      2.894      4.006
REMARK  10 active torsions:
REMARK  status: ('A' for Active; 'I' for Inactive)
REMARK    1  A    between atoms: C_4  and  C_5 
REMARK    2  A    between atoms: C_8  and  N_9 
REMARK    3  A    between atoms: C_15  and  C_16 
REMARK    4  A    between atoms: C_19  and  C_20 
REMARK    5  A    between atoms: C_20  and  N_21 
REMARK    6  A    between atoms: N_21  and  C_22 
REMARK    7  A    between atoms: C_22  and  N_23 
REMARK    8  A    between atoms: N_23  and  C_24 
REMARK    9  A    between atoms: C_26  and  C_27 
REMARK   10  A    between atoms: C_27  and  O_28 
ROOT
HETATM    1  C   UNL     1       4.623  29.494  55.301  1.00  0.00     0.067 C 
HETATM    2  C   UNL     1       5.111  30.934  55.056  1.00  0.00     0.001 C 
HETATM    3  C   UNL     1       5.223  31.725  56.375  1.00  0.00     0.040 C 
HETATM    4  C   UNL     1       3.858  31.900  57.056  1.00  0.00     0.206 C 
HETATM    5  N   UNL     1       2.889  30.960  56.349  1.00  0.00    -0.065 N 
HETATM    6  H   UNL     1       1.993  30.946  56.857  1.00  0.00     0.280 HD
HETATM    7  C   UNL     1       3.428  29.529  56.284  1.00  0.00     0.246 C 
HETATM    8  C   UNL     1       3.996  31.634  54.234  1.00  0.00     0.033 C 
HETATM    9  C   UNL     1       2.637  31.479  54.937  1.00  0.00     0.236 C 
ENDROOT
BRANCH   4  10
HETATM   10  C   UNL     1       3.896  31.692  58.586  1.00  0.00     0.155 C 
BRANCH  10  11
HETATM   11  N   UNL     1       4.081  32.949  59.308  1.00  0.00    -0.365 N 
HETATM   12  H   UNL     1       3.472  33.726  59.065  1.00  0.00     0.161 HD
BRANCH  11  13
HETATM   13  C   UNL     1       4.592  33.085  60.573  1.00  0.00     0.172 C 
HETATM   14  S   UNL     1       4.366  34.410  61.559  1.00  0.00    -0.041 SA
BRANCH  13  15
HETATM   15  N   UNL     1       5.391  32.063  61.013  1.00  0.00    -0.333 N 
HETATM   16  H   UNL     1       4.880  31.206  61.216  1.00  0.00     0.168 HD
BRANCH  15  17
HETATM   17  C   UNL     1       6.797  31.969  61.092  1.00  0.00     0.035 A 
HETATM   18  C   UNL     1       7.610  31.736  59.981  1.00  0.00     0.047 A 
HETATM   19  C   UNL     1       9.006  31.659  60.105  1.00  0.00     0.041 A 
HETATM   20  C   UNL     1       9.590  31.785  61.368  1.00  0.00     0.018 A 
HETATM   21  C   UNL     1       8.780  31.971  62.491  1.00  0.00     0.003 A 
HETATM   22  C   UNL     1       7.391  32.054  62.353  1.00  0.00     0.029 A 
BRANCH  19  23
HETATM   23  C   UNL     1       9.796  31.449  58.861  1.00  0.00     0.293 C 
HETATM   24  O   UNL     1      10.250  32.372  58.199  1.00  0.00    -0.259 OA
BRANCH  23  25
HETATM   25  O   UNL     1       9.978  30.130  58.623  1.00  0.00    -0.323 OA
HETATM   26  C   UNL     1      10.467  29.829  57.313  1.00  0.00     0.213 C 
ENDBRANCH  23  25
ENDBRANCH  19  23
ENDBRANCH  15  17
ENDBRANCH  13  15
ENDBRANCH  11  13
ENDBRANCH  10  11
ENDBRANCH   4  10
BRANCH   1  27
HETATM   27  C   UNL     1       5.578  28.385  55.640  1.00  0.00     0.038 C 
HETATM   28  N   UNL     1       6.425  28.192  56.709  1.00  0.00    -0.277 N 
HETATM   29  C   UNL     1       6.823  29.071  57.784  1.00  0.00     0.179 C 
HETATM   30  N   UNL     1       6.945  26.951  56.748  1.00  0.00    -0.172 NA
HETATM   31  C   UNL     1       6.602  26.377  55.591  1.00  0.00     0.089 C 
HETATM   32  C   UNL     1       5.761  27.247  54.864  1.00  0.00     0.061 C 
BRANCH  31  33
HETATM   33  C   UNL     1       7.011  25.023  55.226  1.00  0.00    -0.005 A 
HETATM   34  C   UNL     1       7.246  24.059  56.206  1.00  0.00     0.016 A 
HETATM   35  C   UNL     1       7.556  22.736  55.851  1.00  0.00     0.030 A 
HETATM   36  C   UNL     1       7.666  22.327  54.510  1.00  0.00     0.029 A 
HETATM   37  C   UNL     1       7.449  23.323  53.543  1.00  0.00     0.030 A 
HETATM   38  C   UNL     1       7.128  24.645  53.887  1.00  0.00     0.016 A 
BRANCH  36  39
HETATM   39  N   UNL     1       7.923  21.002  54.143  1.00  0.00    -0.390 N 
HETATM   40  C   UNL     1       8.693  20.142  55.040  1.00  0.00     0.149 C 
HETATM   41  C   UNL     1       8.061  20.703  52.717  1.00  0.00     0.149 C 
ENDBRANCH  36  39
ENDBRANCH  31  33
ENDBRANCH   1  27
TORSDOF 10
ENDMDL
MODEL 3
REMARK VINA RESULT:      -9.6      3.650      6.480
REMARK  10 active torsions:
REMARK  status: ('A' for Active; 'I' for Inactive)
REMARK    1  A    between atoms: C_4  and  C_5 
REMARK    2  A    between atoms: C_8  and  N_9 
REMARK    3  A    between atoms: C_15  and  C_16 
REMARK    4  A    between atoms: C_19  and  C_20 
REMARK    5  A    between atoms: C_20  and  N_21 
REMARK    6  A    between atoms: N_21  and  C_22 
REMARK    7  A    between atoms: C_22  and  N_23 
REMARK    8  A    between atoms: N_23  and  C_24 
REMARK    9  A    between atoms: C_26  and  C_27 
REMARK   10  A    between atoms: C_27  and  O_28 
ROOT
HETATM    1  C   UNL     1       7.291  26.307  55.116  1.00  0.00     0.067 C 
HETATM    2  C   UNL     1       6.419  25.658  56.206  1.00  0.00     0.001 C 
HETATM    3  C   UNL     1       5.244  26.572  56.610  1.00  0.00     0.040 C 
HETATM    4  C   UNL     1       5.730  27.883  57.245  1.00  0.00     0.206 C 
HETATM    5  N   UNL     1       7.228  27.972  56.981  1.00  0.00    -0.065 N 
HETATM    6  H   UNL     1       7.573  28.897  57.273  1.00  0.00     0.280 HD
HETATM    7  C   UNL     1       7.558  27.782  55.498  1.00  0.00     0.246 C 
HETATM    8  C   UNL     1       7.317  25.541  57.466  1.00  0.00     0.033 C 
HETATM    9  C   UNL     1       7.941  26.905  57.806  1.00  0.00     0.236 C 
ENDROOT
BRANCH   4  10
HETATM   10  C   UNL     1       4.955  29.130  56.767  1.00  0.00     0.155 C 
BRANCH  10  11
HETATM   11  N   UNL     1       4.294  29.825  57.869  1.00  0.00    -0.365 N 
HETATM   12  H   UNL     1       4.102  29.292  58.713  1.00  0.00     0.161 HD
BRANCH  11  13
HETATM   13  C   UNL     1       4.345  31.171  58.122  1.00  0.00     0.172 C 
HETATM   14  S   UNL     1       3.865  32.363  57.061  1.00  0.00    -0.041 SA
BRANCH  13  15
HETATM   15  N   UNL     1       4.889  31.537  59.325  1.00  0.00    -0.333 N 
HETATM   16  H   UNL     1       4.221  31.523  60.094  1.00  0.00     0.168 HD
BRANCH  15  17
HETATM   17  C   UNL     1       6.231  31.787  59.685  1.00  0.00     0.035 A 
HETATM   18  C   UNL     1       7.317  31.409  58.892  1.00  0.00     0.047 A 
HETATM   19  C   UNL     1       8.635  31.686  59.286  1.00  0.00     0.041 A 
HETATM   20  C   UNL     1       8.867  32.322  60.509  1.00  0.00     0.018 A 
HETATM   21  C   UNL     1       7.787  32.660  61.329  1.00  0.00     0.003 A 
HETATM   22  C   UNL     1       6.478  32.386  60.922  1.00  0.00     0.029 A 
BRANCH  19  23
HETATM   23  C   UNL     1       9.728  31.285  58.360  1.00  0.00     0.293 C 
HETATM   24  O   UNL     1      10.732  31.961  58.182  1.00  0.00    -0.259 OA
BRANCH  23  25
HETATM   25  O   UNL     1       9.476  30.073  57.813  1.00  0.00    -0.323 OA
HETATM   26  C   UNL     1      10.547  29.545  57.027  1.00  0.00     0.213 C 
ENDBRANCH  23  25
ENDBRANCH  19  23
ENDBRANCH  15  17
ENDBRANCH  13  15
ENDBRANCH  11  13
ENDBRANCH  10  11
ENDBRANCH   4  10
BRANCH   1  27
HETATM   27  C   UNL     1       6.959  26.171  53.657  1.00  0.00     0.038 C 
HETATM   28  N   UNL     1       7.212  25.173  52.743  1.00  0.00    -0.277 N 
HETATM   29  C   UNL     1       8.040  23.992  52.821  1.00  0.00     0.179 C 
HETATM   30  N   UNL     1       6.543  25.339  51.587  1.00  0.00    -0.172 NA
HETATM   31  C   UNL     1       5.997  26.557  51.655  1.00  0.00     0.089 C 
HETATM   32  C   UNL     1       6.248  27.116  52.927  1.00  0.00     0.061 C 
BRANCH  31  33
HETATM   33  C   UNL     1       5.211  27.136  50.568  1.00  0.00    -0.005 A 
HETATM   34  C   UNL     1       5.205  28.513  50.344  1.00  0.00     0.016 A 
HETATM   35  C   UNL     1       4.518  29.058  49.247  1.00  0.00     0.030 A 
HETATM   36  C   UNL     1       3.792  28.260  48.346  1.00  0.00     0.029 A 
HETATM   37  C   UNL     1       3.795  26.878  48.608  1.00  0.00     0.030 A 
HETATM   38  C   UNL     1       4.487  26.322  49.694  1.00  0.00     0.016 A 
BRANCH  36  39
HETATM   39  N   UNL     1       3.147  28.784  47.222  1.00  0.00    -0.390 N 
HETATM   40  C   UNL     1       3.442  30.150  46.793  1.00  0.00     0.149 C 
HETATM   41  C   UNL     1       1.790  28.317  46.934  1.00  0.00     0.149 C 
ENDBRANCH  36  39
ENDBRANCH  31  33
ENDBRANCH   1  27
TORSDOF 10
ENDMDL
MODEL 4
REMARK VINA RESULT:      -9.5      1.497      1.949
REMARK  10 active torsions:
REMARK  status: ('A' for Active; 'I' for Inactive)
REMARK    1  A    between atoms: C_4  and  C_5 
REMARK    2  A    between atoms: C_8  and  N_9 
REMARK    3  A    between atoms: C_15  and  C_16 
REMARK    4  A    between atoms: C_19  and  C_20 
REMARK    5  A    between atoms: C_20  and  N_21 
REMARK    6  A    between atoms: N_21  and  C_22 
REMARK    7  A    between atoms: C_22  and  N_23 
REMARK    8  A    between atoms: N_23  and  C_24 
REMARK    9  A    between atoms: C_26  and  C_27 
REMARK   10  A    between atoms: C_27  and  O_28 
ROOT
HETATM    1  C   UNL     1       4.836  29.317  56.004  1.00  0.00     0.067 C 
HETATM    2  C   UNL     1       5.198  30.719  55.483  1.00  0.00     0.001 C 
HETATM    3  C   UNL     1       5.678  31.640  56.624  1.00  0.00     0.040 C 
HETATM    4  C   UNL     1       4.572  31.895  57.658  1.00  0.00     0.206 C 
HETATM    5  N   UNL     1       3.458  30.897  57.368  1.00  0.00    -0.065 N 
HETATM    6  H   UNL     1       2.754  30.942  58.117  1.00  0.00     0.280 HD
HETATM    7  C   UNL     1       3.985  29.462  57.289  1.00  0.00     0.246 C 
HETATM    8  C   UNL     1       3.875  31.343  54.963  1.00  0.00     0.033 C 
HETATM    9  C   UNL     1       2.789  31.272  56.050  1.00  0.00     0.236 C 
ENDROOT
BRANCH   4  10
HETATM   10  C   UNL     1       5.066  31.844  59.121  1.00  0.00     0.155 C 
BRANCH  10  11
HETATM   11  N   UNL     1       6.397  32.426  59.274  1.00  0.00    -0.365 N 
HETATM   12  H   UNL     1       6.518  33.400  59.010  1.00  0.00     0.161 HD
BRANCH  11  13
HETATM   13  C   UNL     1       7.358  32.021  60.164  1.00  0.00     0.172 C 
HETATM   14  S   UNL     1       8.993  31.967  59.848  1.00  0.00    -0.041 SA
BRANCH  13  15
HETATM   15  N   UNL     1       6.905  31.580  61.379  1.00  0.00    -0.333 N 
HETATM   16  H   UNL     1       6.819  30.567  61.439  1.00  0.00     0.168 HD
BRANCH  15  17
HETATM   17  C   UNL     1       6.679  32.284  62.582  1.00  0.00     0.035 A 
HETATM   18  C   UNL     1       5.425  32.772  62.958  1.00  0.00     0.047 A 
HETATM   19  C   UNL     1       5.246  33.460  64.168  1.00  0.00     0.041 A 
HETATM   20  C   UNL     1       6.348  33.689  64.996  1.00  0.00     0.018 A 
HETATM   21  C   UNL     1       7.613  33.246  64.605  1.00  0.00     0.003 A 
HETATM   22  C   UNL     1       7.778  32.555  63.401  1.00  0.00     0.029 A 
BRANCH  19  23
HETATM   23  C   UNL     1       3.868  33.907  64.506  1.00  0.00     0.293 C 
HETATM   24  O   UNL     1       3.598  34.509  65.536  1.00  0.00    -0.259 OA
BRANCH  23  25
HETATM   25  O   UNL     1       3.005  33.608  63.507  1.00  0.00    -0.323 OA
HETATM   26  C   UNL     1       2.463  34.747  62.835  1.00  0.00     0.213 C 
ENDBRANCH  23  25
ENDBRANCH  19  23
ENDBRANCH  15  17
ENDBRANCH  13  15
ENDBRANCH  11  13
ENDBRANCH  10  11
ENDBRANCH   4  10
BRANCH   1  27
HETATM   27  C   UNL     1       5.873  28.239  56.154  1.00  0.00     0.038 C 
HETATM   28  N   UNL     1       6.929  28.091  57.025  1.00  0.00    -0.277 N 
HETATM   29  C   UNL     1       7.518  29.003  57.977  1.00  0.00     0.179 C 
HETATM   30  N   UNL     1       7.482  26.865  56.974  1.00  0.00    -0.172 NA
HETATM   31  C   UNL     1       6.921  26.257  55.924  1.00  0.00     0.089 C 
HETATM   32  C   UNL     1       5.921  27.089  55.375  1.00  0.00     0.061 C 
BRANCH  31  33
HETATM   33  C   UNL     1       7.284  24.906  55.504  1.00  0.00    -0.005 A 
HETATM   34  C   UNL     1       7.582  23.920  56.446  1.00  0.00     0.016 A 
HETATM   35  C   UNL     1       7.846  22.601  56.043  1.00  0.00     0.030 A 
HETATM   36  C   UNL     1       7.848  22.216  54.691  1.00  0.00     0.029 A 
HETATM   37  C   UNL     1       7.568  23.234  53.762  1.00  0.00     0.030 A 
HETATM   38  C   UNL     1       7.291  24.552  54.154  1.00  0.00     0.016 A 
BRANCH  36  39
HETATM   39  N   UNL     1       8.059  20.896  54.281  1.00  0.00    -0.390 N 
HETATM   40  C   UNL     1       8.820  19.988  55.137  1.00  0.00     0.149 C 
HETATM   41  C   UNL     1       8.161  20.636  52.844  1.00  0.00     0.149 C 
ENDBRANCH  36  39
ENDBRANCH  31  33
ENDBRANCH   1  27
TORSDOF 10
ENDMDL
MODEL 5
REMARK VINA RESULT:      -9.4      4.834      6.880
REMARK  10 active torsions:
REMARK  status: ('A' for Active; 'I' for Inactive)
REMARK    1  A    between atoms: C_4  and  C_5 
REMARK    2  A    between atoms: C_8  and  N_9 
REMARK    3  A    between atoms: C_15  and  C_16 
REMARK    4  A    between atoms: C_19  and  C_20 
REMARK    5  A    between atoms: C_20  and  N_21 
REMARK    6  A    between atoms: N_21  and  C_22 
REMARK    7  A    between atoms: C_22  and  N_23 
REMARK    8  A    between atoms: N_23  and  C_24 
REMARK    9  A    between atoms: C_26  and  C_27 
REMARK   10  A    between atoms: C_27  and  O_28 
ROOT
HETATM    1  C   UNL     1       4.451  29.435  49.462  1.00  0.00     0.067 C 
HETATM    2  C   UNL     1       5.371  30.645  49.707  1.00  0.00     0.001 C 
HETATM    3  C   UNL     1       4.937  31.442  50.954  1.00  0.00     0.040 C 
HETATM    4  C   UNL     1       3.540  32.058  50.783  1.00  0.00     0.206 C 
HETATM    5  N   UNL     1       2.921  31.412  49.549  1.00  0.00    -0.065 N 
HETATM    6  H   UNL     1       1.935  31.696  49.472  1.00  0.00     0.280 HD
HETATM    7  C   UNL     1       2.978  29.884  49.617  1.00  0.00     0.246 C 
HETATM    8  C   UNL     1       5.162  31.599  48.501  1.00  0.00     0.033 C 
HETATM    9  C   UNL     1       3.666  31.899  48.310  1.00  0.00     0.236 C 
ENDROOT
BRANCH   4  10
HETATM   10  C   UNL     1       2.650  31.937  52.040  1.00  0.00     0.155 C 
BRANCH  10  11
HETATM   11  N   UNL     1       3.068  30.839  52.908  1.00  0.00    -0.365 N 
HETATM   12  H   UNL     1       3.436  30.002  52.464  1.00  0.00     0.161 HD
BRANCH  11  13
HETATM   13  C   UNL     1       3.499  30.953  54.204  1.00  0.00     0.172 C 
HETATM   14  S   UNL     1       2.627  31.644  55.445  1.00  0.00    -0.041 SA
BRANCH  13  15
HETATM   15  N   UNL     1       4.768  30.505  54.459  1.00  0.00    -0.333 N 
HETATM   16  H   UNL     1       5.492  31.046  53.990  1.00  0.00     0.168 HD
BRANCH  15  17
HETATM   17  C   UNL     1       5.228  29.521  55.361  1.00  0.00     0.035 A 
HETATM   18  C   UNL     1       6.436  29.626  56.055  1.00  0.00     0.047 A 
HETATM   19  C   UNL     1       6.850  28.627  56.949  1.00  0.00     0.041 A 
HETATM   20  C   UNL     1       6.054  27.491  57.124  1.00  0.00     0.018 A 
HETATM   21  C   UNL     1       4.869  27.357  56.398  1.00  0.00     0.003 A 
HETATM   22  C   UNL     1       4.464  28.363  55.516  1.00  0.00     0.029 A 
BRANCH  19  23
HETATM   23  C   UNL     1       8.130  28.842  57.676  1.00  0.00     0.293 C 
HETATM   24  O   UNL     1       8.180  29.240  58.832  1.00  0.00    -0.259 OA
BRANCH  23  25
HETATM   25  O   UNL     1       9.185  28.484  56.909  1.00  0.00    -0.323 OA
HETATM   26  C   UNL     1      10.299  29.378  56.983  1.00  0.00     0.213 C 
ENDBRANCH  23  25
ENDBRANCH  19  23
ENDBRANCH  15  17
ENDBRANCH  13  15
ENDBRANCH  11  13
ENDBRANCH  10  11
ENDBRANCH   4  10
BRANCH   1  27
HETATM   27  C   UNL     1       4.693  28.112  50.133  1.00  0.00     0.038 C 
HETATM   28  N   UNL     1       4.468  26.817  49.724  1.00  0.00    -0.277 N 
HETATM   29  C   UNL     1       3.756  26.283  48.588  1.00  0.00     0.179 C 
HETATM   30  N   UNL     1       5.040  25.906  50.534  1.00  0.00    -0.172 NA
HETATM   31  C   UNL     1       5.479  26.588  51.596  1.00  0.00     0.089 C 
HETATM   32  C   UNL     1       5.267  27.969  51.391  1.00  0.00     0.061 C 
BRANCH  31  33
HETATM   33  C   UNL     1       6.134  25.948  52.734  1.00  0.00    -0.005 A 
HETATM   34  C   UNL     1       5.825  24.635  53.091  1.00  0.00     0.016 A 
HETATM   35  C   UNL     1       6.518  23.994  54.131  1.00  0.00     0.030 A 
HETATM   36  C   UNL     1       7.525  24.638  54.870  1.00  0.00     0.029 A 
HETATM   37  C   UNL     1       7.799  25.968  54.506  1.00  0.00     0.030 A 
HETATM   38  C   UNL     1       7.122  26.615  53.461  1.00  0.00     0.016 A 
BRANCH  36  39
HETATM   39  N   UNL     1       8.256  23.995  55.873  1.00  0.00    -0.390 N 
HETATM   40  C   UNL     1       8.753  24.765  57.011  1.00  0.00     0.149 C 
HETATM   41  C   UNL     1       9.076  22.845  55.489  1.00  0.00     0.149 C 
ENDBRANCH  36  39
ENDBRANCH  31  33
ENDBRANCH   1  27
TORSDOF 10
ENDMDL
MODEL 6
REMARK VINA RESULT:      -9.4      2.226      3.048
REMARK  10 active torsions:
REMARK  status: ('A' for Active; 'I' for Inactive)
REMARK    1  A    between atoms: C_4  and  C_5 
REMARK    2  A    between atoms: C_8  and  N_9 
REMARK    3  A    between atoms: C_15  and  C_16 
REMARK    4  A    between atoms: C_19  and  C_20 
REMARK    5  A    between atoms: C_20  and  N_21 
REMARK    6  A    between atoms: N_21  and  C_22 
REMARK    7  A    between atoms: C_22  and  N_23 
REMARK    8  A    between atoms: N_23  and  C_24 
REMARK    9  A    between atoms: C_26  and  C_27 
REMARK   10  A    between atoms: C_27  and  O_28 
ROOT
HETATM    1  C   UNL     1       5.089  29.632  55.734  1.00  0.00     0.067 C 
HETATM    2  C   UNL     1       5.520  31.096  55.936  1.00  0.00     0.001 C 
HETATM    3  C   UNL     1       5.335  31.543  57.401  1.00  0.00     0.040 C 
HETATM    4  C   UNL     1       3.859  31.521  57.825  1.00  0.00     0.206 C 
HETATM    5  N   UNL     1       3.100  30.765  56.741  1.00  0.00    -0.065 N 
HETATM    6  H   UNL     1       2.129  30.610  57.048  1.00  0.00     0.280 HD
HETATM    7  C   UNL     1       3.734  29.404  56.446  1.00  0.00     0.246 C 
HETATM    8  C   UNL     1       4.532  31.956  55.103  1.00  0.00     0.033 C 
HETATM    9  C   UNL     1       3.080  31.609  55.471  1.00  0.00     0.236 C 
ENDROOT
BRANCH   4  10
HETATM   10  C   UNL     1       3.628  30.946  59.240  1.00  0.00     0.155 C 
BRANCH  10  11
HETATM   11  N   UNL     1       4.483  31.582  60.240  1.00  0.00    -0.365 N 
HETATM   12  H   UNL     1       5.427  31.835  59.960  1.00  0.00     0.161 HD
BRANCH  11  13
HETATM   13  C   UNL     1       4.058  32.326  61.310  1.00  0.00     0.172 C 
HETATM   14  S   UNL     1       3.125  33.703  61.208  1.00  0.00    -0.041 SA
BRANCH  13  15
HETATM   15  N   UNL     1       4.494  31.913  62.541  1.00  0.00    -0.333 N 
HETATM   16  H   UNL     1       4.239  30.953  62.762  1.00  0.00     0.168 HD
BRANCH  15  17
HETATM   17  C   UNL     1       5.344  32.549  63.471  1.00  0.00     0.035 A 
HETATM   18  C   UNL     1       4.871  33.303  64.548  1.00  0.00     0.047 A 
HETATM   19  C   UNL     1       5.754  33.911  65.453  1.00  0.00     0.041 A 
HETATM   20  C   UNL     1       7.132  33.787  65.256  1.00  0.00     0.018 A 
HETATM   21  C   UNL     1       7.613  33.075  64.154  1.00  0.00     0.003 A 
HETATM   22  C   UNL     1       6.723  32.467  63.264  1.00  0.00     0.029 A 
BRANCH  19  23
HETATM   23  C   UNL     1       5.161  34.659  66.595  1.00  0.00     0.293 C 
HETATM   24  O   UNL     1       4.799  35.825  66.509  1.00  0.00    -0.259 OA
BRANCH  23  25
HETATM   25  O   UNL     1       5.034  33.862  67.680  1.00  0.00    -0.323 OA
HETATM   26  C   UNL     1       5.890  34.210  68.772  1.00  0.00     0.213 C 
ENDBRANCH  23  25
ENDBRANCH  19  23
ENDBRANCH  15  17
ENDBRANCH  13  15
ENDBRANCH  11  13
ENDBRANCH  10  11
ENDBRANCH   4  10
BRANCH   1  27
HETATM   27  C   UNL     1       6.036  28.491  55.981  1.00  0.00     0.038 C 
HETATM   28  N   UNL     1       6.978  28.270  56.961  1.00  0.00    -0.277 N 
HETATM   29  C   UNL     1       7.510  29.135  57.987  1.00  0.00     0.179 C 
HETATM   30  N   UNL     1       7.457  27.012  56.952  1.00  0.00    -0.172 NA
HETATM   31  C   UNL     1       6.981  26.449  55.837  1.00  0.00     0.089 C 
HETATM   32  C   UNL     1       6.101  27.347  55.194  1.00  0.00     0.061 C 
BRANCH  31  33
HETATM   33  C   UNL     1       7.306  25.082  55.439  1.00  0.00    -0.005 A 
HETATM   34  C   UNL     1       7.783  24.160  56.371  1.00  0.00     0.016 A 
HETATM   35  C   UNL     1       8.013  22.824  56.003  1.00  0.00     0.030 A 
HETATM   36  C   UNL     1       7.801  22.360  54.694  1.00  0.00     0.029 A 
HETATM   37  C   UNL     1       7.344  23.315  53.769  1.00  0.00     0.030 A 
HETATM   38  C   UNL     1       7.100  24.649  54.128  1.00  0.00     0.016 A 
BRANCH  36  39
HETATM   39  N   UNL     1       7.978  21.022  54.329  1.00  0.00    -0.390 N 
HETATM   40  C   UNL     1       8.737  20.130  55.203  1.00  0.00     0.149 C 
HETATM   41  C   UNL     1       8.046  20.707  52.901  1.00  0.00     0.149 C 
ENDBRANCH  36  39
ENDBRANCH  31  33
ENDBRANCH   1  27
TORSDOF 10
ENDMDL
MODEL 7
REMARK VINA RESULT:      -9.1      4.174     11.474
REMARK  10 active torsions:
REMARK  status: ('A' for Active; 'I' for Inactive)
REMARK    1  A    between atoms: C_4  and  C_5 
REMARK    2  A    between atoms: C_8  and  N_9 
REMARK    3  A    between atoms: C_15  and  C_16 
REMARK    4  A    between atoms: C_19  and  C_20 
REMARK    5  A    between atoms: C_20  and  N_21 
REMARK    6  A    between atoms: N_21  and  C_22 
REMARK    7  A    between atoms: C_22  and  N_23 
REMARK    8  A    between atoms: N_23  and  C_24 
REMARK    9  A    between atoms: C_26  and  C_27 
REMARK   10  A    between atoms: C_27  and  O_28 
ROOT
HETATM    1  C   UNL     1       4.752  31.693  57.547  1.00  0.00     0.067 C 
HETATM    2  C   UNL     1       3.713  30.577  57.330  1.00  0.00     0.001 C 
HETATM    3  C   UNL     1       4.377  29.274  56.840  1.00  0.00     0.040 C 
HETATM    4  C   UNL     1       5.035  29.449  55.464  1.00  0.00     0.206 C 
HETATM    5  N   UNL     1       5.078  30.947  55.182  1.00  0.00    -0.065 N 
HETATM    6  H   UNL     1       5.630  31.120  54.331  1.00  0.00     0.280 HD
HETATM    7  C   UNL     1       5.714  31.725  56.336  1.00  0.00     0.246 C 
HETATM    8  C   UNL     1       2.803  31.054  56.166  1.00  0.00     0.033 C 
HETATM    9  C   UNL     1       3.656  31.446  54.948  1.00  0.00     0.236 C 
ENDROOT
BRANCH   4  10
HETATM   10  C   UNL     1       6.419  28.772  55.347  1.00  0.00     0.155 C 
BRANCH  10  11
HETATM   11  N   UNL     1       6.736  27.961  56.520  1.00  0.00    -0.365 N 
HETATM   12  H   UNL     1       6.372  28.269  57.418  1.00  0.00     0.161 HD
BRANCH  11  13
HETATM   13  C   UNL     1       7.016  26.619  56.522  1.00  0.00     0.172 C 
HETATM   14  S   UNL     1       8.118  25.873  57.525  1.00  0.00    -0.041 SA
BRANCH  13  15
HETATM   15  N   UNL     1       6.365  25.867  55.580  1.00  0.00    -0.333 N 
HETATM   16  H   UNL     1       5.366  26.059  55.526  1.00  0.00     0.168 HD
BRANCH  15  17
HETATM   17  C   UNL     1       6.874  24.989  54.598  1.00  0.00     0.035 A 
HETATM   18  C   UNL     1       7.110  23.633  54.834  1.00  0.00     0.047 A 
HETATM   19  C   UNL     1       7.609  22.796  53.825  1.00  0.00     0.041 A 
HETATM   20  C   UNL     1       7.905  23.336  52.570  1.00  0.00     0.018 A 
HETATM   21  C   UNL     1       7.716  24.701  52.341  1.00  0.00     0.003 A 
HETATM   22  C   UNL     1       7.211  25.523  53.353  1.00  0.00     0.029 A 
BRANCH  19  23
HETATM   23  C   UNL     1       7.791  21.356  54.153  1.00  0.00     0.293 C 
HETATM   24  O   UNL     1       7.986  20.499  53.302  1.00  0.00    -0.259 OA
BRANCH  23  25
HETATM   25  O   UNL     1       7.767  21.161  55.491  1.00  0.00    -0.323 OA
HETATM   26  C   UNL     1       8.827  20.338  55.986  1.00  0.00     0.213 C 
ENDBRANCH  23  25
ENDBRANCH  19  23
ENDBRANCH  15  17
ENDBRANCH  13  15
ENDBRANCH  11  13
ENDBRANCH  10  11
ENDBRANCH   4  10
BRANCH   1  27
HETATM   27  C   UNL     1       5.498  31.833  58.843  1.00  0.00     0.038 C 
HETATM   28  N   UNL     1       6.795  31.533  59.198  1.00  0.00    -0.277 N 
HETATM   29  C   UNL     1       7.834  30.812  58.501  1.00  0.00     0.179 C 
HETATM   30  N   UNL     1       7.135  32.025  60.404  1.00  0.00    -0.172 NA
HETATM   31  C   UNL     1       6.001  32.484  60.943  1.00  0.00     0.089 C 
HETATM   32  C   UNL     1       4.952  32.368  60.005  1.00  0.00     0.061 C 
BRANCH  31  33
HETATM   33  C   UNL     1       5.939  33.071  62.279  1.00  0.00    -0.005 A 
HETATM   34  C   UNL     1       4.859  33.866  62.661  1.00  0.00     0.016 A 
HETATM   35  C   UNL     1       4.760  34.358  63.973  1.00  0.00     0.030 A 
HETATM   36  C   UNL     1       5.740  34.099  64.946  1.00  0.00     0.029 A 
HETATM   37  C   UNL     1       6.830  33.315  64.528  1.00  0.00     0.030 A 
HETATM   38  C   UNL     1       6.933  32.809  63.224  1.00  0.00     0.016 A 
BRANCH  36  39
HETATM   39  N   UNL     1       5.627  34.540  66.268  1.00  0.00    -0.390 N 
HETATM   40  C   UNL     1       6.678  34.213  67.230  1.00  0.00     0.149 C 
HETATM   41  C   UNL     1       4.282  34.675  66.831  1.00  0.00     0.149 C 
ENDBRANCH  36  39
ENDBRANCH  31  33
ENDBRANCH   1  27
TORSDOF 10
ENDMDL
MODEL 8
REMARK VINA RESULT:      -9.0      5.231      8.850
REMARK  10 active torsions:
REMARK  status: ('A' for Active; 'I' for Inactive)
REMARK    1  A    between atoms: C_4  and  C_5 
REMARK    2  A    between atoms: C_8  and  N_9 
REMARK    3  A    between atoms: C_15  and  C_16 
REMARK    4  A    between atoms: C_19  and  C_20 
REMARK    5  A    between atoms: C_20  and  N_21 
REMARK    6  A    between atoms: N_21  and  C_22 
REMARK    7  A    between atoms: C_22  and  N_23 
REMARK    8  A    between atoms: N_23  and  C_24 
REMARK    9  A    between atoms: C_26  and  C_27 
REMARK   10  A    between atoms: C_27  and  O_28 
ROOT
HETATM    1  C   UNL     1       5.583  30.595  57.254  1.00  0.00     0.067 C 
HETATM    2  C   UNL     1       4.105  30.500  57.676  1.00  0.00     0.001 C 
HETATM    3  C   UNL     1       3.223  29.968  56.528  1.00  0.00     0.040 C 
HETATM    4  C   UNL     1       3.211  30.922  55.325  1.00  0.00     0.206 C 
HETATM    5  N   UNL     1       4.330  31.932  55.552  1.00  0.00    -0.065 N 
HETATM    6  H   UNL     1       4.446  32.511  54.708  1.00  0.00     0.280 HD
HETATM    7  C   UNL     1       5.665  31.246  55.853  1.00  0.00     0.246 C 
HETATM    8  C   UNL     1       3.634  31.956  57.933  1.00  0.00     0.033 C 
HETATM    9  C   UNL     1       3.946  32.842  56.715  1.00  0.00     0.236 C 
ENDROOT
BRANCH   4  10
HETATM   10  C   UNL     1       3.312  30.203  53.961  1.00  0.00     0.155 C 
BRANCH  10  11
HETATM   11  N   UNL     1       3.571  31.134  52.866  1.00  0.00    -0.365 N 
HETATM   12  H   UNL     1       3.449  32.126  53.052  1.00  0.00     0.161 HD
BRANCH  11  13
HETATM   13  C   UNL     1       4.415  30.920  51.806  1.00  0.00     0.172 C 
HETATM   14  S   UNL     1       4.358  31.739  50.356  1.00  0.00    -0.041 SA
BRANCH  13  15
HETATM   15  N   UNL     1       5.329  29.911  51.959  1.00  0.00    -0.333 N 
HETATM   16  H   UNL     1       6.109  30.156  52.565  1.00  0.00     0.168 HD
BRANCH  15  17
HETATM   17  C   UNL     1       5.287  28.566  51.532  1.00  0.00     0.035 A 
HETATM   18  C   UNL     1       4.835  28.180  50.267  1.00  0.00     0.047 A 
HETATM   19  C   UNL     1       4.819  26.830  49.882  1.00  0.00     0.041 A 
HETATM   20  C   UNL     1       5.232  25.852  50.791  1.00  0.00     0.018 A 
HETATM   21  C   UNL     1       5.640  26.227  52.073  1.00  0.00     0.003 A 
HETATM   22  C   UNL     1       5.659  27.575  52.443  1.00  0.00     0.029 A 
BRANCH  19  23
HETATM   23  C   UNL     1       4.362  26.515  48.502  1.00  0.00     0.293 C 
HETATM   24  O   UNL     1       5.071  26.661  47.516  1.00  0.00    -0.259 OA
BRANCH  23  25
HETATM   25  O   UNL     1       3.109  26.005  48.515  1.00  0.00    -0.323 OA
HETATM   26  C   UNL     1       2.276  26.458  47.444  1.00  0.00     0.213 C 
ENDBRANCH  23  25
ENDBRANCH  19  23
ENDBRANCH  15  17
ENDBRANCH  13  15
ENDBRANCH  11  13
ENDBRANCH  10  11
ENDBRANCH   4  10
BRANCH   1  27
HETATM   27  C   UNL     1       6.512  29.419  57.366  1.00  0.00     0.038 C 
HETATM   28  N   UNL     1       7.575  29.160  58.202  1.00  0.00    -0.277 N 
HETATM   29  C   UNL     1       8.280  30.000  59.141  1.00  0.00     0.179 C 
HETATM   30  N   UNL     1       8.001  27.885  58.128  1.00  0.00    -0.172 NA
HETATM   31  C   UNL     1       7.351  27.344  57.093  1.00  0.00     0.089 C 
HETATM   32  C   UNL     1       6.422  28.276  56.580  1.00  0.00     0.061 C 
BRANCH  31  33
HETATM   33  C   UNL     1       7.564  25.968  56.655  1.00  0.00    -0.005 A 
HETATM   34  C   UNL     1       6.812  25.424  55.613  1.00  0.00     0.016 A 
HETATM   35  C   UNL     1       7.077  24.130  55.137  1.00  0.00     0.030 A 
HETATM   36  C   UNL     1       8.082  23.319  55.692  1.00  0.00     0.029 A 
HETATM   37  C   UNL     1       8.809  23.881  56.755  1.00  0.00     0.030 A 
HETATM   38  C   UNL     1       8.560  25.177  57.231  1.00  0.00     0.016 A 
BRANCH  36  39
HETATM   39  N   UNL     1       8.389  22.049  55.193  1.00  0.00    -0.390 N 
HETATM   40  C   UNL     1       8.725  21.891  53.780  1.00  0.00     0.149 C 
HETATM   41  C   UNL     1       7.738  20.895  55.816  1.00  0.00     0.149 C 
ENDBRANCH  36  39
ENDBRANCH  31  33
ENDBRANCH   1  27
TORSDOF 10
ENDMDL
MODEL 9
REMARK VINA RESULT:      -8.9      3.096      5.680
REMARK  10 active torsions:
REMARK  status: ('A' for Active; 'I' for Inactive)
REMARK    1  A    between atoms: C_4  and  C_5 
REMARK    2  A    between atoms: C_8  and  N_9 
REMARK    3  A    between atoms: C_15  and  C_16 
REMARK    4  A    between atoms: C_19  and  C_20 
REMARK    5  A    between atoms: C_20  and  N_21 
REMARK    6  A    between atoms: N_21  and  C_22 
REMARK    7  A    between atoms: C_22  and  N_23 
REMARK    8  A    between atoms: N_23  and  C_24 
REMARK    9  A    between atoms: C_26  and  C_27 
REMARK   10  A    between atoms: C_27  and  O_28 
ROOT
HETATM    1  C   UNL     1       7.472  26.970  54.917  1.00  0.00     0.067 C 
HETATM    2  C   UNL     1       6.937  26.302  56.197  1.00  0.00     0.001 C 
HETATM    3  C   UNL     1       5.660  26.999  56.708  1.00  0.00     0.040 C 
HETATM    4  C   UNL     1       5.927  28.453  57.123  1.00  0.00     0.206 C 
HETATM    5  N   UNL     1       7.312  28.815  56.598  1.00  0.00    -0.065 N 
HETATM    6  H   UNL     1       7.479  29.821  56.738  1.00  0.00     0.280 HD
HETATM    7  C   UNL     1       7.454  28.506  55.106  1.00  0.00     0.246 C 
HETATM    8  C   UNL     1       8.014  26.538  57.290  1.00  0.00     0.033 C 
HETATM    9  C   UNL     1       8.359  28.034  57.386  1.00  0.00     0.236 C 
ENDROOT
BRANCH   4  10
HETATM   10  C   UNL     1       4.830  29.441  56.668  1.00  0.00     0.155 C 
BRANCH  10  11
HETATM   11  N   UNL     1       5.213  30.833  56.897  1.00  0.00    -0.365 N 
HETATM   12  H   UNL     1       5.082  31.488  56.131  1.00  0.00     0.161 HD
BRANCH  11  13
HETATM   13  C   UNL     1       5.247  31.472  58.109  1.00  0.00     0.172 C 
HETATM   14  S   UNL     1       3.920  31.766  59.074  1.00  0.00    -0.041 SA
BRANCH  13  15
HETATM   15  N   UNL     1       6.470  31.942  58.507  1.00  0.00    -0.333 N 
HETATM   16  H   UNL     1       6.873  32.624  57.867  1.00  0.00     0.168 HD
BRANCH  15  17
HETATM   17  C   UNL     1       7.180  31.742  59.711  1.00  0.00     0.035 A 
HETATM   18  C   UNL     1       6.905  32.445  60.886  1.00  0.00     0.047 A 
HETATM   19  C   UNL     1       7.631  32.206  62.063  1.00  0.00     0.041 A 
HETATM   20  C   UNL     1       8.671  31.272  62.050  1.00  0.00     0.018 A 
HETATM   21  C   UNL     1       8.983  30.600  60.866  1.00  0.00     0.003 A 
HETATM   22  C   UNL     1       8.247  30.841  59.702  1.00  0.00     0.029 A 
BRANCH  19  23
HETATM   23  C   UNL     1       7.241  32.971  63.279  1.00  0.00     0.293 C 
HETATM   24  O   UNL     1       7.962  33.068  64.263  1.00  0.00    -0.259 OA
BRANCH  23  25
HETATM   25  O   UNL     1       6.039  33.567  63.107  1.00  0.00    -0.323 OA
HETATM   26  C   UNL     1       5.134  33.397  64.201  1.00  0.00     0.213 C 
ENDBRANCH  23  25
ENDBRANCH  19  23
ENDBRANCH  15  17
ENDBRANCH  13  15
ENDBRANCH  11  13
ENDBRANCH  10  11
ENDBRANCH   4  10
BRANCH   1  27
HETATM   27  C   UNL     1       6.968  26.580  53.556  1.00  0.00     0.038 C 
HETATM   28  N   UNL     1       7.107  25.427  52.817  1.00  0.00    -0.277 N 
HETATM   29  C   UNL     1       7.933  24.259  53.013  1.00  0.00     0.179 C 
HETATM   30  N   UNL     1       6.306  25.398  51.735  1.00  0.00    -0.172 NA
HETATM   31  C   UNL     1       5.777  26.622  51.642  1.00  0.00     0.089 C 
HETATM   32  C   UNL     1       6.179  27.396  52.753  1.00  0.00     0.061 C 
BRANCH  31  33
HETATM   33  C   UNL     1       4.870  27.013  50.567  1.00  0.00    -0.005 A 
HETATM   34  C   UNL     1       4.336  28.301  50.515  1.00  0.00     0.016 A 
HETATM   35  C   UNL     1       3.532  28.701  49.435  1.00  0.00     0.030 A 
HETATM   36  C   UNL     1       3.210  27.832  48.378  1.00  0.00     0.029 A 
HETATM   37  C   UNL     1       3.742  26.533  48.467  1.00  0.00     0.030 A 
HETATM   38  C   UNL     1       4.554  26.127  49.535  1.00  0.00     0.016 A 
BRANCH  36  39
HETATM   39  N   UNL     1       2.455  28.234  47.272  1.00  0.00    -0.390 N 
HETATM   40  C   UNL     1       2.351  29.655  46.948  1.00  0.00     0.149 C 
HETATM   41  C   UNL     1       1.293  27.421  46.908  1.00  0.00     0.149 C 
ENDBRANCH  36  39
ENDBRANCH  31  33
ENDBRANCH   1  27
TORSDOF 10
ENDMDL
MODEL 10
REMARK VINA RESULT:      -8.9      2.911      8.140
REMARK  10 active torsions:
REMARK  status: ('A' for Active; 'I' for Inactive)
REMARK    1  A    between atoms: C_4  and  C_5 
REMARK    2  A    between atoms: C_8  and  N_9 
REMARK    3  A    between atoms: C_15  and  C_16 
REMARK    4  A    between atoms: C_19  and  C_20 
REMARK    5  A    between atoms: C_20  and  N_21 
REMARK    6  A    between atoms: N_21  and  C_22 
REMARK    7  A    between atoms: C_22  and  N_23 
REMARK    8  A    between atoms: N_23  and  C_24 
REMARK    9  A    between atoms: C_26  and  C_27 
REMARK   10  A    between atoms: C_27  and  O_28 
ROOT
HETATM    1  C   UNL     1       8.105  28.136  56.534  1.00  0.00     0.067 C 
HETATM    2  C   UNL     1       7.724  28.561  55.104  1.00  0.00     0.001 C 
HETATM    3  C   UNL     1       6.252  29.014  55.022  1.00  0.00     0.040 C 
HETATM    4  C   UNL     1       5.282  27.869  55.346  1.00  0.00     0.206 C 
HETATM    5  N   UNL     1       6.114  26.741  55.946  1.00  0.00    -0.065 N 
HETATM    6  H   UNL     1       5.488  26.005  56.300  1.00  0.00     0.280 HD
HETATM    7  C   UNL     1       6.987  27.231  57.104  1.00  0.00     0.246 C 
HETATM    8  C   UNL     1       7.824  27.281  54.231  1.00  0.00     0.033 C 
HETATM    9  C   UNL     1       6.997  26.145  54.854  1.00  0.00     0.236 C 
ENDROOT
BRANCH   4  10
HETATM   10  C   UNL     1       4.100  28.293  56.246  1.00  0.00     0.155 C 
BRANCH  10  11
HETATM   11  N   UNL     1       4.422  29.457  57.067  1.00  0.00    -0.365 N 
HETATM   12  H   UNL     1       5.280  29.425  57.612  1.00  0.00     0.161 HD
BRANCH  11  13
HETATM   13  C   UNL     1       4.019  30.746  56.835  1.00  0.00     0.172 C 
HETATM   14  S   UNL     1       2.808  31.195  55.782  1.00  0.00    -0.041 SA
BRANCH  13  15
HETATM   15  N   UNL     1       4.720  31.724  57.490  1.00  0.00    -0.333 N 
HETATM   16  H   UNL     1       5.728  31.578  57.480  1.00  0.00     0.168 HD
BRANCH  15  17
HETATM   17  C   UNL     1       4.285  32.948  58.042  1.00  0.00     0.035 A 
HETATM   18  C   UNL     1       3.467  33.029  59.171  1.00  0.00     0.047 A 
HETATM   19  C   UNL     1       3.066  34.269  59.691  1.00  0.00     0.041 A 
HETATM   20  C   UNL     1       3.466  35.444  59.048  1.00  0.00     0.018 A 
HETATM   21  C   UNL     1       4.244  35.370  57.891  1.00  0.00     0.003 A 
HETATM   22  C   UNL     1       4.645  34.128  57.388  1.00  0.00     0.029 A 
BRANCH  19  23
HETATM   23  C   UNL     1       2.228  34.261  60.921  1.00  0.00     0.293 C 
HETATM   24  O   UNL     1       1.068  34.648  60.939  1.00  0.00    -0.259 OA
BRANCH  23  25
HETATM   25  O   UNL     1       2.906  33.722  61.961  1.00  0.00    -0.323 OA
HETATM   26  C   UNL     1       2.354  34.023  63.245  1.00  0.00     0.213 C 
ENDBRANCH  23  25
ENDBRANCH  19  23
ENDBRANCH  15  17
ENDBRANCH  13  15
ENDBRANCH  11  13
ENDBRANCH  10  11
ENDBRANCH   4  10
BRANCH   1  27
HETATM   27  C   UNL     1       8.574  29.134  57.554  1.00  0.00     0.038 C 
HETATM   28  N   UNL     1       9.755  29.830  57.688  1.00  0.00    -0.277 N 
HETATM   29  C   UNL     1      11.019  29.710  57.001  1.00  0.00     0.179 C 
HETATM   30  N   UNL     1       9.687  30.802  58.617  1.00  0.00    -0.172 NA
HETATM   31  C   UNL     1       8.522  30.624  59.246  1.00  0.00     0.089 C 
HETATM   32  C   UNL     1       7.803  29.581  58.621  1.00  0.00     0.061 C 
BRANCH  31  33
HETATM   33  C   UNL     1       8.085  31.463  60.359  1.00  0.00    -0.005 A 
HETATM   34  C   UNL     1       6.990  32.317  60.224  1.00  0.00     0.016 A 
HETATM   35  C   UNL     1       6.520  33.058  61.321  1.00  0.00     0.030 A 
HETATM   36  C   UNL     1       7.132  32.997  62.584  1.00  0.00     0.029 A 
HETATM   37  C   UNL     1       8.248  32.148  62.686  1.00  0.00     0.030 A 
HETATM   38  C   UNL     1       8.719  31.394  61.601  1.00  0.00     0.016 A 
BRANCH  36  39
HETATM   39  N   UNL     1       6.643  33.690  63.695  1.00  0.00    -0.390 N 
HETATM   40  C   UNL     1       5.982  34.980  63.507  1.00  0.00     0.149 C 
HETATM   41  C   UNL     1       7.350  33.529  64.967  1.00  0.00     0.149 C 
ENDBRANCH  36  39
ENDBRANCH  31  33
ENDBRANCH   1  27
TORSDOF 10
ENDMDL
