MODEL 1
REMARK VINA RESULT:      -8.7      0.000      0.000
REMARK  4 active torsions:
REMARK  status: ('A' for Active; 'I' for Inactive)
REMARK    1  A    between atoms: C_8  and  N_9 
REMARK       I    between atoms: N_9  and  C_10 
REMARK       I    between atoms: C_10  and  N_11 
REMARK    2  A    between atoms: N_11  and  C_12 
REMARK    3  A    between atoms: C_15  and  O_16 
REMARK    4  A    between atoms: O_16  and  C_17 
ROOT
HETATM    1  C   UNL     1       6.452  28.120  56.075  1.00  0.00     0.054 A 
HETATM    2  C   UNL     1       5.495  27.162  56.401  1.00  0.00     0.149 A 
HETATM    3  N   UNL     1       5.388  25.951  55.796  1.00  0.00    -0.235 NA
HETATM    4  C   UNL     1       6.279  25.673  54.820  1.00  0.00     0.169 A 
HETATM    5  C   UNL     1       7.276  26.551  54.429  1.00  0.00     0.060 A 
HETATM    6  C   UNL     1       7.361  27.789  55.067  1.00  0.00     0.035 A 
ENDROOT
BRANCH   1   7
HETATM    7  N   UNL     1       6.570  29.394  56.671  1.00  0.00    -0.307 N 
HETATM    8  C   UNL     1       7.267  29.706  57.829  1.00  0.00     0.325 C 
HETATM    9  N   UNL     1       7.144  31.050  58.124  1.00  0.00    -0.305 N 
HETATM   10  O   UNL     1       7.899  28.894  58.490  1.00  0.00    -0.247 OA
HETATM   11  H   UNL     1       6.874  31.664  57.372  1.00  0.00     0.171 HD
HETATM   12  H   UNL     1       6.005  30.128  56.273  1.00  0.00     0.170 HD
BRANCH   9  13
HETATM   13  C   UNL     1       7.555  31.683  59.288  1.00  0.00     0.086 A 
HETATM   14  C   UNL     1       8.891  31.932  59.549  1.00  0.00     0.052 A 
HETATM   15  C   UNL     1      10.132  31.636  58.798  1.00  0.00     0.072 C 
HETATM   16  N   UNL     1       8.924  32.562  60.760  1.00  0.00    -0.280 N 
HETATM   17  H   UNL     1       9.734  32.888  61.277  1.00  0.00     0.189 HD
HETATM   18  N   UNL     1       7.719  32.770  61.294  1.00  0.00    -0.177 NA
HETATM   19  C   UNL     1       6.863  32.244  60.404  1.00  0.00     0.079 A 
HETATM   20  C   UNL     1       5.409  32.355  60.687  1.00  0.00     0.075 C 
ENDBRANCH   9  13
ENDBRANCH   1   7
BRANCH   4  21
HETATM   21  O   UNL     1       6.226  24.464  54.133  1.00  0.00    -0.292 OA
BRANCH  21  22
HETATM   22  C   UNL     1       7.172  23.524  54.464  1.00  0.00     0.078 A 
HETATM   23  C   UNL     1       7.330  23.188  55.810  1.00  0.00     0.040 A 
HETATM   24  C   UNL     1       8.245  22.199  56.168  1.00  0.00     0.045 A 
HETATM   25  C   UNL     1       8.978  21.551  55.178  1.00  0.00     0.116 A 
HETATM   26  F   UNL     1       9.856  20.600  55.525  1.00  0.00    -0.206 F 
HETATM   27  C   UNL     1       8.809  21.868  53.833  1.00  0.00     0.045 A 
HETATM   28  C   UNL     1       7.892  22.856  53.470  1.00  0.00     0.040 A 
ENDBRANCH  21  22
ENDBRANCH   4  21
TORSDOF 4
ENDMDL
MODEL 2
REMARK VINA RESULT:      -8.6      3.632      9.345
REMARK  4 active torsions:
REMARK  status: ('A' for Active; 'I' for Inactive)
REMARK    1  A    between atoms: C_8  and  N_9 
REMARK       I    between atoms: N_9  and  C_10 
REMARK       I    between atoms: C_10  and  N_11 
REMARK    2  A    between atoms: N_11  and  C_12 
REMARK    3  A    between atoms: C_15  and  O_16 
REMARK    4  A    between atoms: O_16  and  C_17 
ROOT
HETATM    1  C   UNL     1       6.722  28.033  57.486  1.00  0.00     0.054 A 
HETATM    2  C   UNL     1       5.726  29.003  57.414  1.00  0.00     0.149 A 
HETATM    3  N   UNL     1       5.893  30.299  57.784  1.00  0.00    -0.235 NA
HETATM    4  C   UNL     1       7.112  30.653  58.243  1.00  0.00     0.169 A 
HETATM    5  C   UNL     1       8.173  29.768  58.342  1.00  0.00     0.060 A 
HETATM    6  C   UNL     1       7.973  28.442  57.957  1.00  0.00     0.035 A 
ENDROOT
BRANCH   1   7
HETATM    7  N   UNL     1       6.569  26.674  57.131  1.00  0.00    -0.307 N 
HETATM    8  C   UNL     1       7.191  26.018  56.079  1.00  0.00     0.325 C 
HETATM    9  N   UNL     1       6.785  24.698  56.022  1.00  0.00    -0.305 N 
HETATM   10  O   UNL     1       7.986  26.544  55.315  1.00  0.00    -0.247 OA
HETATM   11  H   UNL     1       6.385  24.303  56.857  1.00  0.00     0.171 HD
HETATM   12  H   UNL     1       5.857  26.161  57.626  1.00  0.00     0.170 HD
BRANCH   9  13
HETATM   13  C   UNL     1       7.059  23.791  55.008  1.00  0.00     0.086 A 
HETATM   14  C   UNL     1       7.721  22.601  55.255  1.00  0.00     0.052 A 
HETATM   15  C   UNL     1       8.283  22.003  56.487  1.00  0.00     0.072 C 
HETATM   16  N   UNL     1       7.811  21.967  54.049  1.00  0.00    -0.280 N 
HETATM   17  H   UNL     1       8.242  21.073  53.841  1.00  0.00     0.189 HD
HETATM   18  N   UNL     1       7.236  22.631  53.045  1.00  0.00    -0.177 NA
HETATM   19  C   UNL     1       6.763  23.752  53.612  1.00  0.00     0.079 A 
HETATM   20  C   UNL     1       6.014  24.704  52.752  1.00  0.00     0.075 C 
ENDBRANCH   9  13
ENDBRANCH   1   7
BRANCH   4  21
HETATM   21  O   UNL     1       7.362  31.955  58.665  1.00  0.00    -0.292 OA
BRANCH  21  22
HETATM   22  C   UNL     1       7.579  32.137  60.009  1.00  0.00     0.078 A 
HETATM   23  C   UNL     1       6.471  32.270  60.848  1.00  0.00     0.040 A 
HETATM   24  C   UNL     1       6.661  32.401  62.223  1.00  0.00     0.045 A 
HETATM   25  C   UNL     1       7.953  32.382  62.742  1.00  0.00     0.116 A 
HETATM   26  F   UNL     1       8.134  32.507  64.064  1.00  0.00    -0.206 F 
HETATM   27  C   UNL     1       9.060  32.228  61.912  1.00  0.00     0.045 A 
HETATM   28  C   UNL     1       8.873  32.094  60.535  1.00  0.00     0.040 A 
ENDBRANCH  21  22
ENDBRANCH   4  21
TORSDOF 4
ENDMDL
MODEL 3
REMARK VINA RESULT:      -8.6      0.524      1.678
REMARK  4 active torsions:
REMARK  status: ('A' for Active; 'I' for Inactive)
REMARK    1  A    between atoms: C_8  and  N_9 
REMARK       I    between atoms: N_9  and  C_10 
REMARK       I    between atoms: C_10  and  N_11 
REMARK    2  A    between atoms: N_11  and  C_12 
REMARK    3  A    between atoms: C_15  and  O_16 
REMARK    4  A    between atoms: O_16  and  C_17 
ROOT
HETATM    1  C   UNL     1       6.380  27.973  55.667  1.00  0.00     0.054 A 
HETATM    2  C   UNL     1       5.448  26.986  55.976  1.00  0.00     0.149 A 
HETATM    3  N   UNL     1       5.399  25.767  55.379  1.00  0.00    -0.235 NA
HETATM    4  C   UNL     1       6.324  25.512  54.430  1.00  0.00     0.169 A 
HETATM    5  C   UNL     1       7.301  26.420  54.057  1.00  0.00     0.060 A 
HETATM    6  C   UNL     1       7.327  27.666  54.686  1.00  0.00     0.035 A 
ENDROOT
BRANCH   1   7
HETATM    7  N   UNL     1       6.439  29.256  56.254  1.00  0.00    -0.307 N 
HETATM    8  C   UNL     1       7.062  29.592  57.448  1.00  0.00     0.325 C 
HETATM    9  N   UNL     1       6.896  30.937  57.720  1.00  0.00    -0.305 N 
HETATM   10  O   UNL     1       7.670  28.800  58.152  1.00  0.00    -0.247 OA
HETATM   11  H   UNL     1       6.659  31.538  56.947  1.00  0.00     0.171 HD
HETATM   12  H   UNL     1       5.884  29.974  55.817  1.00  0.00     0.170 HD
BRANCH   9  13
HETATM   13  C   UNL     1       7.227  31.590  58.899  1.00  0.00     0.086 A 
HETATM   14  C   UNL     1       6.257  32.076  59.758  1.00  0.00     0.052 A 
HETATM   15  C   UNL     1       4.777  32.076  59.704  1.00  0.00     0.072 C 
HETATM   16  N   UNL     1       6.932  32.644  60.800  1.00  0.00    -0.280 N 
HETATM   17  H   UNL     1       6.550  33.111  61.616  1.00  0.00     0.189 HD
HETATM   18  N   UNL     1       8.259  32.541  60.704  1.00  0.00    -0.177 NA
HETATM   19  C   UNL     1       8.462  31.892  59.547  1.00  0.00     0.079 A 
HETATM   20  C   UNL     1       9.861  31.575  59.164  1.00  0.00     0.075 C 
ENDBRANCH   9  13
ENDBRANCH   1   7
BRANCH   4  21
HETATM   21  O   UNL     1       6.331  24.296  53.751  1.00  0.00    -0.292 OA
BRANCH  21  22
HETATM   22  C   UNL     1       7.236  23.357  54.180  1.00  0.00     0.078 A 
HETATM   23  C   UNL     1       7.280  23.050  55.541  1.00  0.00     0.040 A 
HETATM   24  C   UNL     1       8.152  22.061  55.996  1.00  0.00     0.045 A 
HETATM   25  C   UNL     1       8.956  21.384  55.084  1.00  0.00     0.116 A 
HETATM   26  F   UNL     1       9.793  20.433  55.523  1.00  0.00    -0.206 F 
HETATM   27  C   UNL     1       8.901  21.671  53.723  1.00  0.00     0.045 A 
HETATM   28  C   UNL     1       8.027  22.658  53.264  1.00  0.00     0.040 A 
ENDBRANCH  21  22
ENDBRANCH   4  21
TORSDOF 4
ENDMDL
MODEL 4
REMARK VINA RESULT:      -8.5      3.824      9.342
REMARK  4 active torsions:
REMARK  status: ('A' for Active; 'I' for Inactive)
REMARK    1  A    between atoms: C_8  and  N_9 
REMARK       I    between atoms: N_9  and  C_10 
REMARK       I    between atoms: C_10  and  N_11 
REMARK    2  A    between atoms: N_11  and  C_12 
REMARK    3  A    between atoms: C_15  and  O_16 
REMARK    4  A    between atoms: O_16  and  C_17 
ROOT
HETATM    1  C   UNL     1       7.704  27.515  56.925  1.00  0.00     0.054 A 
HETATM    2  C   UNL     1       6.879  28.357  57.667  1.00  0.00     0.149 A 
HETATM    3  N   UNL     1       7.283  29.530  58.219  1.00  0.00    -0.235 NA
HETATM    4  C   UNL     1       8.568  29.891  58.021  1.00  0.00     0.169 A 
HETATM    5  C   UNL     1       9.466  29.131  57.289  1.00  0.00     0.060 A 
HETATM    6  C   UNL     1       9.025  27.929  56.734  1.00  0.00     0.035 A 
ENDROOT
BRANCH   1   7
HETATM    7  N   UNL     1       7.317  26.280  56.361  1.00  0.00    -0.307 N 
HETATM    8  C   UNL     1       8.013  25.082  56.433  1.00  0.00     0.325 C 
HETATM    9  N   UNL     1       7.344  24.088  55.744  1.00  0.00    -0.305 N 
HETATM   10  O   UNL     1       9.072  24.937  57.027  1.00  0.00    -0.247 OA
HETATM   11  H   UNL     1       6.363  24.232  55.566  1.00  0.00     0.171 HD
HETATM   12  H   UNL     1       6.511  26.297  55.757  1.00  0.00     0.170 HD
BRANCH   9  13
HETATM   13  C   UNL     1       7.820  22.818  55.454  1.00  0.00     0.086 A 
HETATM   14  C   UNL     1       8.047  22.406  54.152  1.00  0.00     0.052 A 
HETATM   15  C   UNL     1       7.871  23.074  52.843  1.00  0.00     0.072 C 
HETATM   16  N   UNL     1       8.509  21.124  54.242  1.00  0.00    -0.280 N 
HETATM   17  H   UNL     1       8.772  20.497  53.489  1.00  0.00     0.189 HD
HETATM   18  N   UNL     1       8.628  20.679  55.494  1.00  0.00    -0.177 NA
HETATM   19  C   UNL     1       8.216  21.705  56.255  1.00  0.00     0.079 A 
HETATM   20  C   UNL     1       8.270  21.542  57.730  1.00  0.00     0.075 C 
ENDBRANCH   9  13
ENDBRANCH   1   7
BRANCH   4  21
HETATM   21  O   UNL     1       9.070  31.066  58.571  1.00  0.00    -0.292 OA
BRANCH  21  22
HETATM   22  C   UNL     1       8.741  31.323  59.880  1.00  0.00     0.078 A 
HETATM   23  C   UNL     1       9.286  30.509  60.874  1.00  0.00     0.040 A 
HETATM   24  C   UNL     1       9.011  30.781  62.214  1.00  0.00     0.045 A 
HETATM   25  C   UNL     1       8.209  31.870  62.542  1.00  0.00     0.116 A 
HETATM   26  F   UNL     1       7.947  32.130  63.830  1.00  0.00    -0.206 F 
HETATM   27  C   UNL     1       7.681  32.699  61.556  1.00  0.00     0.045 A 
HETATM   28  C   UNL     1       7.956  32.431  60.214  1.00  0.00     0.040 A 
ENDBRANCH  21  22
ENDBRANCH   4  21
TORSDOF 4
ENDMDL
MODEL 5
REMARK VINA RESULT:      -8.5      5.424      8.499
REMARK  4 active torsions:
REMARK  status: ('A' for Active; 'I' for Inactive)
REMARK    1  A    between atoms: C_8  and  N_9 
REMARK       I    between atoms: N_9  and  C_10 
REMARK       I    between atoms: C_10  and  N_11 
REMARK    2  A    between atoms: N_11  and  C_12 
REMARK    3  A    between atoms: C_15  and  O_16 
REMARK    4  A    between atoms: O_16  and  C_17 
ROOT
HETATM    1  C   UNL     1       5.048  26.873  52.478  1.00  0.00     0.054 A 
HETATM    2  C   UNL     1       6.291  27.399  52.823  1.00  0.00     0.149 A 
HETATM    3  N   UNL     1       7.185  26.777  53.634  1.00  0.00    -0.235 NA
HETATM    4  C   UNL     1       6.832  25.570  54.125  1.00  0.00     0.169 A 
HETATM    5  C   UNL     1       5.626  24.955  53.833  1.00  0.00     0.060 A 
HETATM    6  C   UNL     1       4.725  25.616  52.998  1.00  0.00     0.035 A 
ENDROOT
BRANCH   1   7
HETATM    7  N   UNL     1       4.090  27.507  51.657  1.00  0.00    -0.307 N 
HETATM    8  C   UNL     1       4.150  27.658  50.279  1.00  0.00     0.325 C 
HETATM    9  N   UNL     1       3.047  28.350  49.817  1.00  0.00    -0.305 N 
HETATM   10  O   UNL     1       5.059  27.234  49.580  1.00  0.00    -0.247 OA
HETATM   11  H   UNL     1       2.237  28.376  50.415  1.00  0.00     0.171 HD
HETATM   12  H   UNL     1       3.344  27.989  52.132  1.00  0.00     0.170 HD
BRANCH   9  13
HETATM   13  C   UNL     1       2.853  28.836  48.532  1.00  0.00     0.086 A 
HETATM   14  C   UNL     1       1.926  28.272  47.673  1.00  0.00     0.052 A 
HETATM   15  C   UNL     1       0.992  27.131  47.812  1.00  0.00     0.072 C 
HETATM   16  N   UNL     1       2.000  28.996  46.517  1.00  0.00    -0.280 N 
HETATM   17  H   UNL     1       1.474  28.865  45.660  1.00  0.00     0.189 HD
HETATM   18  N   UNL     1       2.877  30.000  46.564  1.00  0.00    -0.177 NA
HETATM   19  C   UNL     1       3.407  29.925  47.795  1.00  0.00     0.079 A 
HETATM   20  C   UNL     1       4.406  30.953  48.185  1.00  0.00     0.075 C 
ENDBRANCH   9  13
ENDBRANCH   1   7
BRANCH   4  21
HETATM   21  O   UNL     1       7.680  24.875  54.983  1.00  0.00    -0.292 OA
BRANCH  21  22
HETATM   22  C   UNL     1       7.842  23.534  54.735  1.00  0.00     0.078 A 
HETATM   23  C   UNL     1       8.248  23.139  53.459  1.00  0.00     0.040 A 
HETATM   24  C   UNL     1       8.472  21.788  53.196  1.00  0.00     0.045 A 
HETATM   25  C   UNL     1       8.303  20.854  54.214  1.00  0.00     0.116 A 
HETATM   26  F   UNL     1       8.519  19.556  53.959  1.00  0.00    -0.206 F 
HETATM   27  C   UNL     1       7.919  21.245  55.494  1.00  0.00     0.045 A 
HETATM   28  C   UNL     1       7.696  22.596  55.761  1.00  0.00     0.040 A 
ENDBRANCH  21  22
ENDBRANCH   4  21
TORSDOF 4
ENDMDL
MODEL 6
REMARK VINA RESULT:      -8.5      1.487      2.340
REMARK  4 active torsions:
REMARK  status: ('A' for Active; 'I' for Inactive)
REMARK    1  A    between atoms: C_8  and  N_9 
REMARK       I    between atoms: N_9  and  C_10 
REMARK       I    between atoms: C_10  and  N_11 
REMARK    2  A    between atoms: N_11  and  C_12 
REMARK    3  A    between atoms: C_15  and  O_16 
REMARK    4  A    between atoms: O_16  and  C_17 
ROOT
HETATM    1  C   UNL     1       6.467  27.783  54.730  1.00  0.00     0.054 A 
HETATM    2  C   UNL     1       7.578  27.316  54.032  1.00  0.00     0.149 A 
HETATM    3  N   UNL     1       7.659  26.088  53.458  1.00  0.00    -0.235 NA
HETATM    4  C   UNL     1       6.582  25.283  53.576  1.00  0.00     0.169 A 
HETATM    5  C   UNL     1       5.424  25.657  54.239  1.00  0.00     0.060 A 
HETATM    6  C   UNL     1       5.368  26.923  54.821  1.00  0.00     0.035 A 
ENDROOT
BRANCH   1   7
HETATM    7  N   UNL     1       6.364  29.044  55.356  1.00  0.00    -0.307 N 
HETATM    8  C   UNL     1       6.600  29.326  56.694  1.00  0.00     0.325 C 
HETATM    9  N   UNL     1       6.380  30.665  56.955  1.00  0.00    -0.305 N 
HETATM   10  O   UNL     1       6.951  28.496  57.519  1.00  0.00    -0.247 OA
HETATM   11  H   UNL     1       6.398  31.296  56.170  1.00  0.00     0.171 HD
HETATM   12  H   UNL     1       5.979  29.790  54.799  1.00  0.00     0.170 HD
BRANCH   9  13
HETATM   13  C   UNL     1       6.346  31.271  58.203  1.00  0.00     0.086 A 
HETATM   14  C   UNL     1       5.152  31.603  58.818  1.00  0.00     0.052 A 
HETATM   15  C   UNL     1       3.736  31.460  58.407  1.00  0.00     0.072 C 
HETATM   16  N   UNL     1       5.493  32.168  60.014  1.00  0.00    -0.280 N 
HETATM   17  H   UNL     1       4.878  32.542  60.729  1.00  0.00     0.189 HD
HETATM   18  N   UNL     1       6.807  32.204  60.239  1.00  0.00    -0.177 NA
HETATM   19  C   UNL     1       7.350  31.653  59.142  1.00  0.00     0.079 A 
HETATM   20  C   UNL     1       8.826  31.501  59.099  1.00  0.00     0.075 C 
ENDBRANCH   9  13
ENDBRANCH   1   7
BRANCH   4  21
HETATM   21  O   UNL     1       6.590  24.000  53.037  1.00  0.00    -0.292 OA
BRANCH  21  22
HETATM   22  C   UNL     1       7.348  23.061  53.693  1.00  0.00     0.078 A 
HETATM   23  C   UNL     1       7.317  23.039  55.088  1.00  0.00     0.040 A 
HETATM   24  C   UNL     1       8.035  22.063  55.777  1.00  0.00     0.045 A 
HETATM   25  C   UNL     1       8.762  21.114  55.063  1.00  0.00     0.116 A 
HETATM   26  F   UNL     1       9.450  20.176  55.727  1.00  0.00    -0.206 F 
HETATM   27  C   UNL     1       8.779  21.118  53.671  1.00  0.00     0.045 A 
HETATM   28  C   UNL     1       8.059  22.093  52.978  1.00  0.00     0.040 A 
ENDBRANCH  21  22
ENDBRANCH   4  21
TORSDOF 4
ENDMDL
MODEL 7
REMARK VINA RESULT:      -8.3      5.271      8.174
REMARK  4 active torsions:
REMARK  status: ('A' for Active; 'I' for Inactive)
REMARK    1  A    between atoms: C_8  and  N_9 
REMARK       I    between atoms: N_9  and  C_10 
REMARK       I    between atoms: C_10  and  N_11 
REMARK    2  A    between atoms: N_11  and  C_12 
REMARK    3  A    between atoms: C_15  and  O_16 
REMARK    4  A    between atoms: O_16  and  C_17 
ROOT
HETATM    1  C   UNL     1       5.182  26.834  52.756  1.00  0.00     0.054 A 
HETATM    2  C   UNL     1       6.458  27.330  53.010  1.00  0.00     0.149 A 
HETATM    3  N   UNL     1       7.373  26.715  53.803  1.00  0.00    -0.235 NA
HETATM    4  C   UNL     1       7.007  25.546  54.370  1.00  0.00     0.169 A 
HETATM    5  C   UNL     1       5.767  24.962  54.171  1.00  0.00     0.060 A 
HETATM    6  C   UNL     1       4.845  25.616  53.353  1.00  0.00     0.035 A 
ENDROOT
BRANCH   1   7
HETATM    7  N   UNL     1       4.204  27.463  51.956  1.00  0.00    -0.307 N 
HETATM    8  C   UNL     1       4.210  27.574  50.573  1.00  0.00     0.325 C 
HETATM    9  N   UNL     1       3.102  28.274  50.136  1.00  0.00    -0.305 N 
HETATM   10  O   UNL     1       5.082  27.113  49.851  1.00  0.00    -0.247 OA
HETATM   11  H   UNL     1       2.317  28.333  50.764  1.00  0.00     0.171 HD
HETATM   12  H   UNL     1       3.486  27.973  52.446  1.00  0.00     0.170 HD
BRANCH   9  13
HETATM   13  C   UNL     1       2.865  28.728  48.846  1.00  0.00     0.086 A 
HETATM   14  C   UNL     1       3.517  29.835  48.332  1.00  0.00     0.052 A 
HETATM   15  C   UNL     1       4.516  30.767  48.905  1.00  0.00     0.072 C 
HETATM   16  N   UNL     1       3.050  29.986  47.058  1.00  0.00    -0.280 N 
HETATM   17  H   UNL     1       3.296  30.698  46.380  1.00  0.00     0.189 HD
HETATM   18  N   UNL     1       2.170  29.052  46.692  1.00  0.00    -0.177 NA
HETATM   19  C   UNL     1       2.047  28.266  47.772  1.00  0.00     0.079 A 
HETATM   20  C   UNL     1       1.155  27.082  47.672  1.00  0.00     0.075 C 
ENDBRANCH   9  13
ENDBRANCH   1   7
BRANCH   4  21
HETATM   21  O   UNL     1       7.876  24.862  55.215  1.00  0.00    -0.292 OA
BRANCH  21  22
HETATM   22  C   UNL     1       8.080  23.531  54.942  1.00  0.00     0.078 A 
HETATM   23  C   UNL     1       7.800  22.598  55.942  1.00  0.00     0.040 A 
HETATM   24  C   UNL     1       7.947  21.238  55.674  1.00  0.00     0.045 A 
HETATM   25  C   UNL     1       8.357  20.828  54.408  1.00  0.00     0.116 A 
HETATM   26  F   UNL     1       8.497  19.521  54.152  1.00  0.00    -0.206 F 
HETATM   27  C   UNL     1       8.617  21.754  53.401  1.00  0.00     0.045 A 
HETATM   28  C   UNL     1       8.468  23.116  53.665  1.00  0.00     0.040 A 
ENDBRANCH  21  22
ENDBRANCH   4  21
TORSDOF 4
ENDMDL
MODEL 8
REMARK VINA RESULT:      -8.1      3.729      9.350
REMARK  4 active torsions:
REMARK  status: ('A' for Active; 'I' for Inactive)
REMARK    1  A    between atoms: C_8  and  N_9 
REMARK       I    between atoms: N_9  and  C_10 
REMARK       I    between atoms: C_10  and  N_11 
REMARK    2  A    between atoms: N_11  and  C_12 
REMARK    3  A    between atoms: C_15  and  O_16 
REMARK    4  A    between atoms: O_16  and  C_17 
ROOT
HETATM    1  C   UNL     1       7.445  26.579  56.146  1.00  0.00     0.054 A 
HETATM    2  C   UNL     1       7.629  27.587  55.202  1.00  0.00     0.149 A 
HETATM    3  N   UNL     1       7.913  28.879  55.509  1.00  0.00    -0.235 NA
HETATM    4  C   UNL     1       8.025  29.188  56.818  1.00  0.00     0.169 A 
HETATM    5  C   UNL     1       7.872  28.258  57.834  1.00  0.00     0.060 A 
HETATM    6  C   UNL     1       7.579  26.938  57.490  1.00  0.00     0.035 A 
ENDROOT
BRANCH   1   7
HETATM    7  N   UNL     1       7.126  25.235  55.856  1.00  0.00    -0.307 N 
HETATM    8  C   UNL     1       7.980  24.144  55.941  1.00  0.00     0.325 C 
HETATM    9  N   UNL     1       7.329  22.987  55.558  1.00  0.00    -0.305 N 
HETATM   10  O   UNL     1       9.145  24.210  56.304  1.00  0.00    -0.247 OA
HETATM   11  H   UNL     1       6.322  22.996  55.579  1.00  0.00     0.171 HD
HETATM   12  H   UNL     1       6.221  25.069  55.445  1.00  0.00     0.170 HD
BRANCH   9  13
HETATM   13  C   UNL     1       7.906  21.742  55.351  1.00  0.00     0.086 A 
HETATM   14  C   UNL     1       8.340  20.956  56.403  1.00  0.00     0.052 A 
HETATM   15  C   UNL     1       8.346  21.158  57.871  1.00  0.00     0.072 C 
HETATM   16  N   UNL     1       8.840  19.818  55.838  1.00  0.00    -0.280 N 
HETATM   17  H   UNL     1       9.256  19.017  56.302  1.00  0.00     0.189 HD
HETATM   18  N   UNL     1       8.741  19.787  54.508  1.00  0.00    -0.177 NA
HETATM   19  C   UNL     1       8.165  20.956  54.188  1.00  0.00     0.079 A 
HETATM   20  C   UNL     1       7.870  21.216  52.756  1.00  0.00     0.075 C 
ENDBRANCH   9  13
ENDBRANCH   1   7
BRANCH   4  21
HETATM   21  O   UNL     1       8.291  30.493  57.221  1.00  0.00    -0.292 OA
BRANCH  21  22
HETATM   22  C   UNL     1       8.166  30.761  58.563  1.00  0.00     0.078 A 
HETATM   23  C   UNL     1       9.235  30.450  59.404  1.00  0.00     0.040 A 
HETATM   24  C   UNL     1       9.156  30.761  60.761  1.00  0.00     0.045 A 
HETATM   25  C   UNL     1       8.016  31.390  61.255  1.00  0.00     0.116 A 
HETATM   26  F   UNL     1       7.942  31.689  62.559  1.00  0.00    -0.206 F 
HETATM   27  C   UNL     1       6.956  31.722  60.416  1.00  0.00     0.045 A 
HETATM   28  C   UNL     1       7.033  31.414  59.057  1.00  0.00     0.040 A 
ENDBRANCH  21  22
ENDBRANCH   4  21
TORSDOF 4
ENDMDL
MODEL 9
REMARK VINA RESULT:      -7.9      1.658      2.616
REMARK  4 active torsions:
REMARK  status: ('A' for Active; 'I' for Inactive)
REMARK    1  A    between atoms: C_8  and  N_9 
REMARK       I    between atoms: N_9  and  C_10 
REMARK       I    between atoms: C_10  and  N_11 
REMARK    2  A    between atoms: N_11  and  C_12 
REMARK    3  A    between atoms: C_15  and  O_16 
REMARK    4  A    between atoms: O_16  and  C_17 
ROOT
HETATM    1  C   UNL     1       6.587  29.793  56.246  1.00  0.00     0.054 A 
HETATM    2  C   UNL     1       7.739  29.201  55.734  1.00  0.00     0.149 A 
HETATM    3  N   UNL     1       7.743  28.228  54.787  1.00  0.00    -0.235 NA
HETATM    4  C   UNL     1       6.544  27.824  54.319  1.00  0.00     0.169 A 
HETATM    5  C   UNL     1       5.340  28.356  54.752  1.00  0.00     0.060 A 
HETATM    6  C   UNL     1       5.365  29.353  55.728  1.00  0.00     0.035 A 
ENDROOT
BRANCH   1   7
HETATM    7  N   UNL     1       6.553  30.788  57.246  1.00  0.00    -0.307 N 
HETATM    8  C   UNL     1       7.134  30.719  58.505  1.00  0.00     0.325 C 
HETATM    9  N   UNL     1       6.876  31.871  59.223  1.00  0.00    -0.305 N 
HETATM   10  O   UNL     1       7.781  29.765  58.910  1.00  0.00    -0.247 OA
HETATM   11  H   UNL     1       6.611  32.690  58.701  1.00  0.00     0.171 HD
HETATM   12  H   UNL     1       5.958  31.582  57.067  1.00  0.00     0.170 HD
BRANCH   9  13
HETATM   13  C   UNL     1       7.145  32.085  60.568  1.00  0.00     0.086 A 
HETATM   14  C   UNL     1       6.133  32.302  61.486  1.00  0.00     0.052 A 
HETATM   15  C   UNL     1       4.660  32.382  61.357  1.00  0.00     0.072 C 
HETATM   16  N   UNL     1       6.753  32.468  62.692  1.00  0.00    -0.280 N 
HETATM   17  H   UNL     1       6.330  32.656  63.594  1.00  0.00     0.189 HD
HETATM   18  N   UNL     1       8.080  32.347  62.638  1.00  0.00    -0.177 NA
HETATM   19  C   UNL     1       8.342  32.106  61.344  1.00  0.00     0.079 A 
HETATM   20  C   UNL     1       9.756  31.874  60.952  1.00  0.00     0.075 C 
ENDBRANCH   9  13
ENDBRANCH   1   7
BRANCH   4  21
HETATM   21  O   UNL     1       6.456  26.815  53.364  1.00  0.00    -0.292 OA
BRANCH  21  22
HETATM   22  C   UNL     1       6.918  25.575  53.734  1.00  0.00     0.078 A 
HETATM   23  C   UNL     1       6.512  25.055  54.964  1.00  0.00     0.040 A 
HETATM   24  C   UNL     1       6.923  23.776  55.339  1.00  0.00     0.045 A 
HETATM   25  C   UNL     1       7.721  23.031  54.476  1.00  0.00     0.116 A 
HETATM   26  F   UNL     1       8.115  21.803  54.838  1.00  0.00    -0.206 F 
HETATM   27  C   UNL     1       8.112  23.537  53.239  1.00  0.00     0.045 A 
HETATM   28  C   UNL     1       7.700  24.815  52.859  1.00  0.00     0.040 A 
ENDBRANCH  21  22
ENDBRANCH   4  21
TORSDOF 4
ENDMDL
MODEL 10
REMARK VINA RESULT:      -7.8      6.403      9.660
REMARK  4 active torsions:
REMARK  status: ('A' for Active; 'I' for Inactive)
REMARK    1  A    between atoms: C_8  and  N_9 
REMARK       I    between atoms: N_9  and  C_10 
REMARK       I    between atoms: C_10  and  N_11 
REMARK    2  A    between atoms: N_11  and  C_12 
REMARK    3  A    between atoms: C_15  and  O_16 
REMARK    4  A    between atoms: O_16  and  C_17 
ROOT
HETATM    1  C   UNL     1       5.951  25.641  53.126  1.00  0.00     0.054 A 
HETATM    2  C   UNL     1       5.387  25.549  51.856  1.00  0.00     0.149 A 
HETATM    3  N   UNL     1       5.121  26.616  51.059  1.00  0.00    -0.235 NA
HETATM    4  C   UNL     1       5.435  27.836  51.544  1.00  0.00     0.169 A 
HETATM    5  C   UNL     1       6.010  28.035  52.788  1.00  0.00     0.060 A 
HETATM    6  C   UNL     1       6.270  26.921  53.587  1.00  0.00     0.035 A 
ENDROOT
BRANCH   1   7
HETATM    7  N   UNL     1       6.215  24.551  53.985  1.00  0.00    -0.307 N 
HETATM    8  C   UNL     1       7.257  23.641  53.872  1.00  0.00     0.325 C 
HETATM    9  N   UNL     1       7.188  22.696  54.877  1.00  0.00    -0.305 N 
HETATM   10  O   UNL     1       8.110  23.680  52.998  1.00  0.00    -0.247 OA
HETATM   11  H   UNL     1       6.650  22.933  55.696  1.00  0.00     0.171 HD
HETATM   12  H   UNL     1       5.518  24.354  54.685  1.00  0.00     0.170 HD
BRANCH   9  13
HETATM   13  C   UNL     1       7.950  21.541  54.982  1.00  0.00     0.086 A 
HETATM   14  C   UNL     1       8.445  21.103  56.197  1.00  0.00     0.052 A 
HETATM   15  C   UNL     1       8.354  21.646  57.572  1.00  0.00     0.072 C 
HETATM   16  N   UNL     1       9.131  19.954  55.929  1.00  0.00    -0.280 N 
HETATM   17  H   UNL     1       9.637  19.359  56.576  1.00  0.00     0.189 HD
HETATM   18  N   UNL     1       9.098  19.593  54.645  1.00  0.00    -0.177 NA
HETATM   19  C   UNL     1       8.373  20.550  54.046  1.00  0.00     0.079 A 
HETATM   20  C   UNL     1       8.109  20.415  52.591  1.00  0.00     0.075 C 
ENDBRANCH   9  13
ENDBRANCH   1   7
BRANCH   4  21
HETATM   21  O   UNL     1       5.175  28.985  50.802  1.00  0.00    -0.292 OA
BRANCH  21  22
HETATM   22  C   UNL     1       4.039  28.974  50.028  1.00  0.00     0.078 A 
HETATM   23  C   UNL     1       2.803  29.104  50.662  1.00  0.00     0.040 A 
HETATM   24  C   UNL     1       1.638  29.150  49.896  1.00  0.00     0.045 A 
HETATM   25  C   UNL     1       1.727  29.081  48.509  1.00  0.00     0.116 A 
HETATM   26  F   UNL     1       0.607  29.126  47.775  1.00  0.00    -0.206 F 
HETATM   27  C   UNL     1       2.959  28.973  47.870  1.00  0.00     0.045 A 
HETATM   28  C   UNL     1       4.127  28.929  48.634  1.00  0.00     0.040 A 
ENDBRANCH  21  22
ENDBRANCH   4  21
TORSDOF 4
ENDMDL
