MODEL 1
REMARK VINA RESULT:     -11.0      0.000      0.000
REMARK  7 active torsions:
REMARK  status: ('A' for Active; 'I' for Inactive)
REMARK    1  A    between atoms: C_8  and  C_9 
REMARK    2  A    between atoms: C_9  and  C_10 
REMARK       I    between atoms: C_10  and  N_11 
REMARK    3  A    between atoms: N_11  and  C_27 
REMARK    4  A    between atoms: N_11  and  C_12 
REMARK    5  A    between atoms: C_12  and  C_13 
REMARK    6  A    between atoms: C_12  and  C_22 
REMARK       I    between atoms: C_13  and  N_14 
REMARK    7  A    between atoms: N_14  and  C_15 
ROOT
HETATM    1  C   UNL     1       5.496  25.677  54.158  1.00  0.00     0.229 C 
HETATM    2  N   UNL     1       5.491  27.040  54.460  1.00  0.00    -0.299 N 
HETATM    3  O   UNL     1       4.809  25.230  53.230  1.00  0.00    -0.273 OA
ENDROOT
BRANCH   2   4
HETATM    4  C   UNL     1       6.482  27.695  55.247  1.00  0.00     0.041 A 
HETATM    5  C   UNL     1       7.572  28.316  54.617  1.00  0.00     0.069 A 
HETATM    6  C   UNL     1       8.559  28.860  55.412  1.00  0.00     0.107 A 
HETATM    7  C   UNL     1       8.499  28.807  56.783  1.00  0.00     0.105 A 
HETATM    8  O   UNL     1       9.685  29.481  54.966  1.00  0.00    -0.323 OA
HETATM    9  O   UNL     1       9.577  29.388  57.373  1.00  0.00    -0.323 OA
HETATM   10  C   UNL     1       7.446  28.210  57.438  1.00  0.00     0.042 A 
HETATM   11  C   UNL     1      10.341  29.785  56.214  1.00  0.00     0.352 A 
HETATM   12  C   UNL     1       6.431  27.640  56.658  1.00  0.00     0.032 A 
ENDBRANCH   2   4
BRANCH   2  13
HETATM   13  C   UNL     1       4.559  27.932  53.724  1.00  0.00     0.225 C 
BRANCH  13  14
HETATM   14  C   UNL     1       5.057  28.217  52.287  1.00  0.00     0.246 C 
HETATM   15  N   UNL     1       4.267  27.791  51.242  1.00  0.00    -0.354 N 
HETATM   16  H   UNL     1       3.286  27.746  51.522  1.00  0.00     0.162 HD
HETATM   17  O   UNL     1       6.056  28.923  52.117  1.00  0.00    -0.271 OA
BRANCH  15  18
HETATM   18  C   UNL     1       4.443  28.227  49.854  1.00  0.00     0.084 C 
HETATM   19  C   UNL     1       4.700  27.103  48.835  1.00  0.00     0.025 C 
HETATM   20  C   UNL     1       3.488  26.197  48.640  1.00  0.00     0.002 C 
HETATM   21  C   UNL     1       2.259  27.001  48.233  1.00  0.00     0.000 C 
HETATM   22  C   UNL     1       1.976  28.134  49.214  1.00  0.00     0.002 C 
HETATM   23  C   UNL     1       3.202  29.029  49.421  1.00  0.00     0.025 C 
ENDBRANCH  15  18
ENDBRANCH  13  14
BRANCH  13  24
HETATM   24  C   UNL     1       4.108  29.117  54.573  1.00  0.00     0.015 A 
HETATM   25  S   UNL     1       3.884  30.640  53.772  1.00  0.00    -0.104 SA
HETATM   26  C   UNL     1       3.330  31.402  55.193  1.00  0.00     0.050 A 
HETATM   27  C   UNL     1       3.318  30.544  56.265  1.00  0.00     0.008 A 
HETATM   28  C   UNL     1       3.772  29.239  55.911  1.00  0.00     0.017 A 
ENDBRANCH  13  24
ENDBRANCH   2  13
BRANCH   1  29
HETATM   29  C   UNL     1       6.282  24.706  55.040  1.00  0.00     0.144 C 
BRANCH  29  30
HETATM   30  C   UNL     1       7.095  23.720  54.248  1.00  0.00    -0.021 A 
HETATM   31  C   UNL     1       7.580  22.431  54.658  1.00  0.00    -0.001 A 
HETATM   32  C   UNL     1       7.515  21.681  55.852  1.00  0.00     0.014 A 
HETATM   33  C   UNL     1       8.247  21.868  53.569  1.00  0.00     0.042 A 
HETATM   34  C   UNL     1       8.127  20.425  55.922  1.00  0.00     0.001 A 
HETATM   35  C   UNL     1       8.785  19.895  54.816  1.00  0.00     0.002 A 
HETATM   36  C   UNL     1       8.852  20.605  53.615  1.00  0.00     0.030 A 
HETATM   37  N   UNL     1       8.166  22.767  52.534  1.00  0.00    -0.365 N 
HETATM   38  H   UNL     1       8.554  22.616  51.613  1.00  0.00     0.165 HD
HETATM   39  C   UNL     1       7.478  23.881  52.928  1.00  0.00     0.097 A 
ENDBRANCH  29  30
ENDBRANCH   1  29
TORSDOF 7
ENDMDL
MODEL 2
REMARK VINA RESULT:     -10.5      3.743      7.747
REMARK  7 active torsions:
REMARK  status: ('A' for Active; 'I' for Inactive)
REMARK    1  A    between atoms: C_8  and  C_9 
REMARK    2  A    between atoms: C_9  and  C_10 
REMARK       I    between atoms: C_10  and  N_11 
REMARK    3  A    between atoms: N_11  and  C_27 
REMARK    4  A    between atoms: N_11  and  C_12 
REMARK    5  A    between atoms: C_12  and  C_13 
REMARK    6  A    between atoms: C_12  and  C_22 
REMARK       I    between atoms: C_13  and  N_14 
REMARK    7  A    between atoms: N_14  and  C_15 
ROOT
HETATM    1  C   UNL     1       6.572  27.725  57.435  1.00  0.00     0.229 C 
HETATM    2  N   UNL     1       6.402  29.111  57.466  1.00  0.00    -0.299 N 
HETATM    3  O   UNL     1       7.436  27.177  58.131  1.00  0.00    -0.273 OA
ENDROOT
BRANCH   2   4
HETATM    4  C   UNL     1       5.242  29.792  56.995  1.00  0.00     0.041 A 
HETATM    5  C   UNL     1       5.264  30.417  55.738  1.00  0.00     0.069 A 
HETATM    6  C   UNL     1       4.159  31.145  55.353  1.00  0.00     0.107 A 
HETATM    7  C   UNL     1       3.054  31.269  56.161  1.00  0.00     0.105 A 
HETATM    8  O   UNL     1       4.022  31.823  54.181  1.00  0.00    -0.323 OA
HETATM    9  O   UNL     1       2.084  32.039  55.600  1.00  0.00    -0.323 OA
HETATM   10  C   UNL     1       2.992  30.670  57.399  1.00  0.00     0.042 A 
HETATM   11  C   UNL     1       2.718  32.413  54.358  1.00  0.00     0.352 A 
HETATM   12  C   UNL     1       4.105  29.931  57.822  1.00  0.00     0.032 A 
ENDBRANCH   2   4
BRANCH   2  13
HETATM   13  C   UNL     1       7.352  29.931  58.261  1.00  0.00     0.225 C 
BRANCH  13  14
HETATM   14  C   UNL     1       6.708  31.258  58.726  1.00  0.00     0.246 C 
HETATM   15  N   UNL     1       6.406  31.385  60.065  1.00  0.00    -0.354 N 
HETATM   16  H   UNL     1       7.023  30.805  60.634  1.00  0.00     0.162 HD
HETATM   17  O   UNL     1       6.610  32.199  57.934  1.00  0.00    -0.271 OA
BRANCH  15  18
HETATM   18  C   UNL     1       6.069  32.658  60.709  1.00  0.00     0.084 C 
HETATM   19  C   UNL     1       4.974  32.584  61.788  1.00  0.00     0.025 C 
HETATM   20  C   UNL     1       5.419  31.811  63.026  1.00  0.00     0.002 C 
HETATM   21  C   UNL     1       6.696  32.400  63.615  1.00  0.00     0.000 C 
HETATM   22  C   UNL     1       7.804  32.500  62.571  1.00  0.00     0.002 C 
HETATM   23  C   UNL     1       7.345  33.261  61.323  1.00  0.00     0.025 C 
ENDBRANCH  15  18
ENDBRANCH  13  14
BRANCH  13  24
HETATM   24  C   UNL     1       8.734  29.993  57.618  1.00  0.00     0.015 A 
HETATM   25  S   UNL     1       9.993  30.802  58.496  1.00  0.00    -0.104 SA
HETATM   26  C   UNL     1      11.170  30.424  57.323  1.00  0.00     0.050 A 
HETATM   27  C   UNL     1      10.642  29.710  56.276  1.00  0.00     0.008 A 
HETATM   28  C   UNL     1       9.245  29.472  56.440  1.00  0.00     0.017 A 
ENDBRANCH  13  24
ENDBRANCH   2  13
BRANCH   1  29
HETATM   29  C   UNL     1       5.750  26.881  56.461  1.00  0.00     0.144 C 
BRANCH  29  30
HETATM   30  C   UNL     1       6.473  26.602  55.172  1.00  0.00    -0.021 A 
HETATM   31  C   UNL     1       6.909  25.337  54.650  1.00  0.00    -0.001 A 
HETATM   32  C   UNL     1       6.862  24.004  55.113  1.00  0.00     0.014 A 
HETATM   33  C   UNL     1       7.493  25.575  53.405  1.00  0.00     0.042 A 
HETATM   34  C   UNL     1       7.410  22.976  54.338  1.00  0.00     0.001 A 
HETATM   35  C   UNL     1       7.986  23.250  53.102  1.00  0.00     0.002 A 
HETATM   36  C   UNL     1       8.034  24.557  52.608  1.00  0.00     0.030 A 
HETATM   37  N   UNL     1       7.410  26.926  53.169  1.00  0.00    -0.365 N 
HETATM   38  H   UNL     1       7.745  27.382  52.333  1.00  0.00     0.165 HD
HETATM   39  C   UNL     1       6.800  27.553  54.221  1.00  0.00     0.097 A 
ENDBRANCH  29  30
ENDBRANCH   1  29
TORSDOF 7
ENDMDL
MODEL 3
REMARK VINA RESULT:     -10.1      1.803      6.037
REMARK  7 active torsions:
REMARK  status: ('A' for Active; 'I' for Inactive)
REMARK    1  A    between atoms: C_8  and  C_9 
REMARK    2  A    between atoms: C_9  and  C_10 
REMARK       I    between atoms: C_10  and  N_11 
REMARK    3  A    between atoms: N_11  and  C_27 
REMARK    4  A    between atoms: N_11  and  C_12 
REMARK    5  A    between atoms: C_12  and  C_13 
REMARK    6  A    between atoms: C_12  and  C_22 
REMARK       I    between atoms: C_13  and  N_14 
REMARK    7  A    between atoms: N_14  and  C_15 
ROOT
HETATM    1  C   UNL     1       5.334  26.877  54.722  1.00  0.00     0.229 C 
HETATM    2  N   UNL     1       5.425  28.092  54.039  1.00  0.00    -0.299 N 
HETATM    3  O   UNL     1       5.585  26.809  55.931  1.00  0.00    -0.273 OA
ENDROOT
BRANCH   2   4
HETATM    4  C   UNL     1       4.833  28.349  52.768  1.00  0.00     0.041 A 
HETATM    5  C   UNL     1       5.648  28.448  51.629  1.00  0.00     0.069 A 
HETATM    6  C   UNL     1       5.054  28.791  50.432  1.00  0.00     0.107 A 
HETATM    7  C   UNL     1       3.705  29.032  50.334  1.00  0.00     0.105 A 
HETATM    8  O   UNL     1       5.696  28.944  49.243  1.00  0.00    -0.323 OA
HETATM    9  O   UNL     1       3.328  29.367  49.071  1.00  0.00    -0.323 OA
HETATM   10  C   UNL     1       2.873  28.943  51.427  1.00  0.00     0.042 A 
HETATM   11  C   UNL     1       4.602  29.340  48.391  1.00  0.00     0.352 A 
HETATM   12  C   UNL     1       3.448  28.607  52.659  1.00  0.00     0.032 A 
ENDBRANCH   2   4
BRANCH   2  13
HETATM   13  C   UNL     1       5.940  29.282  54.763  1.00  0.00     0.225 C 
BRANCH  13  14
HETATM   14  C   UNL     1       7.274  28.978  55.485  1.00  0.00     0.246 C 
HETATM   15  N   UNL     1       7.409  29.416  56.785  1.00  0.00    -0.354 N 
HETATM   16  H   UNL     1       6.499  29.484  57.243  1.00  0.00     0.162 HD
HETATM   17  O   UNL     1       8.109  28.250  54.942  1.00  0.00    -0.271 OA
BRANCH  15  18
HETATM   18  C   UNL     1       8.470  28.968  57.691  1.00  0.00     0.084 C 
HETATM   19  C   UNL     1       9.898  29.033  57.122  1.00  0.00     0.025 C 
HETATM   20  C   UNL     1      10.377  30.464  56.896  1.00  0.00     0.002 C 
HETATM   21  C   UNL     1      10.287  31.284  58.178  1.00  0.00     0.000 C 
HETATM   22  C   UNL     1       8.886  31.235  58.781  1.00  0.00     0.002 C 
HETATM   23  C   UNL     1       8.404  29.796  58.987  1.00  0.00     0.025 C 
ENDBRANCH  15  18
ENDBRANCH  13  14
BRANCH  13  24
HETATM   24  C   UNL     1       4.845  29.992  55.553  1.00  0.00     0.015 A 
HETATM   25  S   UNL     1       4.387  31.584  55.041  1.00  0.00    -0.104 SA
HETATM   26  C   UNL     1       3.156  31.701  56.214  1.00  0.00     0.050 A 
HETATM   27  C   UNL     1       3.082  30.574  56.995  1.00  0.00     0.008 A 
HETATM   28  C   UNL     1       4.055  29.600  56.623  1.00  0.00     0.017 A 
ENDBRANCH  13  24
ENDBRANCH   2  13
BRANCH   1  29
HETATM   29  C   UNL     1       5.015  25.596  53.952  1.00  0.00     0.144 C 
BRANCH  29  30
HETATM   30  C   UNL     1       6.247  24.865  53.493  1.00  0.00    -0.021 A 
HETATM   31  C   UNL     1       7.047  23.920  54.223  1.00  0.00    -0.001 A 
HETATM   32  C   UNL     1       7.008  23.390  55.531  1.00  0.00     0.014 A 
HETATM   33  C   UNL     1       8.058  23.478  53.370  1.00  0.00     0.042 A 
HETATM   34  C   UNL     1       7.979  22.469  55.940  1.00  0.00     0.001 A 
HETATM   35  C   UNL     1       8.975  22.053  55.063  1.00  0.00     0.002 A 
HETATM   36  C   UNL     1       9.031  22.546  53.756  1.00  0.00     0.030 A 
HETATM   37  N   UNL     1       7.882  24.116  52.166  1.00  0.00    -0.365 N 
HETATM   38  H   UNL     1       8.467  23.979  51.354  1.00  0.00     0.165 HD
HETATM   39  C   UNL     1       6.799  24.950  52.227  1.00  0.00     0.097 A 
ENDBRANCH  29  30
ENDBRANCH   1  29
TORSDOF 7
ENDMDL
MODEL 4
REMARK VINA RESULT:      -9.8      2.520      6.763
REMARK  7 active torsions:
REMARK  status: ('A' for Active; 'I' for Inactive)
REMARK    1  A    between atoms: C_8  and  C_9 
REMARK    2  A    between atoms: C_9  and  C_10 
REMARK       I    between atoms: C_10  and  N_11 
REMARK    3  A    between atoms: N_11  and  C_27 
REMARK    4  A    between atoms: N_11  and  C_12 
REMARK    5  A    between atoms: C_12  and  C_13 
REMARK    6  A    between atoms: C_12  and  C_22 
REMARK       I    between atoms: C_13  and  N_14 
REMARK    7  A    between atoms: N_14  and  C_15 
ROOT
HETATM    1  C   UNL     1       7.144  27.878  53.776  1.00  0.00     0.229 C 
HETATM    2  N   UNL     1       7.114  28.288  55.110  1.00  0.00    -0.299 N 
HETATM    3  O   UNL     1       7.950  27.021  53.393  1.00  0.00    -0.273 OA
ENDROOT
BRANCH   2   4
HETATM    4  C   UNL     1       6.028  28.982  55.717  1.00  0.00     0.041 A 
HETATM    5  C   UNL     1       6.105  30.372  55.898  1.00  0.00     0.069 A 
HETATM    6  C   UNL     1       5.078  30.999  56.572  1.00  0.00     0.107 A 
HETATM    7  C   UNL     1       4.000  30.302  57.061  1.00  0.00     0.105 A 
HETATM    8  O   UNL     1       5.003  32.329  56.846  1.00  0.00    -0.323 OA
HETATM    9  O   UNL     1       3.110  31.106  57.704  1.00  0.00    -0.323 OA
HETATM   10  C   UNL     1       3.886  28.940  56.902  1.00  0.00     0.042 A 
HETATM   11  C   UNL     1       3.769  32.386  57.591  1.00  0.00     0.352 A 
HETATM   12  C   UNL     1       4.919  28.273  56.230  1.00  0.00     0.032 A 
ENDBRANCH   2   4
BRANCH   2  13
HETATM   13  C   UNL     1       8.144  27.761  56.043  1.00  0.00     0.225 C 
BRANCH  13  14
HETATM   14  C   UNL     1       7.693  26.436  56.701  1.00  0.00     0.246 C 
HETATM   15  N   UNL     1       7.475  25.356  55.874  1.00  0.00    -0.354 N 
HETATM   16  H   UNL     1       8.042  25.424  55.029  1.00  0.00     0.162 HD
HETATM   17  O   UNL     1       7.673  26.343  57.932  1.00  0.00    -0.271 OA
BRANCH  15  18
HETATM   18  C   UNL     1       7.329  23.978  56.352  1.00  0.00     0.084 C 
HETATM   19  C   UNL     1       6.742  22.983  55.336  1.00  0.00     0.025 C 
HETATM   20  C   UNL     1       7.678  22.721  54.160  1.00  0.00     0.002 C 
HETATM   21  C   UNL     1       9.042  22.236  54.638  1.00  0.00     0.000 C 
HETATM   22  C   UNL     1       9.654  23.192  55.658  1.00  0.00     0.002 C 
HETATM   23  C   UNL     1       8.702  23.466  56.826  1.00  0.00     0.025 C 
ENDBRANCH  15  18
ENDBRANCH  13  14
BRANCH  13  24
HETATM   24  C   UNL     1       8.711  28.852  56.947  1.00  0.00     0.015 A 
HETATM   25  S   UNL     1      10.097  29.727  56.378  1.00  0.00    -0.104 SA
HETATM   26  C   UNL     1      10.111  30.757  57.736  1.00  0.00     0.050 A 
HETATM   27  C   UNL     1       9.103  30.456  58.619  1.00  0.00     0.008 A 
HETATM   28  C   UNL     1       8.308  29.360  58.171  1.00  0.00     0.017 A 
ENDBRANCH  13  24
ENDBRANCH   2  13
BRANCH   1  29
HETATM   29  C   UNL     1       6.239  28.563  52.751  1.00  0.00     0.144 C 
BRANCH  29  30
HETATM   30  C   UNL     1       5.567  27.592  51.820  1.00  0.00    -0.021 A 
HETATM   31  C   UNL     1       5.351  27.717  50.405  1.00  0.00    -0.001 A 
HETATM   32  C   UNL     1       5.629  28.713  49.444  1.00  0.00     0.014 A 
HETATM   33  C   UNL     1       4.727  26.547  49.971  1.00  0.00     0.042 A 
HETATM   34  C   UNL     1       5.260  28.517  48.108  1.00  0.00     0.001 A 
HETATM   35  C   UNL     1       4.637  27.337  47.711  1.00  0.00     0.002 A 
HETATM   36  C   UNL     1       4.364  26.325  48.635  1.00  0.00     0.030 A 
HETATM   37  N   UNL     1       4.576  25.735  51.069  1.00  0.00    -0.365 N 
HETATM   38  H   UNL     1       4.162  24.814  51.047  1.00  0.00     0.165 HD
HETATM   39  C   UNL     1       5.076  26.350  52.184  1.00  0.00     0.097 A 
ENDBRANCH  29  30
ENDBRANCH   1  29
TORSDOF 7
ENDMDL
MODEL 5
REMARK VINA RESULT:      -9.8      2.345      7.116
REMARK  7 active torsions:
REMARK  status: ('A' for Active; 'I' for Inactive)
REMARK    1  A    between atoms: C_8  and  C_9 
REMARK    2  A    between atoms: C_9  and  C_10 
REMARK       I    between atoms: C_10  and  N_11 
REMARK    3  A    between atoms: N_11  and  C_27 
REMARK    4  A    between atoms: N_11  and  C_12 
REMARK    5  A    between atoms: C_12  and  C_13 
REMARK    6  A    between atoms: C_12  and  C_22 
REMARK       I    between atoms: C_13  and  N_14 
REMARK    7  A    between atoms: N_14  and  C_15 
ROOT
HETATM    1  C   UNL     1       5.341  27.849  53.934  1.00  0.00     0.229 C 
HETATM    2  N   UNL     1       6.133  27.008  54.718  1.00  0.00    -0.299 N 
HETATM    3  O   UNL     1       5.137  29.023  54.270  1.00  0.00    -0.273 OA
ENDROOT
BRANCH   2   4
HETATM    4  C   UNL     1       6.710  25.787  54.263  1.00  0.00     0.041 A 
HETATM    5  C   UNL     1       6.627  24.638  55.064  1.00  0.00     0.069 A 
HETATM    6  C   UNL     1       7.276  23.498  54.636  1.00  0.00     0.107 A 
HETATM    7  C   UNL     1       7.989  23.466  53.462  1.00  0.00     0.105 A 
HETATM    8  O   UNL     1       7.310  22.309  55.296  1.00  0.00    -0.323 OA
HETATM    9  O   UNL     1       8.561  22.254  53.235  1.00  0.00    -0.323 OA
HETATM   10  C   UNL     1       8.091  24.572  52.648  1.00  0.00     0.042 A 
HETATM   11  C   UNL     1       8.152  21.534  54.418  1.00  0.00     0.352 A 
HETATM   12  C   UNL     1       7.451  25.747  53.061  1.00  0.00     0.032 A 
ENDBRANCH   2   4
BRANCH   2  13
HETATM   13  C   UNL     1       6.635  27.510  56.024  1.00  0.00     0.225 C 
BRANCH  13  14
HETATM   14  C   UNL     1       5.498  28.125  56.873  1.00  0.00     0.246 C 
HETATM   15  N   UNL     1       5.524  29.488  57.082  1.00  0.00    -0.354 N 
HETATM   16  H   UNL     1       6.006  29.964  56.318  1.00  0.00     0.162 HD
HETATM   17  O   UNL     1       4.545  27.421  57.218  1.00  0.00    -0.271 OA
BRANCH  15  18
HETATM   18  C   UNL     1       4.391  30.255  57.606  1.00  0.00     0.084 C 
HETATM   19  C   UNL     1       4.743  31.318  58.662  1.00  0.00     0.025 C 
HETATM   20  C   UNL     1       5.557  32.473  58.085  1.00  0.00     0.002 C 
HETATM   21  C   UNL     1       4.836  33.122  56.909  1.00  0.00     0.000 C 
HETATM   22  C   UNL     1       4.459  32.097  55.844  1.00  0.00     0.002 C 
HETATM   23  C   UNL     1       3.659  30.931  56.432  1.00  0.00     0.025 C 
ENDBRANCH  15  18
ENDBRANCH  13  14
BRANCH  13  24
HETATM   24  C   UNL     1       7.927  28.307  55.874  1.00  0.00     0.015 A 
HETATM   25  S   UNL     1       8.839  28.637  57.312  1.00  0.00    -0.104 SA
HETATM   26  C   UNL     1      10.090  29.405  56.446  1.00  0.00     0.050 A 
HETATM   27  C   UNL     1       9.838  29.431  55.096  1.00  0.00     0.008 A 
HETATM   28  C   UNL     1       8.596  28.811  54.770  1.00  0.00     0.017 A 
ENDBRANCH  13  24
ENDBRANCH   2  13
BRANCH   1  29
HETATM   29  C   UNL     1       4.636  27.293  52.697  1.00  0.00     0.144 C 
BRANCH  29  30
HETATM   30  C   UNL     1       5.030  27.999  51.429  1.00  0.00    -0.021 A 
HETATM   31  C   UNL     1       4.913  27.534  50.075  1.00  0.00    -0.001 A 
HETATM   32  C   UNL     1       4.458  26.340  49.473  1.00  0.00     0.014 A 
HETATM   33  C   UNL     1       5.368  28.554  49.239  1.00  0.00     0.042 A 
HETATM   34  C   UNL     1       4.494  26.203  48.081  1.00  0.00     0.001 A 
HETATM   35  C   UNL     1       4.957  27.241  47.278  1.00  0.00     0.002 A 
HETATM   36  C   UNL     1       5.398  28.441  47.842  1.00  0.00     0.030 A 
HETATM   37  N   UNL     1       5.740  29.603  50.044  1.00  0.00    -0.365 N 
HETATM   38  H   UNL     1       6.099  30.485  49.706  1.00  0.00     0.165 HD
HETATM   39  C   UNL     1       5.541  29.284  51.359  1.00  0.00     0.097 A 
ENDBRANCH  29  30
ENDBRANCH   1  29
TORSDOF 7
ENDMDL
MODEL 6
REMARK VINA RESULT:      -9.5      2.048      4.947
REMARK  7 active torsions:
REMARK  status: ('A' for Active; 'I' for Inactive)
REMARK    1  A    between atoms: C_8  and  C_9 
REMARK    2  A    between atoms: C_9  and  C_10 
REMARK       I    between atoms: C_10  and  N_11 
REMARK    3  A    between atoms: N_11  and  C_27 
REMARK    4  A    between atoms: N_11  and  C_12 
REMARK    5  A    between atoms: C_12  and  C_13 
REMARK    6  A    between atoms: C_12  and  C_22 
REMARK       I    between atoms: C_13  and  N_14 
REMARK    7  A    between atoms: N_14  and  C_15 
ROOT
HETATM    1  C   UNL     1       5.836  26.865  54.926  1.00  0.00     0.229 C 
HETATM    2  N   UNL     1       6.199  28.195  55.146  1.00  0.00    -0.299 N 
HETATM    3  O   UNL     1       4.798  26.585  54.315  1.00  0.00    -0.273 OA
ENDROOT
BRANCH   2   4
HETATM    4  C   UNL     1       7.509  28.624  55.512  1.00  0.00     0.041 A 
HETATM    5  C   UNL     1       7.743  29.116  56.805  1.00  0.00     0.069 A 
HETATM    6  C   UNL     1       8.997  29.610  57.096  1.00  0.00     0.107 A 
HETATM    7  C   UNL     1      10.005  29.628  56.162  1.00  0.00     0.105 A 
HETATM    8  O   UNL     1       9.387  30.136  58.289  1.00  0.00    -0.323 OA
HETATM    9  O   UNL     1      11.155  30.167  56.649  1.00  0.00    -0.323 OA
HETATM   10  C   UNL     1       9.815  29.153  54.884  1.00  0.00     0.042 A 
HETATM   11  C   UNL     1      10.746  30.516  57.989  1.00  0.00     0.352 A 
HETATM   12  C   UNL     1       8.548  28.654  54.555  1.00  0.00     0.032 A 
ENDBRANCH   2   4
BRANCH   2  13
HETATM   13  C   UNL     1       5.261  29.271  54.734  1.00  0.00     0.225 C 
BRANCH  13  14
HETATM   14  C   UNL     1       4.285  29.644  55.875  1.00  0.00     0.246 C 
HETATM   15  N   UNL     1       4.462  30.865  56.491  1.00  0.00    -0.354 N 
HETATM   16  H   UNL     1       4.902  31.533  55.856  1.00  0.00     0.162 HD
HETATM   17  O   UNL     1       3.313  28.921  56.107  1.00  0.00    -0.271 OA
BRANCH  15  18
HETATM   18  C   UNL     1       3.470  31.486  57.372  1.00  0.00     0.084 C 
HETATM   19  C   UNL     1       3.861  31.564  58.859  1.00  0.00     0.025 C 
HETATM   20  C   UNL     1       5.024  32.519  59.111  1.00  0.00     0.002 C 
HETATM   21  C   UNL     1       4.718  33.914  58.577  1.00  0.00     0.000 C 
HETATM   22  C   UNL     1       4.314  33.877  57.106  1.00  0.00     0.002 C 
HETATM   23  C   UNL     1       3.160  32.903  56.856  1.00  0.00     0.025 C 
ENDBRANCH  15  18
ENDBRANCH  13  14
BRANCH  13  24
HETATM   24  C   UNL     1       4.677  29.023  53.347  1.00  0.00     0.015 A 
HETATM   25  S   UNL     1       5.790  28.752  52.043  1.00  0.00    -0.104 SA
HETATM   26  C   UNL     1       4.539  28.472  50.920  1.00  0.00     0.050 A 
HETATM   27  C   UNL     1       3.297  28.586  51.495  1.00  0.00     0.008 A 
HETATM   28  C   UNL     1       3.377  28.910  52.882  1.00  0.00     0.017 A 
ENDBRANCH  13  24
ENDBRANCH   2  13
BRANCH   1  29
HETATM   29  C   UNL     1       6.676  25.739  55.530  1.00  0.00     0.144 C 
BRANCH  29  30
HETATM   30  C   UNL     1       7.256  24.819  54.491  1.00  0.00    -0.021 A 
HETATM   31  C   UNL     1       7.544  23.416  54.604  1.00  0.00    -0.001 A 
HETATM   32  C   UNL     1       7.433  22.461  55.638  1.00  0.00     0.014 A 
HETATM   33  C   UNL     1       8.030  22.987  53.369  1.00  0.00     0.042 A 
HETATM   34  C   UNL     1       7.828  21.138  55.412  1.00  0.00     0.001 A 
HETATM   35  C   UNL     1       8.311  20.746  54.167  1.00  0.00     0.002 A 
HETATM   36  C   UNL     1       8.416  21.663  53.118  1.00  0.00     0.030 A 
HETATM   37  N   UNL     1       8.033  24.076  52.532  1.00  0.00    -0.365 N 
HETATM   38  H   UNL     1       8.327  24.055  51.566  1.00  0.00     0.165 HD
HETATM   39  C   UNL     1       7.571  25.181  53.193  1.00  0.00     0.097 A 
ENDBRANCH  29  30
ENDBRANCH   1  29
TORSDOF 7
ENDMDL
MODEL 7
REMARK VINA RESULT:      -9.4      6.961     11.450
REMARK  7 active torsions:
REMARK  status: ('A' for Active; 'I' for Inactive)
REMARK    1  A    between atoms: C_8  and  C_9 
REMARK    2  A    between atoms: C_9  and  C_10 
REMARK       I    between atoms: C_10  and  N_11 
REMARK    3  A    between atoms: N_11  and  C_27 
REMARK    4  A    between atoms: N_11  and  C_12 
REMARK    5  A    between atoms: C_12  and  C_13 
REMARK    6  A    between atoms: C_12  and  C_22 
REMARK       I    between atoms: C_13  and  N_14 
REMARK    7  A    between atoms: N_14  and  C_15 
ROOT
HETATM    1  C   UNL     1       3.511  33.168  60.047  1.00  0.00     0.229 C 
HETATM    2  N   UNL     1       4.613  33.368  59.213  1.00  0.00    -0.299 N 
HETATM    3  O   UNL     1       2.486  33.849  59.917  1.00  0.00    -0.273 OA
ENDROOT
BRANCH   2   4
HETATM    4  C   UNL     1       5.676  32.433  59.043  1.00  0.00     0.041 A 
HETATM    5  C   UNL     1       5.479  31.294  58.246  1.00  0.00     0.069 A 
HETATM    6  C   UNL     1       6.495  30.364  58.178  1.00  0.00     0.107 A 
HETATM    7  C   UNL     1       7.676  30.528  58.861  1.00  0.00     0.105 A 
HETATM    8  O   UNL     1       6.463  29.203  57.470  1.00  0.00    -0.323 OA
HETATM    9  O   UNL     1       8.535  29.492  58.669  1.00  0.00    -0.323 OA
HETATM   10  C   UNL     1       7.908  31.632  59.650  1.00  0.00     0.042 A 
HETATM   11  C   UNL     1       7.746  28.641  57.810  1.00  0.00     0.352 A 
HETATM   12  C   UNL     1       6.890  32.590  59.748  1.00  0.00     0.032 A 
ENDBRANCH   2   4
BRANCH   2  13
HETATM   13  C   UNL     1       4.580  34.490  58.240  1.00  0.00     0.225 C 
BRANCH  13  14
HETATM   14  C   UNL     1       4.050  35.791  58.888  1.00  0.00     0.246 C 
HETATM   15  N   UNL     1       4.635  36.200  60.067  1.00  0.00    -0.354 N 
HETATM   16  H   UNL     1       5.597  35.865  60.132  1.00  0.00     0.162 HD
HETATM   17  O   UNL     1       3.233  36.487  58.278  1.00  0.00    -0.271 OA
BRANCH  15  18
HETATM   18  C   UNL     1       4.456  37.534  60.648  1.00  0.00     0.084 C 
HETATM   19  C   UNL     1       3.256  37.686  61.599  1.00  0.00     0.025 C 
HETATM   20  C   UNL     1       3.425  36.893  62.891  1.00  0.00     0.002 C 
HETATM   21  C   UNL     1       4.713  37.276  63.609  1.00  0.00     0.000 C 
HETATM   22  C   UNL     1       5.927  37.149  62.695  1.00  0.00     0.002 C 
HETATM   23  C   UNL     1       5.744  37.932  61.391  1.00  0.00     0.025 C 
ENDBRANCH  15  18
ENDBRANCH  13  14
BRANCH  13  24
HETATM   24  C   UNL     1       3.991  34.068  56.898  1.00  0.00     0.015 A 
HETATM   25  S   UNL     1       4.904  34.435  55.469  1.00  0.00    -0.104 SA
HETATM   26  C   UNL     1       3.785  33.651  54.449  1.00  0.00     0.050 A 
HETATM   27  C   UNL     1       2.730  33.125  55.153  1.00  0.00     0.008 A 
HETATM   28  C   UNL     1       2.844  33.372  56.553  1.00  0.00     0.017 A 
ENDBRANCH  13  24
ENDBRANCH   2  13
BRANCH   1  29
HETATM   29  C   UNL     1       3.602  32.165  61.197  1.00  0.00     0.144 C 
BRANCH  29  30
HETATM   30  C   UNL     1       3.832  32.822  62.531  1.00  0.00    -0.021 A 
HETATM   31  C   UNL     1       5.070  32.988  63.241  1.00  0.00    -0.001 A 
HETATM   32  C   UNL     1       6.409  32.611  63.001  1.00  0.00     0.014 A 
HETATM   33  C   UNL     1       4.791  33.694  64.412  1.00  0.00     0.042 A 
HETATM   34  C   UNL     1       7.402  32.928  63.935  1.00  0.00     0.001 A 
HETATM   35  C   UNL     1       7.086  33.631  65.093  1.00  0.00     0.002 A 
HETATM   36  C   UNL     1       5.773  34.034  65.352  1.00  0.00     0.030 A 
HETATM   37  N   UNL     1       3.442  33.957  64.416  1.00  0.00    -0.365 N 
HETATM   38  H   UNL     1       2.961  34.468  65.142  1.00  0.00     0.165 HD
HETATM   39  C   UNL     1       2.856  33.440  63.293  1.00  0.00     0.097 A 
ENDBRANCH  29  30
ENDBRANCH   1  29
TORSDOF 7
ENDMDL
MODEL 8
REMARK VINA RESULT:      -9.1      7.938     11.728
REMARK  7 active torsions:
REMARK  status: ('A' for Active; 'I' for Inactive)
REMARK    1  A    between atoms: C_8  and  C_9 
REMARK    2  A    between atoms: C_9  and  C_10 
REMARK       I    between atoms: C_10  and  N_11 
REMARK    3  A    between atoms: N_11  and  C_27 
REMARK    4  A    between atoms: N_11  and  C_12 
REMARK    5  A    between atoms: C_12  and  C_13 
REMARK    6  A    between atoms: C_12  and  C_22 
REMARK       I    between atoms: C_13  and  N_14 
REMARK    7  A    between atoms: N_14  and  C_15 
ROOT
HETATM    1  C   UNL     1       4.640  33.837  58.496  1.00  0.00     0.229 C 
HETATM    2  N   UNL     1       3.876  34.796  59.164  1.00  0.00    -0.299 N 
HETATM    3  O   UNL     1       5.191  34.102  57.420  1.00  0.00    -0.273 OA
ENDROOT
BRANCH   2   4
HETATM    4  C   UNL     1       3.503  34.717  60.537  1.00  0.00     0.041 A 
HETATM    5  C   UNL     1       4.486  34.839  61.532  1.00  0.00     0.069 A 
HETATM    6  C   UNL     1       4.107  34.665  62.846  1.00  0.00     0.107 A 
HETATM    7  C   UNL     1       2.808  34.381  63.195  1.00  0.00     0.105 A 
HETATM    8  O   UNL     1       4.931  34.733  63.927  1.00  0.00    -0.323 OA
HETATM    9  O   UNL     1       2.652  34.235  64.538  1.00  0.00    -0.323 OA
HETATM   10  C   UNL     1       1.816  34.257  62.250  1.00  0.00     0.042 A 
HETATM   11  C   UNL     1       4.008  34.428  64.993  1.00  0.00     0.352 A 
HETATM   12  C   UNL     1       2.172  34.418  60.905  1.00  0.00     0.032 A 
ENDBRANCH   2   4
BRANCH   2  13
HETATM   13  C   UNL     1       3.639  36.107  58.506  1.00  0.00     0.225 C 
BRANCH  13  14
HETATM   14  C   UNL     1       3.560  37.256  59.538  1.00  0.00     0.246 C 
HETATM   15  N   UNL     1       4.735  37.896  59.870  1.00  0.00    -0.354 N 
HETATM   16  H   UNL     1       5.408  37.844  59.104  1.00  0.00     0.162 HD
HETATM   17  O   UNL     1       2.458  37.655  59.924  1.00  0.00    -0.271 OA
BRANCH  15  18
HETATM   18  C   UNL     1       4.795  39.168  60.595  1.00  0.00     0.084 C 
HETATM   19  C   UNL     1       4.462  39.092  62.095  1.00  0.00     0.025 C 
HETATM   20  C   UNL     1       5.510  38.323  62.893  1.00  0.00     0.002 C 
HETATM   21  C   UNL     1       6.899  38.918  62.696  1.00  0.00     0.000 C 
HETATM   22  C   UNL     1       7.264  39.021  61.218  1.00  0.00     0.002 C 
HETATM   23  C   UNL     1       6.198  39.777  60.419  1.00  0.00     0.025 C 
ENDBRANCH  15  18
ENDBRANCH  13  14
BRANCH  13  24
HETATM   24  C   UNL     1       2.549  36.026  57.441  1.00  0.00     0.015 A 
HETATM   25  S   UNL     1       2.913  36.663  55.869  1.00  0.00    -0.104 SA
HETATM   26  C   UNL     1       1.408  36.181  55.231  1.00  0.00     0.050 A 
HETATM   27  C   UNL     1       0.627  35.558  56.172  1.00  0.00     0.008 A 
HETATM   28  C   UNL     1       1.277  35.478  57.440  1.00  0.00     0.017 A 
ENDBRANCH  13  24
ENDBRANCH   2  13
BRANCH   1  29
HETATM   29  C   UNL     1       4.720  32.413  59.046  1.00  0.00     0.144 C 
BRANCH  29  30
HETATM   30  C   UNL     1       6.126  31.879  59.088  1.00  0.00    -0.021 A 
HETATM   31  C   UNL     1       7.071  31.941  60.168  1.00  0.00    -0.001 A 
HETATM   32  C   UNL     1       7.060  32.500  61.465  1.00  0.00     0.014 A 
HETATM   33  C   UNL     1       8.225  31.272  59.756  1.00  0.00     0.042 A 
HETATM   34  C   UNL     1       8.191  32.391  62.282  1.00  0.00     0.001 A 
HETATM   35  C   UNL     1       9.325  31.719  61.837  1.00  0.00     0.002 A 
HETATM   36  C   UNL     1       9.361  31.140  60.565  1.00  0.00     0.030 A 
HETATM   37  N   UNL     1       7.994  30.811  58.483  1.00  0.00    -0.365 N 
HETATM   38  H   UNL     1       8.656  30.278  57.938  1.00  0.00     0.165 HD
HETATM   39  C   UNL     1       6.739  31.167  58.071  1.00  0.00     0.097 A 
ENDBRANCH  29  30
ENDBRANCH   1  29
TORSDOF 7
ENDMDL
MODEL 9
REMARK VINA RESULT:      -8.9      2.889      6.234
REMARK  7 active torsions:
REMARK  status: ('A' for Active; 'I' for Inactive)
REMARK    1  A    between atoms: C_8  and  C_9 
REMARK    2  A    between atoms: C_9  and  C_10 
REMARK       I    between atoms: C_10  and  N_11 
REMARK    3  A    between atoms: N_11  and  C_27 
REMARK    4  A    between atoms: N_11  and  C_12 
REMARK    5  A    between atoms: C_12  and  C_13 
REMARK    6  A    between atoms: C_12  and  C_22 
REMARK       I    between atoms: C_13  and  N_14 
REMARK    7  A    between atoms: N_14  and  C_15 
ROOT
HETATM    1  C   UNL     1       3.587  28.782  52.196  1.00  0.00     0.229 C 
HETATM    2  N   UNL     1       4.595  28.049  51.567  1.00  0.00    -0.299 N 
HETATM    3  O   UNL     1       2.938  29.631  51.573  1.00  0.00    -0.273 OA
ENDROOT
BRANCH   2   4
HETATM    4  C   UNL     1       5.146  26.836  52.073  1.00  0.00     0.041 A 
HETATM    5  C   UNL     1       6.530  26.612  51.989  1.00  0.00     0.069 A 
HETATM    6  C   UNL     1       7.018  25.391  52.402  1.00  0.00     0.107 A 
HETATM    7  C   UNL     1       6.192  24.406  52.887  1.00  0.00     0.105 A 
HETATM    8  O   UNL     1       8.322  25.005  52.373  1.00  0.00    -0.323 OA
HETATM    9  O   UNL     1       6.872  23.277  53.225  1.00  0.00    -0.323 OA
HETATM   10  C   UNL     1       4.831  24.588  52.988  1.00  0.00     0.042 A 
HETATM   11  C   UNL     1       8.219  23.654  52.866  1.00  0.00     0.352 A 
HETATM   12  C   UNL     1       4.304  25.815  52.567  1.00  0.00     0.032 A 
ENDBRANCH   2   4
BRANCH   2  13
HETATM   13  C   UNL     1       4.955  28.385  50.165  1.00  0.00     0.225 C 
BRANCH  13  14
HETATM   14  C   UNL     1       5.293  29.886  50.007  1.00  0.00     0.246 C 
HETATM   15  N   UNL     1       4.479  30.639  49.188  1.00  0.00    -0.354 N 
HETATM   16  H   UNL     1       3.539  30.244  49.145  1.00  0.00     0.162 HD
HETATM   17  O   UNL     1       6.175  30.390  50.708  1.00  0.00    -0.271 OA
BRANCH  15  18
HETATM   18  C   UNL     1       4.483  32.104  49.157  1.00  0.00     0.084 C 
HETATM   19  C   UNL     1       5.471  32.743  48.164  1.00  0.00     0.025 C 
HETATM   20  C   UNL     1       5.093  32.483  46.709  1.00  0.00     0.002 C 
HETATM   21  C   UNL     1       3.675  32.957  46.414  1.00  0.00     0.000 C 
HETATM   22  C   UNL     1       2.665  32.353  47.385  1.00  0.00     0.002 C 
HETATM   23  C   UNL     1       3.060  32.601  48.845  1.00  0.00     0.025 C 
ENDBRANCH  15  18
ENDBRANCH  13  14
BRANCH  13  24
HETATM   24  C   UNL     1       3.994  27.758  49.160  1.00  0.00     0.015 A 
HETATM   25  S   UNL     1       4.660  26.678  47.977  1.00  0.00    -0.104 SA
HETATM   26  C   UNL     1       3.129  26.317  47.320  1.00  0.00     0.050 A 
HETATM   27  C   UNL     1       2.122  26.995  47.961  1.00  0.00     0.008 A 
HETATM   28  C   UNL     1       2.619  27.828  49.008  1.00  0.00     0.017 A 
ENDBRANCH  13  24
ENDBRANCH   2  13
BRANCH   1  29
HETATM   29  C   UNL     1       3.344  28.607  53.695  1.00  0.00     0.144 C 
BRANCH  29  30
HETATM   30  C   UNL     1       4.360  29.324  54.542  1.00  0.00    -0.021 A 
HETATM   31  C   UNL     1       5.427  28.761  55.322  1.00  0.00    -0.001 A 
HETATM   32  C   UNL     1       5.871  27.449  55.594  1.00  0.00     0.014 A 
HETATM   33  C   UNL     1       6.130  29.820  55.898  1.00  0.00     0.042 A 
HETATM   34  C   UNL     1       6.970  27.243  56.436  1.00  0.00     0.001 A 
HETATM   35  C   UNL     1       7.646  28.323  56.994  1.00  0.00     0.002 A 
HETATM   36  C   UNL     1       7.242  29.635  56.731  1.00  0.00     0.030 A 
HETATM   37  N   UNL     1       5.526  30.982  55.482  1.00  0.00    -0.365 N 
HETATM   38  H   UNL     1       5.834  31.909  55.738  1.00  0.00     0.165 HD
HETATM   39  C   UNL     1       4.464  30.698  54.668  1.00  0.00     0.097 A 
ENDBRANCH  29  30
ENDBRANCH   1  29
TORSDOF 7
ENDMDL
MODEL 10
REMARK VINA RESULT:      -8.8      3.991      9.396
REMARK  7 active torsions:
REMARK  status: ('A' for Active; 'I' for Inactive)
REMARK    1  A    between atoms: C_8  and  C_9 
REMARK    2  A    between atoms: C_9  and  C_10 
REMARK       I    between atoms: C_10  and  N_11 
REMARK    3  A    between atoms: N_11  and  C_27 
REMARK    4  A    between atoms: N_11  and  C_12 
REMARK    5  A    between atoms: C_12  and  C_13 
REMARK    6  A    between atoms: C_12  and  C_22 
REMARK       I    between atoms: C_13  and  N_14 
REMARK    7  A    between atoms: N_14  and  C_15 
ROOT
HETATM    1  C   UNL     1       5.290  30.912  49.870  1.00  0.00     0.229 C 
HETATM    2  N   UNL     1       4.360  30.058  50.466  1.00  0.00    -0.299 N 
HETATM    3  O   UNL     1       6.122  31.521  50.555  1.00  0.00    -0.273 OA
ENDROOT
BRANCH   2   4
HETATM    4  C   UNL     1       3.613  29.064  49.769  1.00  0.00     0.041 A 
HETATM    5  C   UNL     1       4.280  27.973  49.190  1.00  0.00     0.069 A 
HETATM    6  C   UNL     1       3.541  27.080  48.443  1.00  0.00     0.107 A 
HETATM    7  C   UNL     1       2.188  27.234  48.259  1.00  0.00     0.105 A 
HETATM    8  O   UNL     1       4.030  25.983  47.804  1.00  0.00    -0.323 OA
HETATM    9  O   UNL     1       1.655  26.254  47.481  1.00  0.00    -0.323 OA
HETATM   10  C   UNL     1       1.498  28.289  48.812  1.00  0.00     0.042 A 
HETATM   11  C   UNL     1       2.835  25.482  47.170  1.00  0.00     0.352 A 
HETATM   12  C   UNL     1       2.224  29.219  49.568  1.00  0.00     0.032 A 
ENDBRANCH   2   4
BRANCH   2  13
HETATM   13  C   UNL     1       4.308  29.980  51.949  1.00  0.00     0.225 C 
BRANCH  13  14
HETATM   14  C   UNL     1       4.069  28.531  52.436  1.00  0.00     0.246 C 
HETATM   15  N   UNL     1       5.160  27.690  52.493  1.00  0.00    -0.354 N 
HETATM   16  H   UNL     1       6.021  28.220  52.636  1.00  0.00     0.162 HD
HETATM   17  O   UNL     1       2.963  28.211  52.880  1.00  0.00    -0.271 OA
BRANCH  15  18
HETATM   18  C   UNL     1       5.162  26.402  53.192  1.00  0.00     0.084 C 
HETATM   19  C   UNL     1       5.471  25.175  52.317  1.00  0.00     0.025 C 
HETATM   20  C   UNL     1       6.910  25.163  51.808  1.00  0.00     0.002 C 
HETATM   21  C   UNL     1       7.903  25.247  52.960  1.00  0.00     0.000 C 
HETATM   22  C   UNL     1       7.622  26.447  53.860  1.00  0.00     0.002 C 
HETATM   23  C   UNL     1       6.172  26.464  54.352  1.00  0.00     0.025 C 
ENDBRANCH  15  18
ENDBRANCH  13  14
BRANCH  13  24
HETATM   24  C   UNL     1       3.450  31.087  52.553  1.00  0.00     0.015 A 
HETATM   25  S   UNL     1       3.630  31.409  54.248  1.00  0.00    -0.104 SA
HETATM   26  C   UNL     1       2.536  32.716  54.203  1.00  0.00     0.050 A 
HETATM   27  C   UNL     1       2.026  32.916  52.944  1.00  0.00     0.008 A 
HETATM   28  C   UNL     1       2.542  31.978  52.002  1.00  0.00     0.017 A 
ENDBRANCH  13  24
ENDBRANCH   2  13
BRANCH   1  29
HETATM   29  C   UNL     1       5.223  31.176  48.366  1.00  0.00     0.144 C 
BRANCH  29  30
HETATM   30  C   UNL     1       5.063  32.634  48.033  1.00  0.00    -0.021 A 
HETATM   31  C   UNL     1       6.089  33.620  47.832  1.00  0.00    -0.001 A 
HETATM   32  C   UNL     1       7.499  33.611  47.894  1.00  0.00     0.014 A 
HETATM   33  C   UNL     1       5.458  34.820  47.501  1.00  0.00     0.042 A 
HETATM   34  C   UNL     1       8.216  34.787  47.650  1.00  0.00     0.001 A 
HETATM   35  C   UNL     1       7.554  35.967  47.325  1.00  0.00     0.002 A 
HETATM   36  C   UNL     1       6.160  36.004  47.238  1.00  0.00     0.030 A 
HETATM   37  N   UNL     1       4.105  34.579  47.490  1.00  0.00    -0.365 N 
HETATM   38  H   UNL     1       3.403  35.270  47.270  1.00  0.00     0.165 HD
HETATM   39  C   UNL     1       3.856  33.272  47.806  1.00  0.00     0.097 A 
ENDBRANCH  29  30
ENDBRANCH   1  29
TORSDOF 7
ENDMDL
