MODEL 1
REMARK VINA RESULT:     -11.3      0.000      0.000
REMARK  7 active torsions:
REMARK  status: ('A' for Active; 'I' for Inactive)
REMARK    1  A    between atoms: C_4  and  C_5 
REMARK    2  A    between atoms: C_5  and  C_6 
REMARK       I    between atoms: C_6  and  N_7 
REMARK    3  A    between atoms: N_7  and  C_8 
REMARK    4  A    between atoms: C_11  and  C_12 
REMARK       I    between atoms: C_12  and  N_13 
REMARK    5  A    between atoms: N_13  and  C_14 
REMARK    6  A    between atoms: C_15  and  C_16 
REMARK       I    between atoms: C_16  and  N_17 
REMARK    7  A    between atoms: N_20  and  C_21 
ROOT
HETATM    1  C   UNL     1       6.340  30.465  56.778  1.00  0.00     0.256 C 
HETATM    2  N   UNL     1       5.000  30.424  56.379  1.00  0.00    -0.322 N 
HETATM    3  O   UNL     1       7.274  30.027  56.108  1.00  0.00    -0.267 OA
HETATM    4  H   UNL     1       4.364  30.240  57.142  1.00  0.00     0.169 HD
ENDROOT
BRANCH   2   5
HETATM    5  C   UNL     1       4.687  29.794  55.147  1.00  0.00     0.050 C 
HETATM    6  C   UNL     1       4.507  28.402  54.987  1.00  0.00     0.059 C 
HETATM    7  C   UNL     1       3.817  27.964  53.845  1.00  0.00     0.019 C 
HETATM    8  C   UNL     1       3.497  28.843  52.805  1.00  0.00     0.001 C 
HETATM    9  C   UNL     1       3.841  30.185  52.903  1.00  0.00     0.002 C 
HETATM   10  C   UNL     1       4.423  30.664  54.074  1.00  0.00     0.030 C 
BRANCH   6  11
HETATM   11  C   UNL     1       5.051  27.398  55.975  1.00  0.00     0.256 C 
HETATM   12  N   UNL     1       5.651  26.197  55.540  1.00  0.00    -0.345 N 
HETATM   13  C   UNL     1       5.910  25.796  54.147  1.00  0.00     0.146 C 
HETATM   14  C   UNL     1       5.698  25.104  56.527  1.00  0.00     0.146 C 
HETATM   15  C   UNL     1       7.055  24.775  53.978  1.00  0.00     0.143 C 
HETATM   16  N   UNL     1       6.856  23.649  54.911  1.00  0.00    -0.378 N 
HETATM   17  C   UNL     1       6.846  24.102  56.313  1.00  0.00     0.143 C 
HETATM   18  O   UNL     1       5.012  27.642  57.181  1.00  0.00    -0.267 OA
BRANCH  16  19
HETATM   19  C   UNL     1       7.522  22.468  54.578  1.00  0.00     0.030 A 
HETATM   20  C   UNL     1       7.960  21.530  55.522  1.00  0.00     0.029 A 
HETATM   21  C   UNL     1       8.580  20.337  55.132  1.00  0.00     0.002 A 
HETATM   22  C   UNL     1       8.770  20.053  53.783  1.00  0.00     0.000 A 
HETATM   23  C   UNL     1       8.340  20.964  52.825  1.00  0.00     0.002 A 
HETATM   24  C   UNL     1       7.727  22.156  53.222  1.00  0.00     0.029 A 
ENDBRANCH  16  19
ENDBRANCH   6  11
ENDBRANCH   2   5
BRANCH   1  25
HETATM   25  C   UNL     1       6.619  30.926  58.174  1.00  0.00     0.032 A 
HETATM   26  C   UNL     1       7.709  30.486  58.932  1.00  0.00     0.019 A 
HETATM   27  C   UNL     1       7.972  31.051  60.191  1.00  0.00     0.030 A 
HETATM   28  C   UNL     1       7.139  32.040  60.717  1.00  0.00     0.034 A 
HETATM   29  C   UNL     1       6.012  32.430  59.986  1.00  0.00     0.030 A 
HETATM   30  C   UNL     1       5.759  31.884  58.726  1.00  0.00     0.019 A 
BRANCH  28  31
HETATM   31  N   UNL     1       7.365  32.705  61.939  1.00  0.00    -0.327 N 
HETATM   32  C   UNL     1       6.659  32.568  63.123  1.00  0.00     0.226 C 
HETATM   33  O   UNL     1       5.655  31.884  63.299  1.00  0.00    -0.273 OA
HETATM   34  H   UNL     1       8.159  33.332  61.957  1.00  0.00     0.169 HD
BRANCH  32  35
HETATM   35  C   UNL     1       7.286  33.350  64.270  1.00  0.00     0.141 C 
BRANCH  35  36
HETATM   36  C   UNL     1       6.314  34.286  64.939  1.00  0.00    -0.050 A 
HETATM   37  C   UNL     1       5.982  34.105  66.289  1.00  0.00     0.007 A 
HETATM   38  C   UNL     1       5.081  34.964  66.917  1.00  0.00     0.001 A 
HETATM   39  C   UNL     1       4.497  36.007  66.203  1.00  0.00     0.000 A 
HETATM   40  C   UNL     1       4.814  36.193  64.858  1.00  0.00     0.001 A 
HETATM   41  C   UNL     1       5.718  35.337  64.227  1.00  0.00     0.007 A 
ENDBRANCH  35  36
ENDBRANCH  32  35
ENDBRANCH  28  31
ENDBRANCH   1  25
TORSDOF 7
ENDMDL
MODEL 2
REMARK VINA RESULT:     -11.1      2.076     12.200
REMARK  7 active torsions:
REMARK  status: ('A' for Active; 'I' for Inactive)
REMARK    1  A    between atoms: C_4  and  C_5 
REMARK    2  A    between atoms: C_5  and  C_6 
REMARK       I    between atoms: C_6  and  N_7 
REMARK    3  A    between atoms: N_7  and  C_8 
REMARK    4  A    between atoms: C_11  and  C_12 
REMARK       I    between atoms: C_12  and  N_13 
REMARK    5  A    between atoms: N_13  and  C_14 
REMARK    6  A    between atoms: C_15  and  C_16 
REMARK       I    between atoms: C_16  and  N_17 
REMARK    7  A    between atoms: N_20  and  C_21 
ROOT
HETATM    1  C   UNL     1       6.061  30.044  57.105  1.00  0.00     0.256 C 
HETATM    2  N   UNL     1       5.199  30.372  58.156  1.00  0.00    -0.322 N 
HETATM    3  O   UNL     1       6.388  30.823  56.211  1.00  0.00    -0.267 OA
HETATM    4  H   UNL     1       4.585  29.612  58.417  1.00  0.00     0.169 HD
ENDROOT
BRANCH   2   5
HETATM    5  C   UNL     1       4.622  31.667  58.171  1.00  0.00     0.050 C 
HETATM    6  C   UNL     1       5.228  32.802  58.754  1.00  0.00     0.059 C 
HETATM    7  C   UNL     1       4.762  34.065  58.353  1.00  0.00     0.019 C 
HETATM    8  C   UNL     1       3.613  34.202  57.567  1.00  0.00     0.001 C 
HETATM    9  C   UNL     1       2.924  33.072  57.147  1.00  0.00     0.002 C 
HETATM   10  C   UNL     1       3.432  31.808  57.436  1.00  0.00     0.030 C 
BRANCH   6  11
HETATM   11  C   UNL     1       6.318  32.692  59.794  1.00  0.00     0.256 C 
HETATM   12  N   UNL     1       6.073  33.012  61.146  1.00  0.00    -0.345 N 
HETATM   13  C   UNL     1       4.779  33.391  61.740  1.00  0.00     0.146 C 
HETATM   14  C   UNL     1       7.257  33.342  61.958  1.00  0.00     0.146 C 
HETATM   15  C   UNL     1       4.667  33.115  63.254  1.00  0.00     0.143 C 
HETATM   16  N   UNL     1       5.844  33.670  63.949  1.00  0.00    -0.378 N 
HETATM   17  C   UNL     1       7.096  33.064  63.463  1.00  0.00     0.143 C 
HETATM   18  O   UNL     1       7.432  32.277  59.473  1.00  0.00    -0.267 OA
BRANCH  16  19
HETATM   19  C   UNL     1       5.682  33.901  65.316  1.00  0.00     0.030 A 
HETATM   20  C   UNL     1       4.435  33.952  65.953  1.00  0.00     0.029 A 
HETATM   21  C   UNL     1       4.329  34.137  67.337  1.00  0.00     0.002 A 
HETATM   22  C   UNL     1       5.474  34.268  68.117  1.00  0.00     0.000 A 
HETATM   23  C   UNL     1       6.724  34.217  67.511  1.00  0.00     0.002 A 
HETATM   24  C   UNL     1       6.822  34.037  66.128  1.00  0.00     0.029 A 
ENDBRANCH  16  19
ENDBRANCH   6  11
ENDBRANCH   2   5
BRANCH   1  25
HETATM   25  C   UNL     1       6.474  28.610  56.986  1.00  0.00     0.032 A 
HETATM   26  C   UNL     1       7.520  28.041  57.718  1.00  0.00     0.019 A 
HETATM   27  C   UNL     1       7.773  26.662  57.639  1.00  0.00     0.030 A 
HETATM   28  C   UNL     1       7.004  25.841  56.812  1.00  0.00     0.034 A 
HETATM   29  C   UNL     1       6.001  26.424  56.031  1.00  0.00     0.030 A 
HETATM   30  C   UNL     1       5.735  27.792  56.121  1.00  0.00     0.019 A 
BRANCH  28  31
HETATM   31  N   UNL     1       7.146  24.442  56.723  1.00  0.00    -0.327 N 
HETATM   32  C   UNL     1       8.312  23.701  56.816  1.00  0.00     0.226 C 
HETATM   33  O   UNL     1       9.452  24.143  56.925  1.00  0.00    -0.273 OA
HETATM   34  H   UNL     1       6.287  23.920  56.611  1.00  0.00     0.169 HD
BRANCH  32  35
HETATM   35  C   UNL     1       8.051  22.200  56.810  1.00  0.00     0.141 C 
BRANCH  35  36
HETATM   36  C   UNL     1       8.188  21.588  55.440  1.00  0.00    -0.050 A 
HETATM   37  C   UNL     1       7.773  22.303  54.308  1.00  0.00     0.007 A 
HETATM   38  C   UNL     1       7.892  21.745  53.036  1.00  0.00     0.001 A 
HETATM   39  C   UNL     1       8.419  20.465  52.882  1.00  0.00     0.000 A 
HETATM   40  C   UNL     1       8.828  19.741  54.001  1.00  0.00     0.001 A 
HETATM   41  C   UNL     1       8.714  20.299  55.275  1.00  0.00     0.007 A 
ENDBRANCH  35  36
ENDBRANCH  32  35
ENDBRANCH  28  31
ENDBRANCH   1  25
TORSDOF 7
ENDMDL
MODEL 3
REMARK VINA RESULT:     -10.9      2.064     11.948
REMARK  7 active torsions:
REMARK  status: ('A' for Active; 'I' for Inactive)
REMARK    1  A    between atoms: C_4  and  C_5 
REMARK    2  A    between atoms: C_5  and  C_6 
REMARK       I    between atoms: C_6  and  N_7 
REMARK    3  A    between atoms: N_7  and  C_8 
REMARK    4  A    between atoms: C_11  and  C_12 
REMARK       I    between atoms: C_12  and  N_13 
REMARK    5  A    between atoms: N_13  and  C_14 
REMARK    6  A    between atoms: C_15  and  C_16 
REMARK       I    between atoms: C_16  and  N_17 
REMARK    7  A    between atoms: N_20  and  C_21 
ROOT
HETATM    1  C   UNL     1       4.369  30.085  56.445  1.00  0.00     0.256 C 
HETATM    2  N   UNL     1       4.920  31.332  56.134  1.00  0.00    -0.322 N 
HETATM    3  O   UNL     1       3.357  29.929  57.127  1.00  0.00    -0.267 OA
HETATM    4  H   UNL     1       5.931  31.330  56.129  1.00  0.00     0.169 HD
ENDROOT
BRANCH   2   5
HETATM    5  C   UNL     1       4.306  32.491  56.675  1.00  0.00     0.050 C 
HETATM    6  C   UNL     1       4.823  33.234  57.759  1.00  0.00     0.059 C 
HETATM    7  C   UNL     1       4.358  34.549  57.925  1.00  0.00     0.019 C 
HETATM    8  C   UNL     1       3.281  35.040  57.181  1.00  0.00     0.001 C 
HETATM    9  C   UNL     1       2.666  34.229  56.236  1.00  0.00     0.002 C 
HETATM   10  C   UNL     1       3.182  32.963  55.973  1.00  0.00     0.030 C 
BRANCH   6  11
HETATM   11  C   UNL     1       5.818  32.653  58.735  1.00  0.00     0.256 C 
HETATM   12  N   UNL     1       5.751  32.954  60.112  1.00  0.00    -0.345 N 
HETATM   13  C   UNL     1       4.716  33.754  60.789  1.00  0.00     0.146 C 
HETATM   14  C   UNL     1       6.995  32.759  60.878  1.00  0.00     0.146 C 
HETATM   15  C   UNL     1       4.550  33.442  62.292  1.00  0.00     0.143 C 
HETATM   16  N   UNL     1       5.869  33.466  62.952  1.00  0.00    -0.378 N 
HETATM   17  C   UNL     1       6.783  32.465  62.374  1.00  0.00     0.143 C 
HETATM   18  O   UNL     1       6.682  31.870  58.338  1.00  0.00    -0.267 OA
BRANCH  16  19
HETATM   19  C   UNL     1       5.845  33.651  64.335  1.00  0.00     0.030 A 
HETATM   20  C   UNL     1       6.997  33.785  65.122  1.00  0.00     0.029 A 
HETATM   21  C   UNL     1       6.917  34.020  66.500  1.00  0.00     0.002 A 
HETATM   22  C   UNL     1       5.677  34.131  67.122  1.00  0.00     0.000 A 
HETATM   23  C   UNL     1       4.518  34.007  66.365  1.00  0.00     0.002 A 
HETATM   24  C   UNL     1       4.606  33.768  64.990  1.00  0.00     0.029 A 
ENDBRANCH  16  19
ENDBRANCH   6  11
ENDBRANCH   2   5
BRANCH   1  25
HETATM   25  C   UNL     1       5.160  28.876  56.055  1.00  0.00     0.032 A 
HETATM   26  C   UNL     1       4.983  27.615  56.633  1.00  0.00     0.019 A 
HETATM   27  C   UNL     1       5.680  26.502  56.134  1.00  0.00     0.030 A 
HETATM   28  C   UNL     1       6.577  26.639  55.073  1.00  0.00     0.034 A 
HETATM   29  C   UNL     1       6.802  27.913  54.542  1.00  0.00     0.030 A 
HETATM   30  C   UNL     1       6.097  29.018  55.023  1.00  0.00     0.019 A 
BRANCH  28  31
HETATM   31  N   UNL     1       7.267  25.569  54.470  1.00  0.00    -0.327 N 
HETATM   32  C   UNL     1       6.751  24.592  53.633  1.00  0.00     0.226 C 
HETATM   33  O   UNL     1       5.574  24.445  53.321  1.00  0.00    -0.273 OA
HETATM   34  H   UNL     1       8.262  25.533  54.645  1.00  0.00     0.169 HD
BRANCH  32  35
HETATM   35  C   UNL     1       7.832  23.681  53.065  1.00  0.00     0.141 C 
BRANCH  35  36
HETATM   36  C   UNL     1       8.003  22.412  53.858  1.00  0.00    -0.050 A 
HETATM   37  C   UNL     1       7.677  22.388  55.221  1.00  0.00     0.007 A 
HETATM   38  C   UNL     1       7.835  21.219  55.966  1.00  0.00     0.001 A 
HETATM   39  C   UNL     1       8.327  20.066  55.359  1.00  0.00     0.000 A 
HETATM   40  C   UNL     1       8.662  20.081  54.006  1.00  0.00     0.001 A 
HETATM   41  C   UNL     1       8.501  21.248  53.257  1.00  0.00     0.007 A 
ENDBRANCH  35  36
ENDBRANCH  32  35
ENDBRANCH  28  31
ENDBRANCH   1  25
TORSDOF 7
ENDMDL
MODEL 4
REMARK VINA RESULT:     -10.7      3.178      6.431
REMARK  7 active torsions:
REMARK  status: ('A' for Active; 'I' for Inactive)
REMARK    1  A    between atoms: C_4  and  C_5 
REMARK    2  A    between atoms: C_5  and  C_6 
REMARK       I    between atoms: C_6  and  N_7 
REMARK    3  A    between atoms: N_7  and  C_8 
REMARK    4  A    between atoms: C_11  and  C_12 
REMARK       I    between atoms: C_12  and  N_13 
REMARK    5  A    between atoms: N_13  and  C_14 
REMARK    6  A    between atoms: C_15  and  C_16 
REMARK       I    between atoms: C_16  and  N_17 
REMARK    7  A    between atoms: N_20  and  C_21 
ROOT
HETATM    1  C   UNL     1       7.907  27.825  55.279  1.00  0.00     0.256 C 
HETATM    2  N   UNL     1       7.244  26.615  55.509  1.00  0.00    -0.322 N 
HETATM    3  O   UNL     1       8.361  28.166  54.188  1.00  0.00    -0.267 OA
HETATM    4  H   UNL     1       7.456  26.211  56.411  1.00  0.00     0.169 HD
ENDROOT
BRANCH   2   5
HETATM    5  C   UNL     1       7.128  25.698  54.433  1.00  0.00     0.050 C 
HETATM    6  C   UNL     1       6.321  25.907  53.292  1.00  0.00     0.059 C 
HETATM    7  C   UNL     1       6.604  25.142  52.149  1.00  0.00     0.019 C 
HETATM    8  C   UNL     1       7.507  24.075  52.191  1.00  0.00     0.001 C 
HETATM    9  C   UNL     1       8.164  23.771  53.376  1.00  0.00     0.002 C 
HETATM   10  C   UNL     1       7.986  24.586  54.491  1.00  0.00     0.030 C 
BRANCH   6  11
HETATM   11  C   UNL     1       5.173  26.888  53.283  1.00  0.00     0.256 C 
HETATM   12  N   UNL     1       4.695  27.441  52.076  1.00  0.00    -0.345 N 
HETATM   13  C   UNL     1       5.145  27.105  50.714  1.00  0.00     0.146 C 
HETATM   14  C   UNL     1       3.945  28.704  52.195  1.00  0.00     0.146 C 
HETATM   15  C   UNL     1       4.105  27.388  49.610  1.00  0.00     0.143 C 
HETATM   16  N   UNL     1       3.583  28.760  49.759  1.00  0.00    -0.378 N 
HETATM   17  C   UNL     1       2.930  28.951  51.066  1.00  0.00     0.143 C 
HETATM   18  O   UNL     1       4.611  27.184  54.337  1.00  0.00    -0.267 OA
BRANCH  16  19
HETATM   19  C   UNL     1       3.000  29.308  48.616  1.00  0.00     0.030 A 
HETATM   20  C   UNL     1       1.616  29.419  48.425  1.00  0.00     0.029 A 
HETATM   21  C   UNL     1       1.082  30.023  47.281  1.00  0.00     0.002 A 
HETATM   22  C   UNL     1       1.926  30.538  46.301  1.00  0.00     0.000 A 
HETATM   23  C   UNL     1       3.303  30.446  46.467  1.00  0.00     0.002 A 
HETATM   24  C   UNL     1       3.828  29.836  47.610  1.00  0.00     0.029 A 
ENDBRANCH  16  19
ENDBRANCH   6  11
ENDBRANCH   2   5
BRANCH   1  25
HETATM   25  C   UNL     1       8.216  28.669  56.475  1.00  0.00     0.032 A 
HETATM   26  C   UNL     1       9.470  29.238  56.719  1.00  0.00     0.019 A 
HETATM   27  C   UNL     1       9.652  30.115  57.801  1.00  0.00     0.030 A 
HETATM   28  C   UNL     1       8.596  30.412  58.665  1.00  0.00     0.034 A 
HETATM   29  C   UNL     1       7.361  29.789  58.457  1.00  0.00     0.030 A 
HETATM   30  C   UNL     1       7.172  28.932  57.371  1.00  0.00     0.019 A 
BRANCH  28  31
HETATM   31  N   UNL     1       8.674  31.328  59.732  1.00  0.00    -0.327 N 
HETATM   32  C   UNL     1       8.951  31.059  61.063  1.00  0.00     0.226 C 
HETATM   33  O   UNL     1       9.112  29.951  61.565  1.00  0.00    -0.273 OA
HETATM   34  H   UNL     1       8.543  32.301  59.487  1.00  0.00     0.169 HD
BRANCH  32  35
HETATM   35  C   UNL     1       9.086  32.325  61.898  1.00  0.00     0.141 C 
BRANCH  35  36
HETATM   36  C   UNL     1       7.857  32.620  62.717  1.00  0.00    -0.050 A 
HETATM   37  C   UNL     1       7.986  33.075  64.037  1.00  0.00     0.007 A 
HETATM   38  C   UNL     1       6.854  33.348  64.805  1.00  0.00     0.001 A 
HETATM   39  C   UNL     1       5.583  33.161  64.266  1.00  0.00     0.000 A 
HETATM   40  C   UNL     1       5.443  32.701  62.958  1.00  0.00     0.001 A 
HETATM   41  C   UNL     1       6.573  32.432  62.185  1.00  0.00     0.007 A 
ENDBRANCH  35  36
ENDBRANCH  32  35
ENDBRANCH  28  31
ENDBRANCH   1  25
TORSDOF 7
ENDMDL
MODEL 5
REMARK VINA RESULT:     -10.7      7.849     11.986
REMARK  7 active torsions:
REMARK  status: ('A' for Active; 'I' for Inactive)
REMARK    1  A    between atoms: C_4  and  C_5 
REMARK    2  A    between atoms: C_5  and  C_6 
REMARK       I    between atoms: C_6  and  N_7 
REMARK    3  A    between atoms: N_7  and  C_8 
REMARK    4  A    between atoms: C_11  and  C_12 
REMARK       I    between atoms: C_12  and  N_13 
REMARK    5  A    between atoms: N_13  and  C_14 
REMARK    6  A    between atoms: C_15  and  C_16 
REMARK       I    between atoms: C_16  and  N_17 
REMARK    7  A    between atoms: N_20  and  C_21 
ROOT
HETATM    1  C   UNL     1       3.907  27.999  49.400  1.00  0.00     0.256 C 
HETATM    2  N   UNL     1       2.562  28.160  49.748  1.00  0.00    -0.322 N 
HETATM    3  O   UNL     1       4.341  28.113  48.255  1.00  0.00    -0.267 OA
HETATM    4  H   UNL     1       2.257  27.515  50.464  1.00  0.00     0.169 HD
ENDROOT
BRANCH   2   5
HETATM    5  C   UNL     1       1.628  28.424  48.713  1.00  0.00     0.050 C 
HETATM    6  C   UNL     1       1.289  29.716  48.256  1.00  0.00     0.059 C 
HETATM    7  C   UNL     1       0.685  29.820  46.992  1.00  0.00     0.019 C 
HETATM    8  C   UNL     1       0.248  28.687  46.299  1.00  0.00     0.001 C 
HETATM    9  C   UNL     1       0.432  27.425  46.849  1.00  0.00     0.002 C 
HETATM   10  C   UNL     1       1.130  27.290  48.046  1.00  0.00     0.030 C 
BRANCH   6  11
HETATM   11  C   UNL     1       1.529  30.955  49.085  1.00  0.00     0.256 C 
HETATM   12  N   UNL     1       2.718  31.703  48.953  1.00  0.00    -0.345 N 
HETATM   13  C   UNL     1       3.804  31.466  47.986  1.00  0.00     0.146 C 
HETATM   14  C   UNL     1       3.072  32.564  50.096  1.00  0.00     0.146 C 
HETATM   15  C   UNL     1       4.655  32.713  47.663  1.00  0.00     0.143 C 
HETATM   16  N   UNL     1       5.085  33.359  48.918  1.00  0.00    -0.378 N 
HETATM   17  C   UNL     1       3.932  33.786  49.730  1.00  0.00     0.143 C 
HETATM   18  O   UNL     1       0.660  31.351  49.862  1.00  0.00    -0.267 OA
BRANCH  16  19
HETATM   19  C   UNL     1       6.195  34.197  48.813  1.00  0.00     0.030 A 
HETATM   20  C   UNL     1       6.409  35.312  49.635  1.00  0.00     0.029 A 
HETATM   21  C   UNL     1       7.566  36.092  49.521  1.00  0.00     0.002 A 
HETATM   22  C   UNL     1       8.540  35.769  48.581  1.00  0.00     0.000 A 
HETATM   23  C   UNL     1       8.356  34.666  47.756  1.00  0.00     0.002 A 
HETATM   24  C   UNL     1       7.196  33.894  47.872  1.00  0.00     0.029 A 
ENDBRANCH  16  19
ENDBRANCH   6  11
ENDBRANCH   2   5
BRANCH   1  25
HETATM   25  C   UNL     1       4.830  27.500  50.466  1.00  0.00     0.032 A 
HETATM   26  C   UNL     1       5.323  28.300  51.501  1.00  0.00     0.019 A 
HETATM   27  C   UNL     1       6.092  27.734  52.531  1.00  0.00     0.030 A 
HETATM   28  C   UNL     1       6.397  26.371  52.527  1.00  0.00     0.034 A 
HETATM   29  C   UNL     1       5.959  25.587  51.456  1.00  0.00     0.030 A 
HETATM   30  C   UNL     1       5.179  26.143  50.440  1.00  0.00     0.019 A 
BRANCH  28  31
HETATM   31  N   UNL     1       7.103  25.710  53.551  1.00  0.00    -0.327 N 
HETATM   32  C   UNL     1       6.588  25.128  54.698  1.00  0.00     0.226 C 
HETATM   33  O   UNL     1       5.417  25.147  55.063  1.00  0.00    -0.273 OA
HETATM   34  H   UNL     1       8.102  25.624  53.412  1.00  0.00     0.169 HD
BRANCH  32  35
HETATM   35  C   UNL     1       7.648  24.385  55.502  1.00  0.00     0.141 C 
BRANCH  35  36
HETATM   36  C   UNL     1       7.835  22.962  55.048  1.00  0.00    -0.050 A 
HETATM   37  C   UNL     1       7.929  21.931  55.994  1.00  0.00     0.007 A 
HETATM   38  C   UNL     1       8.107  20.610  55.585  1.00  0.00     0.001 A 
HETATM   39  C   UNL     1       8.200  20.305  54.229  1.00  0.00     0.000 A 
HETATM   40  C   UNL     1       8.115  21.323  53.280  1.00  0.00     0.001 A 
HETATM   41  C   UNL     1       7.933  22.646  53.686  1.00  0.00     0.007 A 
ENDBRANCH  35  36
ENDBRANCH  32  35
ENDBRANCH  28  31
ENDBRANCH   1  25
TORSDOF 7
ENDMDL
MODEL 6
REMARK VINA RESULT:     -10.7      3.599     12.908
REMARK  7 active torsions:
REMARK  status: ('A' for Active; 'I' for Inactive)
REMARK    1  A    between atoms: C_4  and  C_5 
REMARK    2  A    between atoms: C_5  and  C_6 
REMARK       I    between atoms: C_6  and  N_7 
REMARK    3  A    between atoms: N_7  and  C_8 
REMARK    4  A    between atoms: C_11  and  C_12 
REMARK       I    between atoms: C_12  and  N_13 
REMARK    5  A    between atoms: N_13  and  C_14 
REMARK    6  A    between atoms: C_15  and  C_16 
REMARK       I    between atoms: C_16  and  N_17 
REMARK    7  A    between atoms: N_20  and  C_21 
ROOT
HETATM    1  C   UNL     1       7.625  31.674  59.859  1.00  0.00     0.256 C 
HETATM    2  N   UNL     1       6.916  31.375  61.027  1.00  0.00    -0.322 N 
HETATM    3  O   UNL     1       8.259  32.713  59.684  1.00  0.00    -0.267 OA
HETATM    4  H   UNL     1       6.048  30.888  60.851  1.00  0.00     0.169 HD
ENDROOT
BRANCH   2   5
HETATM    5  C   UNL     1       6.881  32.349  62.058  1.00  0.00     0.050 C 
HETATM    6  C   UNL     1       5.782  33.198  62.315  1.00  0.00     0.059 C 
HETATM    7  C   UNL     1       5.714  33.808  63.578  1.00  0.00     0.019 C 
HETATM    8  C   UNL     1       6.786  33.747  64.475  1.00  0.00     0.001 C 
HETATM    9  C   UNL     1       7.937  33.051  64.131  1.00  0.00     0.002 C 
HETATM   10  C   UNL     1       7.982  32.343  62.933  1.00  0.00     0.030 C 
BRANCH   6  11
HETATM   11  C   UNL     1       4.719  33.480  61.279  1.00  0.00     0.256 C 
HETATM   12  N   UNL     1       4.285  34.797  61.019  1.00  0.00    -0.345 N 
HETATM   13  C   UNL     1       4.825  36.035  61.608  1.00  0.00     0.146 C 
HETATM   14  C   UNL     1       2.960  34.929  60.387  1.00  0.00     0.146 C 
HETATM   15  C   UNL     1       4.600  37.300  60.752  1.00  0.00     0.143 C 
HETATM   16  N   UNL     1       3.182  37.382  60.352  1.00  0.00    -0.378 N 
HETATM   17  C   UNL     1       2.775  36.211  59.556  1.00  0.00     0.143 C 
HETATM   18  O   UNL     1       4.248  32.556  60.617  1.00  0.00    -0.267 OA
BRANCH  16  19
HETATM   19  C   UNL     1       2.736  38.651  59.979  1.00  0.00     0.030 A 
HETATM   20  C   UNL     1       2.510  39.037  58.651  1.00  0.00     0.029 A 
HETATM   21  C   UNL     1       2.014  40.307  58.333  1.00  0.00     0.002 A 
HETATM   22  C   UNL     1       1.727  41.220  59.343  1.00  0.00     0.000 A 
HETATM   23  C   UNL     1       1.937  40.863  60.670  1.00  0.00     0.002 A 
HETATM   24  C   UNL     1       2.438  39.594  60.979  1.00  0.00     0.029 A 
ENDBRANCH  16  19
ENDBRANCH   6  11
ENDBRANCH   2   5
BRANCH   1  25
HETATM   25  C   UNL     1       7.460  30.737  58.705  1.00  0.00     0.032 A 
HETATM   26  C   UNL     1       8.250  29.600  58.510  1.00  0.00     0.019 A 
HETATM   27  C   UNL     1       7.960  28.704  57.467  1.00  0.00     0.030 A 
HETATM   28  C   UNL     1       6.897  28.944  56.595  1.00  0.00     0.034 A 
HETATM   29  C   UNL     1       6.150  30.116  56.752  1.00  0.00     0.030 A 
HETATM   30  C   UNL     1       6.424  30.999  57.798  1.00  0.00     0.019 A 
BRANCH  28  31
HETATM   31  N   UNL     1       6.496  28.068  55.567  1.00  0.00    -0.327 N 
HETATM   32  C   UNL     1       7.178  27.761  54.401  1.00  0.00     0.226 C 
HETATM   33  O   UNL     1       8.233  28.258  54.020  1.00  0.00    -0.273 OA
HETATM   34  H   UNL     1       5.622  27.583  55.719  1.00  0.00     0.169 HD
BRANCH  32  35
HETATM   35  C   UNL     1       6.492  26.664  53.596  1.00  0.00     0.141 C 
BRANCH  35  36
HETATM   36  C   UNL     1       7.154  25.321  53.756  1.00  0.00    -0.050 A 
HETATM   37  C   UNL     1       7.403  24.524  52.630  1.00  0.00     0.007 A 
HETATM   38  C   UNL     1       8.012  23.277  52.767  1.00  0.00     0.001 A 
HETATM   39  C   UNL     1       8.372  22.810  54.029  1.00  0.00     0.000 A 
HETATM   40  C   UNL     1       8.123  23.591  55.157  1.00  0.00     0.001 A 
HETATM   41  C   UNL     1       7.517  24.841  55.022  1.00  0.00     0.007 A 
ENDBRANCH  35  36
ENDBRANCH  32  35
ENDBRANCH  28  31
ENDBRANCH   1  25
TORSDOF 7
ENDMDL
MODEL 7
REMARK VINA RESULT:     -10.7      2.104      3.495
REMARK  7 active torsions:
REMARK  status: ('A' for Active; 'I' for Inactive)
REMARK    1  A    between atoms: C_4  and  C_5 
REMARK    2  A    between atoms: C_5  and  C_6 
REMARK       I    between atoms: C_6  and  N_7 
REMARK    3  A    between atoms: N_7  and  C_8 
REMARK    4  A    between atoms: C_11  and  C_12 
REMARK       I    between atoms: C_12  and  N_13 
REMARK    5  A    between atoms: N_13  and  C_14 
REMARK    6  A    between atoms: C_15  and  C_16 
REMARK       I    between atoms: C_16  and  N_17 
REMARK    7  A    between atoms: N_20  and  C_21 
ROOT
HETATM    1  C   UNL     1       4.777  29.491  54.770  1.00  0.00     0.256 C 
HETATM    2  N   UNL     1       5.021  30.177  53.576  1.00  0.00    -0.322 N 
HETATM    3  O   UNL     1       3.892  28.649  54.914  1.00  0.00    -0.267 OA
HETATM    4  H   UNL     1       5.285  31.142  53.719  1.00  0.00     0.169 HD
ENDROOT
BRANCH   2   5
HETATM    5  C   UNL     1       4.167  29.926  52.471  1.00  0.00     0.050 C 
HETATM    6  C   UNL     1       4.347  28.872  51.549  1.00  0.00     0.059 C 
HETATM    7  C   UNL     1       3.240  28.495  50.771  1.00  0.00     0.019 C 
HETATM    8  C   UNL     1       2.066  29.255  50.757  1.00  0.00     0.001 C 
HETATM    9  C   UNL     1       1.972  30.396  51.542  1.00  0.00     0.002 C 
HETATM   10  C   UNL     1       3.012  30.726  52.407  1.00  0.00     0.030 C 
BRANCH   6  11
HETATM   11  C   UNL     1       5.675  28.178  51.363  1.00  0.00     0.256 C 
HETATM   12  N   UNL     1       5.964  26.966  52.026  1.00  0.00    -0.345 N 
HETATM   13  C   UNL     1       5.047  26.186  52.876  1.00  0.00     0.146 C 
HETATM   14  C   UNL     1       7.393  26.636  52.176  1.00  0.00     0.146 C 
HETATM   15  C   UNL     1       5.393  24.686  52.979  1.00  0.00     0.143 C 
HETATM   16  N   UNL     1       6.821  24.528  53.316  1.00  0.00    -0.378 N 
HETATM   17  C   UNL     1       7.690  25.130  52.289  1.00  0.00     0.143 C 
HETATM   18  O   UNL     1       6.510  28.648  50.591  1.00  0.00    -0.267 OA
BRANCH  16  19
HETATM   19  C   UNL     1       7.173  23.298  53.874  1.00  0.00     0.030 A 
HETATM   20  C   UNL     1       7.552  22.181  53.119  1.00  0.00     0.029 A 
HETATM   21  C   UNL     1       7.945  20.984  53.731  1.00  0.00     0.002 A 
HETATM   22  C   UNL     1       7.974  20.883  55.118  1.00  0.00     0.000 A 
HETATM   23  C   UNL     1       7.607  21.977  55.892  1.00  0.00     0.002 A 
HETATM   24  C   UNL     1       7.211  23.167  55.274  1.00  0.00     0.029 A 
ENDBRANCH  16  19
ENDBRANCH   6  11
ENDBRANCH   2   5
BRANCH   1  25
HETATM   25  C   UNL     1       5.540  29.937  55.978  1.00  0.00     0.032 A 
HETATM   26  C   UNL     1       5.328  31.160  56.621  1.00  0.00     0.019 A 
HETATM   27  C   UNL     1       6.001  31.458  57.818  1.00  0.00     0.030 A 
HETATM   28  C   UNL     1       6.908  30.552  58.371  1.00  0.00     0.034 A 
HETATM   29  C   UNL     1       7.168  29.359  57.690  1.00  0.00     0.030 A 
HETATM   30  C   UNL     1       6.487  29.052  56.510  1.00  0.00     0.019 A 
BRANCH  28  31
HETATM   31  N   UNL     1       7.575  30.742  59.598  1.00  0.00    -0.327 N 
HETATM   32  C   UNL     1       8.580  31.651  59.886  1.00  0.00     0.226 C 
HETATM   33  O   UNL     1       9.122  32.415  59.093  1.00  0.00    -0.273 OA
HETATM   34  H   UNL     1       7.255  30.165  60.365  1.00  0.00     0.169 HD
BRANCH  32  35
HETATM   35  C   UNL     1       8.957  31.655  61.361  1.00  0.00     0.141 C 
BRANCH  35  36
HETATM   36  C   UNL     1       8.020  32.480  62.203  1.00  0.00    -0.050 A 
HETATM   37  C   UNL     1       7.056  33.291  61.587  1.00  0.00     0.007 A 
HETATM   38  C   UNL     1       6.185  34.062  62.357  1.00  0.00     0.001 A 
HETATM   39  C   UNL     1       6.272  34.038  63.747  1.00  0.00     0.000 A 
HETATM   40  C   UNL     1       7.232  33.241  64.369  1.00  0.00     0.001 A 
HETATM   41  C   UNL     1       8.103  32.465  63.602  1.00  0.00     0.007 A 
ENDBRANCH  35  36
ENDBRANCH  32  35
ENDBRANCH  28  31
ENDBRANCH   1  25
TORSDOF 7
ENDMDL
MODEL 8
REMARK VINA RESULT:     -10.6      3.714      7.089
REMARK  7 active torsions:
REMARK  status: ('A' for Active; 'I' for Inactive)
REMARK    1  A    between atoms: C_4  and  C_5 
REMARK    2  A    between atoms: C_5  and  C_6 
REMARK       I    between atoms: C_6  and  N_7 
REMARK    3  A    between atoms: N_7  and  C_8 
REMARK    4  A    between atoms: C_11  and  C_12 
REMARK       I    between atoms: C_12  and  N_13 
REMARK    5  A    between atoms: N_13  and  C_14 
REMARK    6  A    between atoms: C_15  and  C_16 
REMARK       I    between atoms: C_16  and  N_17 
REMARK    7  A    between atoms: N_20  and  C_21 
ROOT
HETATM    1  C   UNL     1       6.696  28.334  54.951  1.00  0.00     0.256 C 
HETATM    2  N   UNL     1       5.430  27.739  54.926  1.00  0.00    -0.322 N 
HETATM    3  O   UNL     1       7.533  28.213  54.058  1.00  0.00    -0.267 OA
HETATM    4  H   UNL     1       5.126  27.414  55.834  1.00  0.00     0.169 HD
ENDROOT
BRANCH   2   5
HETATM    5  C   UNL     1       5.103  26.903  53.828  1.00  0.00     0.050 C 
HETATM    6  C   UNL     1       4.691  27.375  52.562  1.00  0.00     0.059 C 
HETATM    7  C   UNL     1       4.793  26.491  51.475  1.00  0.00     0.019 C 
HETATM    8  C   UNL     1       5.096  25.139  51.662  1.00  0.00     0.001 C 
HETATM    9  C   UNL     1       5.326  24.651  52.941  1.00  0.00     0.002 C 
HETATM   10  C   UNL     1       5.343  25.531  54.021  1.00  0.00     0.030 C 
BRANCH   6  11
HETATM   11  C   UNL     1       4.130  28.762  52.360  1.00  0.00     0.256 C 
HETATM   12  N   UNL     1       4.606  29.600  51.330  1.00  0.00    -0.345 N 
HETATM   13  C   UNL     1       5.595  29.249  50.296  1.00  0.00     0.146 C 
HETATM   14  C   UNL     1       4.372  31.044  51.509  1.00  0.00     0.146 C 
HETATM   15  C   UNL     1       5.496  30.089  49.005  1.00  0.00     0.143 C 
HETATM   16  N   UNL     1       5.455  31.523  49.349  1.00  0.00    -0.378 N 
HETATM   17  C   UNL     1       4.293  31.844  50.197  1.00  0.00     0.143 C 
HETATM   18  O   UNL     1       3.212  29.163  53.076  1.00  0.00    -0.267 OA
BRANCH  16  19
HETATM   19  C   UNL     1       5.814  32.397  48.322  1.00  0.00     0.030 A 
HETATM   20  C   UNL     1       6.854  33.331  48.424  1.00  0.00     0.029 A 
HETATM   21  C   UNL     1       7.206  34.152  47.345  1.00  0.00     0.002 A 
HETATM   22  C   UNL     1       6.528  34.050  46.135  1.00  0.00     0.000 A 
HETATM   23  C   UNL     1       5.495  33.129  46.005  1.00  0.00     0.002 A 
HETATM   24  C   UNL     1       5.145  32.317  47.088  1.00  0.00     0.029 A 
ENDBRANCH  16  19
ENDBRANCH   6  11
ENDBRANCH   2   5
BRANCH   1  25
HETATM   25  C   UNL     1       7.100  29.020  56.217  1.00  0.00     0.032 A 
HETATM   26  C   UNL     1       6.343  30.023  56.831  1.00  0.00     0.019 A 
HETATM   27  C   UNL     1       6.727  30.539  58.079  1.00  0.00     0.030 A 
HETATM   28  C   UNL     1       7.881  30.079  58.717  1.00  0.00     0.034 A 
HETATM   29  C   UNL     1       8.672  29.124  58.070  1.00  0.00     0.030 A 
HETATM   30  C   UNL     1       8.283  28.597  56.837  1.00  0.00     0.019 A 
BRANCH  28  31
HETATM   31  N   UNL     1       8.304  30.493  59.996  1.00  0.00    -0.327 N 
HETATM   32  C   UNL     1       8.896  31.695  60.346  1.00  0.00     0.226 C 
HETATM   33  O   UNL     1       9.225  32.597  59.581  1.00  0.00    -0.273 OA
HETATM   34  H   UNL     1       8.121  29.844  60.750  1.00  0.00     0.169 HD
BRANCH  32  35
HETATM   35  C   UNL     1       9.085  31.836  61.851  1.00  0.00     0.141 C 
BRANCH  35  36
HETATM   36  C   UNL     1       7.994  32.642  62.505  1.00  0.00    -0.050 A 
HETATM   37  C   UNL     1       6.998  33.239  61.720  1.00  0.00     0.007 A 
HETATM   38  C   UNL     1       5.984  33.990  62.315  1.00  0.00     0.001 A 
HETATM   39  C   UNL     1       5.961  34.159  63.698  1.00  0.00     0.000 A 
HETATM   40  C   UNL     1       6.951  33.576  64.487  1.00  0.00     0.001 A 
HETATM   41  C   UNL     1       7.964  32.820  63.895  1.00  0.00     0.007 A 
ENDBRANCH  35  36
ENDBRANCH  32  35
ENDBRANCH  28  31
ENDBRANCH   1  25
TORSDOF 7
ENDMDL
MODEL 9
REMARK VINA RESULT:     -10.4      4.660     12.039
REMARK  7 active torsions:
REMARK  status: ('A' for Active; 'I' for Inactive)
REMARK    1  A    between atoms: C_4  and  C_5 
REMARK    2  A    between atoms: C_5  and  C_6 
REMARK       I    between atoms: C_6  and  N_7 
REMARK    3  A    between atoms: N_7  and  C_8 
REMARK    4  A    between atoms: C_11  and  C_12 
REMARK       I    between atoms: C_12  and  N_13 
REMARK    5  A    between atoms: N_13  and  C_14 
REMARK    6  A    between atoms: C_15  and  C_16 
REMARK       I    between atoms: C_16  and  N_17 
REMARK    7  A    between atoms: N_20  and  C_21 
ROOT
HETATM    1  C   UNL     1       5.400  25.760  51.583  1.00  0.00     0.256 C 
HETATM    2  N   UNL     1       6.574  26.120  52.251  1.00  0.00    -0.322 N 
HETATM    3  O   UNL     1       4.708  24.787  51.878  1.00  0.00    -0.267 OA
HETATM    4  H   UNL     1       7.289  26.478  51.633  1.00  0.00     0.169 HD
ENDROOT
BRANCH   2   5
HETATM    5  C   UNL     1       7.029  25.286  53.305  1.00  0.00     0.050 C 
HETATM    6  C   UNL     1       6.527  25.325  54.625  1.00  0.00     0.059 C 
HETATM    7  C   UNL     1       6.760  24.206  55.441  1.00  0.00     0.019 C 
HETATM    8  C   UNL     1       7.624  23.181  55.042  1.00  0.00     0.001 C 
HETATM    9  C   UNL     1       8.251  23.246  53.805  1.00  0.00     0.002 C 
HETATM   10  C   UNL     1       7.946  24.288  52.932  1.00  0.00     0.030 C 
BRANCH   6  11
HETATM   11  C   UNL     1       5.790  26.523  55.174  1.00  0.00     0.256 C 
HETATM   12  N   UNL     1       6.430  27.446  56.027  1.00  0.00    -0.345 N 
HETATM   13  C   UNL     1       7.850  27.444  56.421  1.00  0.00     0.146 C 
HETATM   14  C   UNL     1       5.546  28.266  56.875  1.00  0.00     0.146 C 
HETATM   15  C   UNL     1       8.397  28.823  56.845  1.00  0.00     0.143 C 
HETATM   16  N   UNL     1       7.490  29.433  57.836  1.00  0.00    -0.378 N 
HETATM   17  C   UNL     1       6.137  29.625  57.286  1.00  0.00     0.143 C 
HETATM   18  O   UNL     1       4.622  26.728  54.844  1.00  0.00    -0.267 OA
BRANCH  16  19
HETATM   19  C   UNL     1       8.054  30.433  58.631  1.00  0.00     0.030 A 
HETATM   20  C   UNL     1       7.329  31.182  59.568  1.00  0.00     0.029 A 
HETATM   21  C   UNL     1       7.953  32.140  60.376  1.00  0.00     0.002 A 
HETATM   22  C   UNL     1       9.322  32.365  60.268  1.00  0.00     0.000 A 
HETATM   23  C   UNL     1      10.066  31.633  59.350  1.00  0.00     0.002 A 
HETATM   24  C   UNL     1       9.435  30.682  58.543  1.00  0.00     0.029 A 
ENDBRANCH  16  19
ENDBRANCH   6  11
ENDBRANCH   2   5
BRANCH   1  25
HETATM   25  C   UNL     1       5.066  26.520  50.338  1.00  0.00     0.032 A 
HETATM   26  C   UNL     1       4.351  25.976  49.266  1.00  0.00     0.019 A 
HETATM   27  C   UNL     1       3.975  26.785  48.181  1.00  0.00     0.030 A 
HETATM   28  C   UNL     1       4.327  28.135  48.141  1.00  0.00     0.034 A 
HETATM   29  C   UNL     1       5.099  28.661  49.183  1.00  0.00     0.030 A 
HETATM   30  C   UNL     1       5.459  27.863  50.272  1.00  0.00     0.019 A 
BRANCH  28  31
HETATM   31  N   UNL     1       3.936  29.032  47.127  1.00  0.00    -0.327 N 
HETATM   32  C   UNL     1       2.998  30.048  47.208  1.00  0.00     0.226 C 
HETATM   33  O   UNL     1       2.283  30.306  48.172  1.00  0.00    -0.273 OA
HETATM   34  H   UNL     1       4.424  28.939  46.246  1.00  0.00     0.169 HD
BRANCH  32  35
HETATM   35  C   UNL     1       2.946  30.896  45.945  1.00  0.00     0.141 C 
BRANCH  35  36
HETATM   36  C   UNL     1       4.110  31.844  45.828  1.00  0.00    -0.050 A 
HETATM   37  C   UNL     1       4.804  32.247  46.978  1.00  0.00     0.007 A 
HETATM   38  C   UNL     1       5.882  33.127  46.882  1.00  0.00     0.001 A 
HETATM   39  C   UNL     1       6.272  33.620  45.639  1.00  0.00     0.000 A 
HETATM   40  C   UNL     1       5.585  33.233  44.490  1.00  0.00     0.001 A 
HETATM   41  C   UNL     1       4.508  32.349  44.582  1.00  0.00     0.007 A 
ENDBRANCH  35  36
ENDBRANCH  32  35
ENDBRANCH  28  31
ENDBRANCH   1  25
TORSDOF 7
ENDMDL
MODEL 10
REMARK VINA RESULT:     -10.3      2.406     12.059
REMARK  7 active torsions:
REMARK  status: ('A' for Active; 'I' for Inactive)
REMARK    1  A    between atoms: C_4  and  C_5 
REMARK    2  A    between atoms: C_5  and  C_6 
REMARK       I    between atoms: C_6  and  N_7 
REMARK    3  A    between atoms: N_7  and  C_8 
REMARK    4  A    between atoms: C_11  and  C_12 
REMARK       I    between atoms: C_12  and  N_13 
REMARK    5  A    between atoms: N_13  and  C_14 
REMARK    6  A    between atoms: C_15  and  C_16 
REMARK       I    between atoms: C_16  and  N_17 
REMARK    7  A    between atoms: N_20  and  C_21 
ROOT
HETATM    1  C   UNL     1       4.356  32.013  55.931  1.00  0.00     0.256 C 
HETATM    2  N   UNL     1       3.659  32.205  57.128  1.00  0.00    -0.322 N 
HETATM    3  O   UNL     1       4.853  32.923  55.269  1.00  0.00    -0.267 OA
HETATM    4  H   UNL     1       2.867  31.584  57.230  1.00  0.00     0.169 HD
ENDROOT
BRANCH   2   5
HETATM    5  C   UNL     1       3.467  33.533  57.587  1.00  0.00     0.050 C 
HETATM    6  C   UNL     1       4.337  34.202  58.477  1.00  0.00     0.059 C 
HETATM    7  C   UNL     1       4.262  35.603  58.526  1.00  0.00     0.019 C 
HETATM    8  C   UNL     1       3.237  36.302  57.881  1.00  0.00     0.001 C 
HETATM    9  C   UNL     1       2.281  35.609  57.151  1.00  0.00     0.002 C 
HETATM   10  C   UNL     1       2.400  34.230  56.993  1.00  0.00     0.030 C 
BRANCH   6  11
HETATM   11  C   UNL     1       5.301  33.462  59.373  1.00  0.00     0.256 C 
HETATM   12  N   UNL     1       5.285  33.646  60.772  1.00  0.00    -0.345 N 
HETATM   13  C   UNL     1       4.332  34.463  61.542  1.00  0.00     0.146 C 
HETATM   14  C   UNL     1       6.524  33.288  61.486  1.00  0.00     0.146 C 
HETATM   15  C   UNL     1       4.170  34.036  63.016  1.00  0.00     0.143 C 
HETATM   16  N   UNL     1       5.499  33.899  63.641  1.00  0.00    -0.378 N 
HETATM   17  C   UNL     1       6.318  32.883  62.956  1.00  0.00     0.143 C 
HETATM   18  O   UNL     1       6.091  32.651  58.888  1.00  0.00    -0.267 OA
BRANCH  16  19
HETATM   19  C   UNL     1       5.518  33.965  65.035  1.00  0.00     0.030 A 
HETATM   20  C   UNL     1       6.693  33.980  65.798  1.00  0.00     0.029 A 
HETATM   21  C   UNL     1       6.657  34.097  67.193  1.00  0.00     0.002 A 
HETATM   22  C   UNL     1       5.440  34.209  67.856  1.00  0.00     0.000 A 
HETATM   23  C   UNL     1       4.258  34.201  67.124  1.00  0.00     0.002 A 
HETATM   24  C   UNL     1       4.301  34.078  65.732  1.00  0.00     0.029 A 
ENDBRANCH  16  19
ENDBRANCH   6  11
ENDBRANCH   2   5
BRANCH   1  25
HETATM   25  C   UNL     1       4.348  30.633  55.352  1.00  0.00     0.032 A 
HETATM   26  C   UNL     1       4.190  30.365  53.989  1.00  0.00     0.019 A 
HETATM   27  C   UNL     1       4.310  29.051  53.506  1.00  0.00     0.030 A 
HETATM   28  C   UNL     1       4.563  27.991  54.378  1.00  0.00     0.034 A 
HETATM   29  C   UNL     1       4.654  28.253  55.749  1.00  0.00     0.030 A 
HETATM   30  C   UNL     1       4.553  29.560  56.230  1.00  0.00     0.019 A 
BRANCH  28  31
HETATM   31  N   UNL     1       4.762  26.656  53.973  1.00  0.00    -0.327 N 
HETATM   32  C   UNL     1       5.967  25.993  53.800  1.00  0.00     0.226 C 
HETATM   33  O   UNL     1       7.089  26.479  53.905  1.00  0.00    -0.273 OA
HETATM   34  H   UNL     1       3.923  26.112  53.822  1.00  0.00     0.169 HD
BRANCH  32  35
HETATM   35  C   UNL     1       5.779  24.514  53.487  1.00  0.00     0.141 C 
BRANCH  35  36
HETATM   36  C   UNL     1       6.922  23.664  53.974  1.00  0.00    -0.050 A 
HETATM   37  C   UNL     1       7.720  22.969  53.054  1.00  0.00     0.007 A 
HETATM   38  C   UNL     1       8.779  22.175  53.494  1.00  0.00     0.001 A 
HETATM   39  C   UNL     1       9.047  22.061  54.856  1.00  0.00     0.000 A 
HETATM   40  C   UNL     1       8.256  22.741  55.780  1.00  0.00     0.001 A 
HETATM   41  C   UNL     1       7.197  23.540  55.343  1.00  0.00     0.007 A 
ENDBRANCH  35  36
ENDBRANCH  32  35
ENDBRANCH  28  31
ENDBRANCH   1  25
TORSDOF 7
ENDMDL
