MODEL 1
REMARK VINA RESULT:      -9.7      0.000      0.000
REMARK  3 active torsions:
REMARK  status: ('A' for Active; 'I' for Inactive)
REMARK    1  A    between atoms: C_4  and  N_5 
REMARK       I    between atoms: N_5  and  C_6 
REMARK    2  A    between atoms: C_6  and  C_7 
REMARK    3  A    between atoms: C_7  and  C_8 
ROOT
HETATM    1  C   UNL     1       5.319  27.228  50.824  1.00  0.00     0.286 C 
HETATM    2  N   UNL     1       5.614  27.621  49.358  1.00  0.00    -0.056 N 
HETATM    3  H   UNL     1       6.098  28.530  49.415  1.00  0.00     0.278 HD
HETATM    4  H   UNL     1       6.307  26.978  48.952  1.00  0.00     0.278 HD
HETATM    5  C   UNL     1       4.421  27.801  48.437  1.00  0.00     0.209 C 
HETATM    6  C   UNL     1       3.284  28.588  49.151  1.00  0.00     0.115 C 
HETATM    7  N   UNL     1       3.090  28.246  50.558  1.00  0.00    -0.353 N 
HETATM    8  C   UNL     1       4.168  28.070  51.392  1.00  0.00     0.249 C 
HETATM    9  O   UNL     1       4.143  28.516  52.530  1.00  0.00    -0.271 OA
HETATM   10  C   UNL     1       4.034  26.461  47.800  1.00  0.00     0.035 C 
HETATM   11  C   UNL     1       2.682  26.500  47.098  1.00  0.00     0.002 C 
HETATM   12  C   UNL     1       1.602  27.076  48.004  1.00  0.00     0.002 C 
HETATM   13  C   UNL     1       1.952  28.506  48.401  1.00  0.00     0.027 C 
HETATM   14  H   UNL     1       2.371  28.785  51.042  1.00  0.00     0.163 HD
ENDROOT
BRANCH   1  15
HETATM   15  C   UNL     1       4.968  25.744  50.908  1.00  0.00     0.146 C 
BRANCH  15  16
HETATM   16  C   UNL     1       5.365  25.173  52.251  1.00  0.00     0.224 C 
HETATM   17  N   UNL     1       6.734  25.005  52.338  1.00  0.00    -0.327 N 
HETATM   18  H   UNL     1       7.319  25.509  51.683  1.00  0.00     0.169 HD
HETATM   19  O   UNL     1       4.527  24.928  53.103  1.00  0.00    -0.273 OA
BRANCH  17  20
HETATM   20  C   UNL     1       7.435  24.168  53.227  1.00  0.00     0.035 A 
HETATM   21  C   UNL     1       7.806  24.549  54.518  1.00  0.00     0.036 A 
HETATM   22  C   UNL     1       8.407  23.623  55.386  1.00  0.00    -0.059 A 
HETATM   23  C   UNL     1       8.799  24.020  56.778  1.00  0.00     0.048 C 
HETATM   24  C   UNL     1       8.661  22.321  54.934  1.00  0.00     0.013 A 
HETATM   25  C   UNL     1       8.295  21.926  53.644  1.00  0.00    -0.059 A 
HETATM   26  C   UNL     1       7.689  22.860  52.796  1.00  0.00     0.036 A 
HETATM   27  C   UNL     1       8.585  20.530  53.173  1.00  0.00     0.048 C 
ENDBRANCH  17  20
ENDBRANCH  15  16
ENDBRANCH   1  15
TORSDOF 3
ENDMDL
MODEL 2
REMARK VINA RESULT:      -9.5      0.149      1.796
REMARK  3 active torsions:
REMARK  status: ('A' for Active; 'I' for Inactive)
REMARK    1  A    between atoms: C_4  and  N_5 
REMARK       I    between atoms: N_5  and  C_6 
REMARK    2  A    between atoms: C_6  and  C_7 
REMARK    3  A    between atoms: C_7  and  C_8 
ROOT
HETATM    1  C   UNL     1       5.345  27.237  50.885  1.00  0.00     0.286 C 
HETATM    2  N   UNL     1       5.670  27.652  49.431  1.00  0.00    -0.056 N 
HETATM    3  H   UNL     1       6.139  28.568  49.511  1.00  0.00     0.278 HD
HETATM    4  H   UNL     1       6.382  27.025  49.034  1.00  0.00     0.278 HD
HETATM    5  C   UNL     1       4.497  27.827  48.483  1.00  0.00     0.209 C 
HETATM    6  C   UNL     1       3.332  28.589  49.179  1.00  0.00     0.115 C 
HETATM    7  N   UNL     1       3.109  28.226  50.577  1.00  0.00    -0.353 N 
HETATM    8  C   UNL     1       4.170  28.056  51.434  1.00  0.00     0.249 C 
HETATM    9  O   UNL     1       4.111  28.487  52.577  1.00  0.00    -0.271 OA
HETATM   10  C   UNL     1       4.144  26.490  47.822  1.00  0.00     0.035 C 
HETATM   11  C   UNL     1       2.809  26.518  47.087  1.00  0.00     0.002 C 
HETATM   12  C   UNL     1       1.700  27.067  47.973  1.00  0.00     0.002 C 
HETATM   13  C   UNL     1       2.020  28.497  48.397  1.00  0.00     0.027 C 
HETATM   14  H   UNL     1       2.371  28.749  51.050  1.00  0.00     0.163 HD
ENDROOT
BRANCH   1  15
HETATM   15  C   UNL     1       5.014  25.748  50.941  1.00  0.00     0.146 C 
BRANCH  15  16
HETATM   16  C   UNL     1       5.402  25.162  52.281  1.00  0.00     0.224 C 
HETATM   17  N   UNL     1       6.743  24.827  52.311  1.00  0.00    -0.327 N 
HETATM   18  H   UNL     1       7.353  25.240  51.617  1.00  0.00     0.169 HD
HETATM   19  O   UNL     1       4.582  25.042  53.177  1.00  0.00    -0.273 OA
BRANCH  17  20
HETATM   20  C   UNL     1       7.377  23.930  53.191  1.00  0.00     0.035 A 
HETATM   21  C   UNL     1       7.695  22.613  52.857  1.00  0.00     0.036 A 
HETATM   22  C   UNL     1       8.425  21.810  53.749  1.00  0.00    -0.059 A 
HETATM   23  C   UNL     1       8.781  20.397  53.393  1.00  0.00     0.048 C 
HETATM   24  C   UNL     1       8.804  22.333  54.992  1.00  0.00     0.013 A 
HETATM   25  C   UNL     1       8.493  23.650  55.341  1.00  0.00    -0.059 A 
HETATM   26  C   UNL     1       7.772  24.438  54.436  1.00  0.00     0.036 A 
HETATM   27  C   UNL     1       8.897  24.191  56.682  1.00  0.00     0.048 C 
ENDBRANCH  17  20
ENDBRANCH  15  16
ENDBRANCH   1  15
TORSDOF 3
ENDMDL
MODEL 3
REMARK VINA RESULT:      -8.9      3.882      5.786
REMARK  3 active torsions:
REMARK  status: ('A' for Active; 'I' for Inactive)
REMARK    1  A    between atoms: C_4  and  N_5 
REMARK       I    between atoms: N_5  and  C_6 
REMARK    2  A    between atoms: C_6  and  C_7 
REMARK    3  A    between atoms: C_7  and  C_8 
ROOT
HETATM    1  C   UNL     1       4.778  27.616  54.089  1.00  0.00     0.286 C 
HETATM    2  N   UNL     1       4.432  27.351  55.573  1.00  0.00    -0.056 N 
HETATM    3  H   UNL     1       3.455  27.660  55.681  1.00  0.00     0.278 HD
HETATM    4  H   UNL     1       4.411  26.338  55.756  1.00  0.00     0.278 HD
HETATM    5  C   UNL     1       5.257  28.084  56.616  1.00  0.00     0.209 C 
HETATM    6  C   UNL     1       5.472  29.570  56.209  1.00  0.00     0.115 C 
HETATM    7  N   UNL     1       5.715  29.787  54.784  1.00  0.00    -0.353 N 
HETATM    8  C   UNL     1       4.978  29.117  53.837  1.00  0.00     0.249 C 
HETATM    9  O   UNL     1       4.583  29.702  52.839  1.00  0.00    -0.271 OA
HETATM   10  C   UNL     1       6.515  27.278  56.962  1.00  0.00     0.035 C 
HETATM   11  C   UNL     1       7.530  28.071  57.775  1.00  0.00     0.002 C 
HETATM   12  C   UNL     1       7.830  29.417  57.128  1.00  0.00     0.002 C 
HETATM   13  C   UNL     1       6.560  30.255  57.038  1.00  0.00     0.027 C 
HETATM   14  H   UNL     1       5.818  30.764  54.504  1.00  0.00     0.163 HD
ENDROOT
BRANCH   1  15
HETATM   15  C   UNL     1       6.040  26.850  53.701  1.00  0.00     0.146 C 
BRANCH  15  16
HETATM   16  C   UNL     1       5.873  25.370  53.964  1.00  0.00     0.224 C 
HETATM   17  N   UNL     1       6.982  24.847  54.602  1.00  0.00    -0.327 N 
HETATM   18  H   UNL     1       7.614  25.489  55.063  1.00  0.00     0.169 HD
HETATM   19  O   UNL     1       4.854  24.784  53.635  1.00  0.00    -0.273 OA
BRANCH  17  20
HETATM   20  C   UNL     1       7.371  23.495  54.661  1.00  0.00     0.035 A 
HETATM   21  C   UNL     1       7.579  22.700  53.532  1.00  0.00     0.036 A 
HETATM   22  C   UNL     1       8.072  21.391  53.667  1.00  0.00    -0.059 A 
HETATM   23  C   UNL     1       8.308  20.534  52.459  1.00  0.00     0.048 C 
HETATM   24  C   UNL     1       8.324  20.880  54.946  1.00  0.00     0.013 A 
HETATM   25  C   UNL     1       8.121  21.664  56.085  1.00  0.00    -0.059 A 
HETATM   26  C   UNL     1       7.638  22.969  55.931  1.00  0.00     0.036 A 
HETATM   27  C   UNL     1       8.386  21.096  57.449  1.00  0.00     0.048 C 
ENDBRANCH  17  20
ENDBRANCH  15  16
ENDBRANCH   1  15
TORSDOF 3
ENDMDL
MODEL 4
REMARK VINA RESULT:      -8.6      1.855      2.825
REMARK  3 active torsions:
REMARK  status: ('A' for Active; 'I' for Inactive)
REMARK    1  A    between atoms: C_4  and  N_5 
REMARK       I    between atoms: N_5  and  C_6 
REMARK    2  A    between atoms: C_6  and  C_7 
REMARK    3  A    between atoms: C_7  and  C_8 
ROOT
HETATM    1  C   UNL     1       4.502  26.575  49.769  1.00  0.00     0.286 C 
HETATM    2  N   UNL     1       3.565  27.580  50.479  1.00  0.00    -0.056 N 
HETATM    3  H   UNL     1       2.619  27.355  50.136  1.00  0.00     0.278 HD
HETATM    4  H   UNL     1       3.534  27.382  51.489  1.00  0.00     0.278 HD
HETATM    5  C   UNL     1       3.804  29.056  50.212  1.00  0.00     0.209 C 
HETATM    6  C   UNL     1       4.075  29.308  48.701  1.00  0.00     0.115 C 
HETATM    7  N   UNL     1       4.898  28.293  48.046  1.00  0.00    -0.353 N 
HETATM    8  C   UNL     1       4.691  26.957  48.295  1.00  0.00     0.249 C 
HETATM    9  O   UNL     1       4.731  26.148  47.378  1.00  0.00    -0.271 OA
HETATM   10  C   UNL     1       4.838  29.613  51.197  1.00  0.00     0.035 C 
HETATM   11  C   UNL     1       5.344  30.999  50.814  1.00  0.00     0.002 C 
HETATM   12  C   UNL     1       5.806  31.040  49.364  1.00  0.00     0.002 C 
HETATM   13  C   UNL     1       4.647  30.701  48.431  1.00  0.00     0.027 C 
HETATM   14  H   UNL     1       5.047  28.432  47.046  1.00  0.00     0.163 HD
ENDROOT
BRANCH   1  15
HETATM   15  C   UNL     1       5.856  26.534  50.474  1.00  0.00     0.146 C 
BRANCH  15  16
HETATM   16  C   UNL     1       5.800  25.641  51.693  1.00  0.00     0.224 C 
HETATM   17  N   UNL     1       7.034  25.556  52.309  1.00  0.00    -0.327 N 
HETATM   18  H   UNL     1       7.724  26.264  52.092  1.00  0.00     0.169 HD
HETATM   19  O   UNL     1       4.756  25.106  52.034  1.00  0.00    -0.273 OA
BRANCH  17  20
HETATM   20  C   UNL     1       7.476  24.557  53.197  1.00  0.00     0.035 A 
HETATM   21  C   UNL     1       7.682  24.772  54.561  1.00  0.00     0.036 A 
HETATM   22  C   UNL     1       8.019  23.700  55.405  1.00  0.00    -0.059 A 
HETATM   23  C   UNL     1       8.231  23.920  56.874  1.00  0.00     0.048 C 
HETATM   24  C   UNL     1       8.178  22.420  54.861  1.00  0.00     0.013 A 
HETATM   25  C   UNL     1       7.974  22.190  53.497  1.00  0.00    -0.059 A 
HETATM   26  C   UNL     1       7.630  23.268  52.673  1.00  0.00     0.036 A 
HETATM   27  C   UNL     1       8.160  20.813  52.928  1.00  0.00     0.048 C 
ENDBRANCH  17  20
ENDBRANCH  15  16
ENDBRANCH   1  15
TORSDOF 3
ENDMDL
MODEL 5
REMARK VINA RESULT:      -8.6      5.459      8.291
REMARK  3 active torsions:
REMARK  status: ('A' for Active; 'I' for Inactive)
REMARK    1  A    between atoms: C_4  and  N_5 
REMARK       I    between atoms: N_5  and  C_6 
REMARK    2  A    between atoms: C_6  and  C_7 
REMARK    3  A    between atoms: C_7  and  C_8 
ROOT
HETATM    1  C   UNL     1       7.088  25.407  56.754  1.00  0.00     0.286 C 
HETATM    2  N   UNL     1       5.831  25.208  55.876  1.00  0.00    -0.056 N 
HETATM    3  H   UNL     1       5.301  24.450  56.332  1.00  0.00     0.278 HD
HETATM    4  H   UNL     1       5.220  26.033  55.940  1.00  0.00     0.278 HD
HETATM    5  C   UNL     1       6.054  24.796  54.432  1.00  0.00     0.209 C 
HETATM    6  C   UNL     1       7.151  23.697  54.332  1.00  0.00     0.115 C 
HETATM    7  N   UNL     1       8.285  23.877  55.236  1.00  0.00    -0.353 N 
HETATM    8  C   UNL     1       8.087  24.261  56.541  1.00  0.00     0.249 C 
HETATM    9  O   UNL     1       8.736  23.742  57.438  1.00  0.00    -0.271 OA
HETATM   10  C   UNL     1       6.242  26.036  53.549  1.00  0.00     0.035 C 
HETATM   11  C   UNL     1       6.755  25.705  52.153  1.00  0.00     0.002 C 
HETATM   12  C   UNL     1       7.986  24.811  52.211  1.00  0.00     0.002 C 
HETATM   13  C   UNL     1       7.648  23.492  52.899  1.00  0.00     0.027 C 
HETATM   14  H   UNL     1       8.989  23.139  55.202  1.00  0.00     0.163 HD
ENDROOT
BRANCH   1  15
HETATM   15  C   UNL     1       7.751  26.742  56.424  1.00  0.00     0.146 C 
BRANCH  15  16
HETATM   16  C   UNL     1       7.049  27.879  57.134  1.00  0.00     0.224 C 
HETATM   17  N   UNL     1       7.920  28.919  57.395  1.00  0.00    -0.327 N 
HETATM   18  H   UNL     1       8.788  28.957  56.875  1.00  0.00     0.169 HD
HETATM   19  O   UNL     1       5.859  27.817  57.399  1.00  0.00    -0.273 OA
BRANCH  17  20
HETATM   20  C   UNL     1       7.763  29.943  58.349  1.00  0.00     0.035 A 
HETATM   21  C   UNL     1       8.646  30.154  59.409  1.00  0.00     0.036 A 
HETATM   22  C   UNL     1       8.484  31.262  60.258  1.00  0.00    -0.059 A 
HETATM   23  C   UNL     1       9.434  31.503  61.393  1.00  0.00     0.048 C 
HETATM   24  C   UNL     1       7.409  32.136  60.050  1.00  0.00     0.013 A 
HETATM   25  C   UNL     1       6.517  31.937  58.993  1.00  0.00    -0.059 A 
HETATM   26  C   UNL     1       6.699  30.833  58.152  1.00  0.00     0.036 A 
HETATM   27  C   UNL     1       5.364  32.877  58.791  1.00  0.00     0.048 C 
ENDBRANCH  17  20
ENDBRANCH  15  16
ENDBRANCH   1  15
TORSDOF 3
ENDMDL
MODEL 6
REMARK VINA RESULT:      -8.4      5.688      8.669
REMARK  3 active torsions:
REMARK  status: ('A' for Active; 'I' for Inactive)
REMARK    1  A    between atoms: C_4  and  N_5 
REMARK       I    between atoms: N_5  and  C_6 
REMARK    2  A    between atoms: C_6  and  C_7 
REMARK    3  A    between atoms: C_7  and  C_8 
ROOT
HETATM    1  C   UNL     1       7.266  25.638  57.249  1.00  0.00     0.286 C 
HETATM    2  N   UNL     1       5.963  25.271  56.501  1.00  0.00    -0.056 N 
HETATM    3  H   UNL     1       5.509  24.554  57.087  1.00  0.00     0.278 HD
HETATM    4  H   UNL     1       5.313  26.069  56.508  1.00  0.00     0.278 HD
HETATM    5  C   UNL     1       6.107  24.689  55.106  1.00  0.00     0.209 C 
HETATM    6  C   UNL     1       7.254  23.638  55.060  1.00  0.00     0.115 C 
HETATM    7  N   UNL     1       8.437  23.984  55.846  1.00  0.00    -0.353 N 
HETATM    8  C   UNL     1       8.309  24.522  57.105  1.00  0.00     0.249 C 
HETATM    9  O   UNL     1       9.046  24.153  58.007  1.00  0.00    -0.271 OA
HETATM   10  C   UNL     1       6.164  25.813  54.065  1.00  0.00     0.035 C 
HETATM   11  C   UNL     1       6.597  25.330  52.685  1.00  0.00     0.002 C 
HETATM   12  C   UNL     1       7.876  24.508  52.761  1.00  0.00     0.002 C 
HETATM   13  C   UNL     1       7.661  23.274  53.631  1.00  0.00     0.027 C 
HETATM   14  H   UNL     1       9.176  23.281  55.851  1.00  0.00     0.163 HD
ENDROOT
BRANCH   1  15
HETATM   15  C   UNL     1       7.828  26.950  56.707  1.00  0.00     0.146 C 
BRANCH  15  16
HETATM   16  C   UNL     1       7.086  28.133  57.287  1.00  0.00     0.224 C 
HETATM   17  N   UNL     1       7.951  29.167  57.591  1.00  0.00    -0.327 N 
HETATM   18  H   UNL     1       8.869  29.161  57.164  1.00  0.00     0.169 HD
HETATM   19  O   UNL     1       5.874  28.108  57.427  1.00  0.00    -0.273 OA
BRANCH  17  20
HETATM   20  C   UNL     1       7.722  30.237  58.476  1.00  0.00     0.035 A 
HETATM   21  C   UNL     1       6.632  31.103  58.376  1.00  0.00     0.036 A 
HETATM   22  C   UNL     1       6.409  32.082  59.359  1.00  0.00    -0.059 A 
HETATM   23  C   UNL     1       5.235  33.009  59.265  1.00  0.00     0.048 C 
HETATM   24  C   UNL     1       7.310  32.202  60.425  1.00  0.00     0.013 A 
HETATM   25  C   UNL     1       8.406  31.342  60.539  1.00  0.00    -0.059 A 
HETATM   26  C   UNL     1       8.606  30.367  59.554  1.00  0.00     0.036 A 
HETATM   27  C   UNL     1       9.367  31.492  61.682  1.00  0.00     0.048 C 
ENDBRANCH  17  20
ENDBRANCH  15  16
ENDBRANCH   1  15
TORSDOF 3
ENDMDL
MODEL 7
REMARK VINA RESULT:      -8.3      2.300      7.432
REMARK  3 active torsions:
REMARK  status: ('A' for Active; 'I' for Inactive)
REMARK    1  A    between atoms: C_4  and  N_5 
REMARK       I    between atoms: N_5  and  C_6 
REMARK    2  A    between atoms: C_6  and  C_7 
REMARK    3  A    between atoms: C_7  and  C_8 
ROOT
HETATM    1  C   UNL     1       5.770  27.438  54.948  1.00  0.00     0.286 C 
HETATM    2  N   UNL     1       5.026  26.091  55.093  1.00  0.00    -0.056 N 
HETATM    3  H   UNL     1       4.470  26.181  55.957  1.00  0.00     0.278 HD
HETATM    4  H   UNL     1       4.330  25.987  54.342  1.00  0.00     0.278 HD
HETATM    5  C   UNL     1       5.878  24.841  55.233  1.00  0.00     0.209 C 
HETATM    6  C   UNL     1       7.065  25.087  56.208  1.00  0.00     0.115 C 
HETATM    7  N   UNL     1       7.691  26.403  56.096  1.00  0.00    -0.353 N 
HETATM    8  C   UNL     1       6.922  27.535  55.958  1.00  0.00     0.249 C 
HETATM    9  O   UNL     1       7.214  28.553  56.568  1.00  0.00    -0.271 OA
HETATM   10  C   UNL     1       6.230  24.281  53.850  1.00  0.00     0.035 C 
HETATM   11  C   UNL     1       7.312  23.209  53.895  1.00  0.00     0.002 C 
HETATM   12  C   UNL     1       8.525  23.678  54.686  1.00  0.00     0.002 C 
HETATM   13  C   UNL     1       8.129  23.991  56.126  1.00  0.00     0.027 C 
HETATM   14  H   UNL     1       8.445  26.584  56.759  1.00  0.00     0.163 HD
ENDROOT
BRANCH   1  15
HETATM   15  C   UNL     1       6.309  27.587  53.527  1.00  0.00     0.146 C 
BRANCH  15  16
HETATM   16  C   UNL     1       5.188  27.501  52.515  1.00  0.00     0.224 C 
HETATM   17  N   UNL     1       5.657  27.082  51.284  1.00  0.00    -0.327 N 
HETATM   18  H   UNL     1       6.559  26.626  51.248  1.00  0.00     0.169 HD
HETATM   19  O   UNL     1       4.039  27.771  52.825  1.00  0.00    -0.273 OA
BRANCH  17  20
HETATM   20  C   UNL     1       5.033  27.250  50.034  1.00  0.00     0.035 A 
HETATM   21  C   UNL     1       5.115  28.421  49.279  1.00  0.00     0.036 A 
HETATM   22  C   UNL     1       4.556  28.477  47.991  1.00  0.00    -0.059 A 
HETATM   23  C   UNL     1       4.650  29.728  47.169  1.00  0.00     0.048 C 
HETATM   24  C   UNL     1       3.887  27.356  47.483  1.00  0.00     0.013 A 
HETATM   25  C   UNL     1       3.796  26.177  48.227  1.00  0.00    -0.059 A 
HETATM   26  C   UNL     1       4.367  26.137  49.505  1.00  0.00     0.036 A 
HETATM   27  C   UNL     1       3.065  24.989  47.672  1.00  0.00     0.048 C 
ENDBRANCH  17  20
ENDBRANCH  15  16
ENDBRANCH   1  15
TORSDOF 3
ENDMDL
MODEL 8
REMARK VINA RESULT:      -8.3      2.188      2.776
REMARK  3 active torsions:
REMARK  status: ('A' for Active; 'I' for Inactive)
REMARK    1  A    between atoms: C_4  and  N_5 
REMARK       I    between atoms: N_5  and  C_6 
REMARK    2  A    between atoms: C_6  and  C_7 
REMARK    3  A    between atoms: C_7  and  C_8 
ROOT
HETATM    1  C   UNL     1       5.575  28.223  54.277  1.00  0.00     0.286 C 
HETATM    2  N   UNL     1       6.378  28.688  53.040  1.00  0.00    -0.056 N 
HETATM    3  H   UNL     1       6.789  29.594  53.310  1.00  0.00     0.278 HD
HETATM    4  H   UNL     1       7.184  28.067  52.887  1.00  0.00     0.278 HD
HETATM    5  C   UNL     1       5.600  28.910  51.755  1.00  0.00     0.209 C 
HETATM    6  C   UNL     1       4.266  29.658  52.037  1.00  0.00     0.115 C 
HETATM    7  N   UNL     1       3.577  29.247  53.259  1.00  0.00    -0.353 N 
HETATM    8  C   UNL     1       4.280  29.034  54.421  1.00  0.00     0.249 C 
HETATM    9  O   UNL     1       3.832  29.424  55.489  1.00  0.00    -0.271 OA
HETATM   10  C   UNL     1       5.500  27.601  50.962  1.00  0.00     0.035 C 
HETATM   11  C   UNL     1       4.498  27.671  49.816  1.00  0.00     0.002 C 
HETATM   12  C   UNL     1       3.150  28.199  50.288  1.00  0.00     0.002 C 
HETATM   13  C   UNL     1       3.302  29.609  50.849  1.00  0.00     0.027 C 
HETATM   14  H   UNL     1       2.721  29.761  53.470  1.00  0.00     0.163 HD
ENDROOT
BRANCH   1  15
HETATM   15  C   UNL     1       5.248  26.736  54.160  1.00  0.00     0.146 C 
BRANCH  15  16
HETATM   16  C   UNL     1       6.493  25.897  54.341  1.00  0.00     0.224 C 
HETATM   17  N   UNL     1       6.272  24.586  53.961  1.00  0.00    -0.327 N 
HETATM   18  H   UNL     1       5.473  24.389  53.371  1.00  0.00     0.169 HD
HETATM   19  O   UNL     1       7.527  26.388  54.763  1.00  0.00    -0.273 OA
BRANCH  17  20
HETATM   20  C   UNL     1       7.021  23.454  54.333  1.00  0.00     0.035 A 
HETATM   21  C   UNL     1       7.325  23.129  55.656  1.00  0.00     0.036 A 
HETATM   22  C   UNL     1       7.985  21.925  55.957  1.00  0.00    -0.059 A 
HETATM   23  C   UNL     1       8.306  21.562  57.377  1.00  0.00     0.048 C 
HETATM   24  C   UNL     1       8.362  21.068  54.915  1.00  0.00     0.013 A 
HETATM   25  C   UNL     1       8.064  21.381  53.586  1.00  0.00    -0.059 A 
HETATM   26  C   UNL     1       7.399  22.580  53.305  1.00  0.00     0.036 A 
HETATM   27  C   UNL     1       8.487  20.456  52.481  1.00  0.00     0.048 C 
ENDBRANCH  17  20
ENDBRANCH  15  16
ENDBRANCH   1  15
TORSDOF 3
ENDMDL
MODEL 9
REMARK VINA RESULT:      -8.2      5.799      8.774
REMARK  3 active torsions:
REMARK  status: ('A' for Active; 'I' for Inactive)
REMARK    1  A    between atoms: C_4  and  N_5 
REMARK       I    between atoms: N_5  and  C_6 
REMARK    2  A    between atoms: C_6  and  C_7 
REMARK    3  A    between atoms: C_7  and  C_8 
ROOT
HETATM    1  C   UNL     1       7.991  29.630  57.187  1.00  0.00     0.286 C 
HETATM    2  N   UNL     1       7.282  30.927  57.642  1.00  0.00    -0.056 N 
HETATM    3  H   UNL     1       7.395  31.586  56.856  1.00  0.00     0.278 HD
HETATM    4  H   UNL     1       6.267  30.771  57.712  1.00  0.00     0.278 HD
HETATM    5  C   UNL     1       7.823  31.611  58.885  1.00  0.00     0.209 C 
HETATM    6  C   UNL     1       9.378  31.639  58.870  1.00  0.00     0.115 C 
HETATM    7  N   UNL     1      10.010  30.424  58.357  1.00  0.00    -0.353 N 
HETATM    8  C   UNL     1       9.515  29.797  57.238  1.00  0.00     0.249 C 
HETATM    9  O   UNL     1      10.281  29.354  56.394  1.00  0.00    -0.271 OA
HETATM   10  C   UNL     1       7.159  31.033  60.141  1.00  0.00     0.035 C 
HETATM   11  C   UNL     1       7.849  31.455  61.432  1.00  0.00     0.002 C 
HETATM   12  C   UNL     1       9.349  31.201  61.368  1.00  0.00     0.002 C 
HETATM   13  C   UNL     1       9.973  32.004  60.232  1.00  0.00     0.027 C 
HETATM   14  H   UNL     1      11.029  30.451  58.309  1.00  0.00     0.163 HD
ENDROOT
BRANCH   1  15
HETATM   15  C   UNL     1       7.564  28.463  58.074  1.00  0.00     0.146 C 
BRANCH  15  16
HETATM   16  C   UNL     1       6.895  27.382  57.254  1.00  0.00     0.224 C 
HETATM   17  N   UNL     1       7.782  26.370  56.941  1.00  0.00    -0.327 N 
HETATM   18  H   UNL     1       8.632  26.296  57.485  1.00  0.00     0.169 HD
HETATM   19  O   UNL     1       5.714  27.459  56.955  1.00  0.00    -0.273 OA
BRANCH  17  20
HETATM   20  C   UNL     1       7.664  25.424  55.905  1.00  0.00     0.035 A 
HETATM   21  C   UNL     1       7.580  25.764  54.553  1.00  0.00     0.036 A 
HETATM   22  C   UNL     1       7.573  24.762  53.568  1.00  0.00    -0.059 A 
HETATM   23  C   UNL     1       7.493  25.118  52.114  1.00  0.00     0.048 C 
HETATM   24  C   UNL     1       7.620  23.416  53.956  1.00  0.00     0.013 A 
HETATM   25  C   UNL     1       7.705  23.061  55.305  1.00  0.00    -0.059 A 
HETATM   26  C   UNL     1       7.719  24.074  56.272  1.00  0.00     0.036 A 
HETATM   27  C   UNL     1       7.743  21.614  55.704  1.00  0.00     0.048 C 
ENDBRANCH  17  20
ENDBRANCH  15  16
ENDBRANCH   1  15
TORSDOF 3
ENDMDL
MODEL 10
REMARK VINA RESULT:      -8.2      4.578      6.508
REMARK  3 active torsions:
REMARK  status: ('A' for Active; 'I' for Inactive)
REMARK    1  A    between atoms: C_4  and  N_5 
REMARK       I    between atoms: N_5  and  C_6 
REMARK    2  A    between atoms: C_6  and  C_7 
REMARK    3  A    between atoms: C_7  and  C_8 
ROOT
HETATM    1  C   UNL     1       7.847  27.933  57.023  1.00  0.00     0.286 C 
HETATM    2  N   UNL     1       7.097  28.306  55.723  1.00  0.00    -0.056 N 
HETATM    3  H   UNL     1       7.814  28.720  55.107  1.00  0.00     0.278 HD
HETATM    4  H   UNL     1       6.789  27.454  55.234  1.00  0.00     0.278 HD
HETATM    5  C   UNL     1       5.968  29.314  55.841  1.00  0.00     0.209 C 
HETATM    6  C   UNL     1       6.373  30.494  56.772  1.00  0.00     0.115 C 
HETATM    7  N   UNL     1       7.152  30.109  57.948  1.00  0.00    -0.353 N 
HETATM    8  C   UNL     1       8.167  29.189  57.845  1.00  0.00     0.249 C 
HETATM    9  O   UNL     1       9.218  29.365  58.444  1.00  0.00    -0.271 OA
HETATM   10  C   UNL     1       4.652  28.601  56.171  1.00  0.00     0.035 C 
HETATM   11  C   UNL     1       3.541  29.557  56.590  1.00  0.00     0.002 C 
HETATM   12  C   UNL     1       4.008  30.505  57.686  1.00  0.00     0.002 C 
HETATM   13  C   UNL     1       5.177  31.350  57.191  1.00  0.00     0.027 C 
HETATM   14  H   UNL     1       7.453  30.883  58.541  1.00  0.00     0.163 HD
ENDROOT
BRANCH   1  15
HETATM   15  C   UNL     1       7.006  26.967  57.853  1.00  0.00     0.146 C 
BRANCH  15  16
HETATM   16  C   UNL     1       6.664  25.729  57.053  1.00  0.00     0.224 C 
HETATM   17  N   UNL     1       7.801  25.141  56.531  1.00  0.00    -0.327 N 
HETATM   18  H   UNL     1       8.695  25.388  56.936  1.00  0.00     0.169 HD
HETATM   19  O   UNL     1       5.509  25.353  56.939  1.00  0.00    -0.273 OA
BRANCH  17  20
HETATM   20  C   UNL     1       7.875  24.244  55.449  1.00  0.00     0.035 A 
HETATM   21  C   UNL     1       7.945  22.858  55.597  1.00  0.00     0.036 A 
HETATM   22  C   UNL     1       7.907  22.020  54.470  1.00  0.00    -0.059 A 
HETATM   23  C   UNL     1       7.972  20.529  54.621  1.00  0.00     0.048 C 
HETATM   24  C   UNL     1       7.830  22.590  53.192  1.00  0.00     0.013 A 
HETATM   25  C   UNL     1       7.758  23.976  53.028  1.00  0.00    -0.059 A 
HETATM   26  C   UNL     1       7.788  24.794  54.164  1.00  0.00     0.036 A 
HETATM   27  C   UNL     1       7.686  24.570  51.651  1.00  0.00     0.048 C 
ENDBRANCH  17  20
ENDBRANCH  15  16
ENDBRANCH   1  15
TORSDOF 3
ENDMDL
