MODEL 1
REMARK VINA RESULT:     -11.0      0.000      0.000
REMARK  6 active torsions:
REMARK  status: ('A' for Active; 'I' for Inactive)
REMARK       I    between atoms: N_2  and  C_3 
REMARK    1  A    between atoms: N_2  and  C_15 
REMARK       I    between atoms: C_3  and  N_4 
REMARK    2  A    between atoms: N_4  and  C_5 
REMARK    3  A    between atoms: C_15  and  C_16 
REMARK    4  A    between atoms: C_16  and  C_17 
REMARK    5  A    between atoms: C_17  and  C_18 
REMARK    6  A    between atoms: C_22  and  C_23 
ROOT
HETATM    1  C   UNL     1       7.774  28.181  56.084  1.00  0.00     0.127 C 
ENDROOT
BRANCH   1   2
HETATM    2  N   UNL     1       6.568  27.353  56.197  1.00  0.00    -0.338 N 
HETATM    3  C   UNL     1       5.321  28.078  56.419  1.00  0.00     0.154 C 
HETATM    4  C   UNL     1       6.442  26.063  55.683  1.00  0.00     0.322 C 
HETATM    5  N   UNL     1       7.617  25.360  55.589  1.00  0.00    -0.309 N 
HETATM    6  O   UNL     1       5.354  25.656  55.286  1.00  0.00    -0.247 OA
HETATM    7  H   UNL     1       8.377  25.690  56.162  1.00  0.00     0.170 HD
BRANCH   5   8
HETATM    8  C   UNL     1       7.844  24.137  54.919  1.00  0.00     0.036 A 
HETATM    9  C   UNL     1       8.016  22.911  55.569  1.00  0.00     0.039 A 
HETATM   10  C   UNL     1       8.215  21.771  54.803  1.00  0.00    -0.024 A 
HETATM   11  C   UNL     1       8.222  21.821  53.420  1.00  0.00    -0.026 A 
HETATM   12  C   UNL     1       8.423  20.371  55.248  1.00  0.00     0.207 C 
HETATM   13  C   UNL     1       8.412  20.450  52.884  1.00  0.00     0.207 C 
HETATM   14  C   UNL     1       8.040  23.015  52.750  1.00  0.00     0.012 A 
HETATM   15  O   UNL     1       8.763  19.652  54.038  1.00  0.00    -0.382 OA
HETATM   16  C   UNL     1       7.861  24.178  53.509  1.00  0.00     0.030 A 
ENDBRANCH   5   8
ENDBRANCH   1   2
BRANCH   1  17
HETATM   17  C   UNL     1       8.644  28.189  57.351  1.00  0.00     0.026 C 
BRANCH  17  18
HETATM   18  C   UNL     1       9.700  29.300  57.373  1.00  0.00     0.060 C 
BRANCH  18  19
HETATM   19  C   UNL     1       9.402  30.397  58.334  1.00  0.00     0.030 A 
HETATM   20  N   UNL     1      10.090  31.579  58.389  1.00  0.00    -0.282 N 
HETATM   21  H   UNL     1      10.856  31.901  57.801  1.00  0.00     0.189 HD
HETATM   22  N   UNL     1       9.677  32.393  59.372  1.00  0.00    -0.174 NA
HETATM   23  C   UNL     1       8.704  31.718  60.002  1.00  0.00     0.089 A 
HETATM   24  C   UNL     1       8.487  30.468  59.362  1.00  0.00     0.060 A 
BRANCH  23  25
HETATM   25  C   UNL     1       8.033  32.266  61.188  1.00  0.00    -0.003 A 
HETATM   26  C   UNL     1       6.784  32.892  61.094  1.00  0.00     0.056 A 
HETATM   27  C   UNL     1       6.161  33.381  62.239  1.00  0.00     0.117 A 
HETATM   28  F   UNL     1       4.963  33.973  62.132  1.00  0.00    -0.206 F 
HETATM   29  C   UNL     1       6.754  33.268  63.490  1.00  0.00     0.042 A 
HETATM   30  C   UNL     1       7.996  32.652  63.601  1.00  0.00     0.004 A 
HETATM   31  C   UNL     1       8.630  32.155  62.457  1.00  0.00     0.014 A 
ENDBRANCH  23  25
ENDBRANCH  18  19
ENDBRANCH  17  18
ENDBRANCH   1  17
TORSDOF 6
ENDMDL
MODEL 2
REMARK VINA RESULT:     -11.0      4.508     11.352
REMARK  6 active torsions:
REMARK  status: ('A' for Active; 'I' for Inactive)
REMARK       I    between atoms: N_2  and  C_3 
REMARK    1  A    between atoms: N_2  and  C_15 
REMARK       I    between atoms: C_3  and  N_4 
REMARK    2  A    between atoms: N_4  and  C_5 
REMARK    3  A    between atoms: C_15  and  C_16 
REMARK    4  A    between atoms: C_16  and  C_17 
REMARK    5  A    between atoms: C_17  and  C_18 
REMARK    6  A    between atoms: C_22  and  C_23 
ROOT
HETATM    1  C   UNL     1       8.576  29.050  57.396  1.00  0.00     0.127 C 
ENDROOT
BRANCH   1   2
HETATM    2  N   UNL     1       9.616  30.019  57.762  1.00  0.00    -0.338 N 
HETATM    3  C   UNL     1      10.635  30.268  56.748  1.00  0.00     0.154 C 
HETATM    4  C   UNL     1       9.472  31.003  58.739  1.00  0.00     0.322 C 
HETATM    5  N   UNL     1       8.589  30.697  59.745  1.00  0.00    -0.309 N 
HETATM    6  O   UNL     1      10.052  32.080  58.626  1.00  0.00    -0.247 OA
HETATM    7  H   UNL     1       8.376  29.720  59.863  1.00  0.00     0.170 HD
BRANCH   5   8
HETATM    8  C   UNL     1       8.074  31.560  60.738  1.00  0.00     0.036 A 
HETATM    9  C   UNL     1       6.953  32.376  60.557  1.00  0.00     0.039 A 
HETATM   10  C   UNL     1       6.528  33.171  61.612  1.00  0.00    -0.024 A 
HETATM   11  C   UNL     1       7.171  33.152  62.837  1.00  0.00    -0.026 A 
HETATM   12  C   UNL     1       5.383  34.113  61.669  1.00  0.00     0.207 C 
HETATM   13  C   UNL     1       6.468  34.066  63.771  1.00  0.00     0.207 C 
HETATM   14  C   UNL     1       8.272  32.345  63.050  1.00  0.00     0.012 A 
HETATM   15  O   UNL     1       5.537  34.795  62.938  1.00  0.00    -0.382 OA
HETATM   16  C   UNL     1       8.727  31.555  61.988  1.00  0.00     0.030 A 
ENDBRANCH   5   8
ENDBRANCH   1   2
BRANCH   1  17
HETATM   17  C   UNL     1       8.348  28.927  55.881  1.00  0.00     0.026 C 
BRANCH  17  18
HETATM   18  C   UNL     1       7.093  28.131  55.505  1.00  0.00     0.060 C 
BRANCH  18  19
HETATM   19  C   UNL     1       7.380  26.808  54.885  1.00  0.00     0.030 A 
HETATM   20  N   UNL     1       7.565  26.611  53.543  1.00  0.00    -0.282 N 
HETATM   21  H   UNL     1       7.566  27.297  52.791  1.00  0.00     0.189 HD
HETATM   22  N   UNL     1       7.756  25.325  53.213  1.00  0.00    -0.174 NA
HETATM   23  C   UNL     1       7.670  24.648  54.368  1.00  0.00     0.089 A 
HETATM   24  C   UNL     1       7.457  25.551  55.445  1.00  0.00     0.060 A 
BRANCH  23  25
HETATM   25  C   UNL     1       7.770  23.183  54.409  1.00  0.00    -0.003 A 
HETATM   26  C   UNL     1       8.025  22.438  53.251  1.00  0.00     0.056 A 
HETATM   27  C   UNL     1       8.138  21.052  53.324  1.00  0.00     0.117 A 
HETATM   28  F   UNL     1       8.387  20.355  52.207  1.00  0.00    -0.206 F 
HETATM   29  C   UNL     1       7.999  20.378  54.531  1.00  0.00     0.042 A 
HETATM   30  C   UNL     1       7.743  21.102  55.690  1.00  0.00     0.004 A 
HETATM   31  C   UNL     1       7.629  22.495  55.628  1.00  0.00     0.014 A 
ENDBRANCH  23  25
ENDBRANCH  18  19
ENDBRANCH  17  18
ENDBRANCH   1  17
TORSDOF 6
ENDMDL
MODEL 3
REMARK VINA RESULT:     -10.9      4.310     11.642
REMARK  6 active torsions:
REMARK  status: ('A' for Active; 'I' for Inactive)
REMARK       I    between atoms: N_2  and  C_3 
REMARK    1  A    between atoms: N_2  and  C_15 
REMARK       I    between atoms: C_3  and  N_4 
REMARK    2  A    between atoms: N_4  and  C_5 
REMARK    3  A    between atoms: C_15  and  C_16 
REMARK    4  A    between atoms: C_16  and  C_17 
REMARK    5  A    between atoms: C_17  and  C_18 
REMARK    6  A    between atoms: C_22  and  C_23 
ROOT
HETATM    1  C   UNL     1       8.076  29.365  58.228  1.00  0.00     0.127 C 
ENDROOT
BRANCH   1   2
HETATM    2  N   UNL     1       9.136  30.337  58.520  1.00  0.00    -0.338 N 
HETATM    3  C   UNL     1      10.126  30.530  57.466  1.00  0.00     0.154 C 
HETATM    4  C   UNL     1       9.030  31.364  59.457  1.00  0.00     0.322 C 
HETATM    5  N   UNL     1       8.175  31.112  60.501  1.00  0.00    -0.309 N 
HETATM    6  O   UNL     1       9.618  32.428  59.280  1.00  0.00    -0.247 OA
HETATM    7  H   UNL     1       7.956  30.143  60.668  1.00  0.00     0.170 HD
BRANCH   5   8
HETATM    8  C   UNL     1       7.698  32.023  61.470  1.00  0.00     0.036 A 
HETATM    9  C   UNL     1       6.648  32.919  61.248  1.00  0.00     0.039 A 
HETATM   10  C   UNL     1       6.254  33.756  62.282  1.00  0.00    -0.024 A 
HETATM   11  C   UNL     1       6.859  33.703  63.526  1.00  0.00    -0.026 A 
HETATM   12  C   UNL     1       5.183  34.782  62.297  1.00  0.00     0.207 C 
HETATM   13  C   UNL     1       6.200  34.678  64.430  1.00  0.00     0.207 C 
HETATM   14  C   UNL     1       7.889  32.818  63.779  1.00  0.00     0.012 A 
HETATM   15  O   UNL     1       5.352  35.466  63.563  1.00  0.00    -0.382 OA
HETATM   16  C   UNL     1       8.314  31.983  62.739  1.00  0.00     0.030 A 
ENDBRANCH   5   8
ENDBRANCH   1   2
BRANCH   1  17
HETATM   17  C   UNL     1       8.405  28.418  57.063  1.00  0.00     0.026 C 
BRANCH  17  18
HETATM   18  C   UNL     1       7.173  27.922  56.298  1.00  0.00     0.060 C 
BRANCH  18  19
HETATM   19  C   UNL     1       7.424  26.712  55.466  1.00  0.00     0.030 A 
HETATM   20  N   UNL     1       7.520  26.725  54.101  1.00  0.00    -0.282 N 
HETATM   21  H   UNL     1       7.469  27.516  53.463  1.00  0.00     0.189 HD
HETATM   22  N   UNL     1       7.696  25.506  53.567  1.00  0.00    -0.174 NA
HETATM   23  C   UNL     1       7.689  24.661  54.608  1.00  0.00     0.089 A 
HETATM   24  C   UNL     1       7.544  25.387  55.822  1.00  0.00     0.060 A 
BRANCH  23  25
HETATM   25  C   UNL     1       7.799  23.208  54.420  1.00  0.00    -0.003 A 
HETATM   26  C   UNL     1       7.636  22.321  55.490  1.00  0.00     0.056 A 
HETATM   27  C   UNL     1       7.723  20.948  55.278  1.00  0.00     0.117 A 
HETATM   28  F   UNL     1       7.559  20.113  56.313  1.00  0.00    -0.206 F 
HETATM   29  C   UNL     1       7.974  20.426  54.015  1.00  0.00     0.042 A 
HETATM   30  C   UNL     1       8.142  21.293  52.941  1.00  0.00     0.004 A 
HETATM   31  C   UNL     1       8.055  22.675  53.143  1.00  0.00     0.014 A 
ENDBRANCH  23  25
ENDBRANCH  18  19
ENDBRANCH  17  18
ENDBRANCH   1  17
TORSDOF 6
ENDMDL
MODEL 4
REMARK VINA RESULT:      -9.9      1.496      2.171
REMARK  6 active torsions:
REMARK  status: ('A' for Active; 'I' for Inactive)
REMARK       I    between atoms: N_2  and  C_3 
REMARK    1  A    between atoms: N_2  and  C_15 
REMARK       I    between atoms: C_3  and  N_4 
REMARK    2  A    between atoms: N_4  and  C_5 
REMARK    3  A    between atoms: C_15  and  C_16 
REMARK    4  A    between atoms: C_16  and  C_17 
REMARK    5  A    between atoms: C_17  and  C_18 
REMARK    6  A    between atoms: C_22  and  C_23 
ROOT
HETATM    1  C   UNL     1       6.515  28.031  53.753  1.00  0.00     0.127 C 
ENDROOT
BRANCH   1   2
HETATM    2  N   UNL     1       5.392  27.087  53.780  1.00  0.00    -0.338 N 
HETATM    3  C   UNL     1       4.149  27.565  53.181  1.00  0.00     0.154 C 
HETATM    4  C   UNL     1       5.523  25.704  53.895  1.00  0.00     0.322 C 
HETATM    5  N   UNL     1       6.646  25.282  54.562  1.00  0.00    -0.309 N 
HETATM    6  O   UNL     1       4.710  24.956  53.358  1.00  0.00    -0.247 OA
HETATM    7  H   UNL     1       7.089  25.963  55.157  1.00  0.00     0.170 HD
BRANCH   5   8
HETATM    8  C   UNL     1       7.161  23.969  54.647  1.00  0.00     0.036 A 
HETATM    9  C   UNL     1       7.402  23.152  53.538  1.00  0.00     0.039 A 
HETATM   10  C   UNL     1       7.926  21.884  53.744  1.00  0.00    -0.024 A 
HETATM   11  C   UNL     1       8.235  21.425  55.013  1.00  0.00    -0.026 A 
HETATM   12  C   UNL     1       8.265  20.839  52.746  1.00  0.00     0.207 C 
HETATM   13  C   UNL     1       8.814  20.063  54.912  1.00  0.00     0.207 C 
HETATM   14  C   UNL     1       8.020  22.215  56.126  1.00  0.00     0.012 A 
HETATM   15  O   UNL     1       8.588  19.670  53.539  1.00  0.00    -0.382 OA
HETATM   16  C   UNL     1       7.470  23.488  55.937  1.00  0.00     0.030 A 
ENDBRANCH   5   8
ENDBRANCH   1   2
BRANCH   1  17
HETATM   17  C   UNL     1       6.855  28.632  55.127  1.00  0.00     0.026 C 
BRANCH  17  18
HETATM   18  C   UNL     1       8.342  28.551  55.490  1.00  0.00     0.060 C 
BRANCH  18  19
HETATM   19  C   UNL     1       8.718  29.361  56.681  1.00  0.00     0.030 A 
HETATM   20  N   UNL     1       9.998  29.748  56.975  1.00  0.00    -0.282 N 
HETATM   21  H   UNL     1      10.852  29.584  56.447  1.00  0.00     0.189 HD
HETATM   22  N   UNL     1      10.099  30.425  58.129  1.00  0.00    -0.174 NA
HETATM   23  C   UNL     1       8.854  30.464  58.626  1.00  0.00     0.089 A 
HETATM   24  C   UNL     1       7.954  29.824  57.730  1.00  0.00     0.060 A 
BRANCH  23  25
HETATM   25  C   UNL     1       8.565  31.081  59.927  1.00  0.00    -0.003 A 
HETATM   26  C   UNL     1       7.629  32.115  60.050  1.00  0.00     0.056 A 
HETATM   27  C   UNL     1       7.358  32.666  61.300  1.00  0.00     0.117 A 
HETATM   28  F   UNL     1       6.456  33.651  61.400  1.00  0.00    -0.206 F 
HETATM   29  C   UNL     1       8.002  32.213  62.445  1.00  0.00     0.042 A 
HETATM   30  C   UNL     1       8.937  31.188  62.340  1.00  0.00     0.004 A 
HETATM   31  C   UNL     1       9.216  30.627  61.089  1.00  0.00     0.014 A 
ENDBRANCH  23  25
ENDBRANCH  18  19
ENDBRANCH  17  18
ENDBRANCH   1  17
TORSDOF 6
ENDMDL
MODEL 5
REMARK VINA RESULT:      -9.9      4.548     11.328
REMARK  6 active torsions:
REMARK  status: ('A' for Active; 'I' for Inactive)
REMARK       I    between atoms: N_2  and  C_3 
REMARK    1  A    between atoms: N_2  and  C_15 
REMARK       I    between atoms: C_3  and  N_4 
REMARK    2  A    between atoms: N_4  and  C_5 
REMARK    3  A    between atoms: C_15  and  C_16 
REMARK    4  A    between atoms: C_16  and  C_17 
REMARK    5  A    between atoms: C_17  and  C_18 
REMARK    6  A    between atoms: C_22  and  C_23 
ROOT
HETATM    1  C   UNL     1       5.930  29.543  57.693  1.00  0.00     0.127 C 
ENDROOT
BRANCH   1   2
HETATM    2  N   UNL     1       6.057  31.001  57.581  1.00  0.00    -0.338 N 
HETATM    3  C   UNL     1       5.516  31.593  56.362  1.00  0.00     0.154 C 
HETATM    4  C   UNL     1       6.216  31.866  58.663  1.00  0.00     0.322 C 
HETATM    5  N   UNL     1       6.831  31.315  59.760  1.00  0.00    -0.309 N 
HETATM    6  O   UNL     1       5.756  33.004  58.621  1.00  0.00    -0.247 OA
HETATM    7  H   UNL     1       7.373  30.483  59.592  1.00  0.00     0.170 HD
BRANCH   5   8
HETATM    8  C   UNL     1       6.934  31.860  61.060  1.00  0.00     0.036 A 
HETATM    9  C   UNL     1       5.835  32.224  61.843  1.00  0.00     0.039 A 
HETATM   10  C   UNL     1       6.060  32.734  63.114  1.00  0.00    -0.024 A 
HETATM   11  C   UNL     1       7.339  32.865  63.626  1.00  0.00    -0.026 A 
HETATM   12  C   UNL     1       5.074  33.190  64.126  1.00  0.00     0.207 C 
HETATM   13  C   UNL     1       7.259  33.393  65.010  1.00  0.00     0.207 C 
HETATM   14  C   UNL     1       8.444  32.500  62.880  1.00  0.00     0.012 A 
HETATM   15  O   UNL     1       5.878  33.791  65.170  1.00  0.00    -0.382 OA
HETATM   16  C   UNL     1       8.234  32.006  61.588  1.00  0.00     0.030 A 
ENDBRANCH   5   8
ENDBRANCH   1   2
BRANCH   1  17
HETATM   17  C   UNL     1       7.183  28.774  57.244  1.00  0.00     0.026 C 
BRANCH  17  18
HETATM   18  C   UNL     1       7.014  28.035  55.911  1.00  0.00     0.060 C 
BRANCH  18  19
HETATM   19  C   UNL     1       7.384  26.594  55.969  1.00  0.00     0.030 A 
HETATM   20  N   UNL     1       8.134  26.032  56.966  1.00  0.00    -0.282 N 
HETATM   21  H   UNL     1       8.519  26.469  57.801  1.00  0.00     0.189 HD
HETATM   22  N   UNL     1       8.385  24.728  56.776  1.00  0.00    -0.174 NA
HETATM   23  C   UNL     1       7.805  24.424  55.605  1.00  0.00     0.089 A 
HETATM   24  C   UNL     1       7.145  25.569  55.079  1.00  0.00     0.060 A 
BRANCH  23  25
HETATM   25  C   UNL     1       7.911  23.081  55.020  1.00  0.00    -0.003 A 
HETATM   26  C   UNL     1       8.044  21.944  55.827  1.00  0.00     0.056 A 
HETATM   27  C   UNL     1       8.119  20.681  55.245  1.00  0.00     0.117 A 
HETATM   28  F   UNL     1       8.241  19.604  56.032  1.00  0.00    -0.206 F 
HETATM   29  C   UNL     1       8.069  20.515  53.867  1.00  0.00     0.042 A 
HETATM   30  C   UNL     1       7.940  21.634  53.051  1.00  0.00     0.004 A 
HETATM   31  C   UNL     1       7.863  22.908  53.625  1.00  0.00     0.014 A 
ENDBRANCH  23  25
ENDBRANCH  18  19
ENDBRANCH  17  18
ENDBRANCH   1  17
TORSDOF 6
ENDMDL
MODEL 6
REMARK VINA RESULT:      -9.8      5.255      8.983
REMARK  6 active torsions:
REMARK  status: ('A' for Active; 'I' for Inactive)
REMARK       I    between atoms: N_2  and  C_3 
REMARK    1  A    between atoms: N_2  and  C_15 
REMARK       I    between atoms: C_3  and  N_4 
REMARK    2  A    between atoms: N_4  and  C_5 
REMARK    3  A    between atoms: C_15  and  C_16 
REMARK    4  A    between atoms: C_16  and  C_17 
REMARK    5  A    between atoms: C_17  and  C_18 
REMARK    6  A    between atoms: C_22  and  C_23 
ROOT
HETATM    1  C   UNL     1       5.020  27.321  56.213  1.00  0.00     0.127 C 
ENDROOT
BRANCH   1   2
HETATM    2  N   UNL     1       6.473  27.264  56.410  1.00  0.00    -0.338 N 
HETATM    3  C   UNL     1       7.009  28.153  57.436  1.00  0.00     0.154 C 
HETATM    4  C   UNL     1       7.277  26.180  56.059  1.00  0.00     0.322 C 
HETATM    5  N   UNL     1       6.806  25.423  55.015  1.00  0.00    -0.309 N 
HETATM    6  O   UNL     1       8.282  25.915  56.713  1.00  0.00    -0.247 OA
HETATM    7  H   UNL     1       6.131  25.869  54.416  1.00  0.00     0.170 HD
BRANCH   5   8
HETATM    8  C   UNL     1       7.271  24.162  54.581  1.00  0.00     0.036 A 
HETATM    9  C   UNL     1       7.327  23.027  55.396  1.00  0.00     0.039 A 
HETATM   10  C   UNL     1       7.787  21.836  54.853  1.00  0.00    -0.024 A 
HETATM   11  C   UNL     1       8.165  21.744  53.525  1.00  0.00    -0.026 A 
HETATM   12  C   UNL     1       7.942  20.511  55.503  1.00  0.00     0.207 C 
HETATM   13  C   UNL     1       8.567  20.347  53.227  1.00  0.00     0.207 C 
HETATM   14  C   UNL     1       8.108  22.845  52.692  1.00  0.00     0.012 A 
HETATM   15  O   UNL     1       8.636  19.703  54.521  1.00  0.00    -0.382 OA
HETATM   16  C   UNL     1       7.667  24.060  53.231  1.00  0.00     0.030 A 
ENDBRANCH   5   8
ENDBRANCH   1   2
BRANCH   1  17
HETATM   17  C   UNL     1       4.594  28.084  54.948  1.00  0.00     0.026 C 
BRANCH  17  18
HETATM   18  C   UNL     1       5.764  28.497  54.048  1.00  0.00     0.060 C 
BRANCH  18  19
HETATM   19  C   UNL     1       5.452  28.453  52.593  1.00  0.00     0.030 A 
HETATM   20  N   UNL     1       5.761  29.453  51.710  1.00  0.00    -0.282 N 
HETATM   21  H   UNL     1       6.251  30.328  51.881  1.00  0.00     0.189 HD
HETATM   22  N   UNL     1       5.332  29.214  50.461  1.00  0.00    -0.174 NA
HETATM   23  C   UNL     1       4.698  28.034  50.526  1.00  0.00     0.089 A 
HETATM   24  C   UNL     1       4.773  27.514  51.847  1.00  0.00     0.060 A 
BRANCH  23  25
HETATM   25  C   UNL     1       4.032  27.454  49.352  1.00  0.00    -0.003 A 
HETATM   26  C   UNL     1       3.943  26.067  49.177  1.00  0.00     0.056 A 
HETATM   27  C   UNL     1       3.286  25.545  48.066  1.00  0.00     0.117 A 
HETATM   28  F   UNL     1       3.205  24.216  47.917  1.00  0.00    -0.206 F 
HETATM   29  C   UNL     1       2.711  26.373  47.110  1.00  0.00     0.042 A 
HETATM   30  C   UNL     1       2.793  27.753  47.267  1.00  0.00     0.004 A 
HETATM   31  C   UNL     1       3.450  28.288  48.381  1.00  0.00     0.014 A 
ENDBRANCH  23  25
ENDBRANCH  18  19
ENDBRANCH  17  18
ENDBRANCH   1  17
TORSDOF 6
ENDMDL
MODEL 7
REMARK VINA RESULT:      -9.7      5.629      9.211
REMARK  6 active torsions:
REMARK  status: ('A' for Active; 'I' for Inactive)
REMARK       I    between atoms: N_2  and  C_3 
REMARK    1  A    between atoms: N_2  and  C_15 
REMARK       I    between atoms: C_3  and  N_4 
REMARK    2  A    between atoms: N_4  and  C_5 
REMARK    3  A    between atoms: C_15  and  C_16 
REMARK    4  A    between atoms: C_16  and  C_17 
REMARK    5  A    between atoms: C_17  and  C_18 
REMARK    6  A    between atoms: C_22  and  C_23 
ROOT
HETATM    1  C   UNL     1       4.412  29.674  50.723  1.00  0.00     0.127 C 
ENDROOT
BRANCH   1   2
HETATM    2  N   UNL     1       4.056  30.396  51.950  1.00  0.00    -0.338 N 
HETATM    3  C   UNL     1       2.953  31.344  51.830  1.00  0.00     0.154 C 
HETATM    4  C   UNL     1       4.343  29.953  53.241  1.00  0.00     0.322 C 
HETATM    5  N   UNL     1       5.453  29.152  53.345  1.00  0.00    -0.309 N 
HETATM    6  O   UNL     1       3.589  30.221  54.172  1.00  0.00    -0.247 OA
HETATM    7  H   UNL     1       6.112  29.209  52.585  1.00  0.00     0.170 HD
BRANCH   5   8
HETATM    8  C   UNL     1       5.867  28.384  54.457  1.00  0.00     0.036 A 
HETATM    9  C   UNL     1       7.126  28.493  55.055  1.00  0.00     0.039 A 
HETATM   10  C   UNL     1       7.414  27.697  56.154  1.00  0.00    -0.024 A 
HETATM   11  C   UNL     1       6.478  26.825  56.682  1.00  0.00    -0.026 A 
HETATM   12  C   UNL     1       8.662  27.625  56.954  1.00  0.00     0.207 C 
HETATM   13  C   UNL     1       7.055  26.149  57.870  1.00  0.00     0.207 C 
HETATM   14  C   UNL     1       5.220  26.707  56.121  1.00  0.00     0.012 A 
HETATM   15  O   UNL     1       8.458  26.500  57.844  1.00  0.00    -0.382 OA
HETATM   16  C   UNL     1       4.923  27.486  54.996  1.00  0.00     0.030 A 
ENDBRANCH   5   8
ENDBRANCH   1   2
BRANCH   1  17
HETATM   17  C   UNL     1       4.006  28.191  50.735  1.00  0.00     0.026 C 
BRANCH  17  18
HETATM   18  C   UNL     1       5.116  27.240  50.276  1.00  0.00     0.060 C 
BRANCH  18  19
HETATM   19  C   UNL     1       5.435  26.166  51.257  1.00  0.00     0.030 A 
HETATM   20  N   UNL     1       4.509  25.567  52.069  1.00  0.00    -0.282 N 
HETATM   21  H   UNL     1       3.505  25.724  52.117  1.00  0.00     0.189 HD
HETATM   22  N   UNL     1       5.039  24.665  52.908  1.00  0.00    -0.174 NA
HETATM   23  C   UNL     1       6.357  24.686  52.662  1.00  0.00     0.089 A 
HETATM   24  C   UNL     1       6.640  25.602  51.612  1.00  0.00     0.060 A 
BRANCH  23  25
HETATM   25  C   UNL     1       7.296  23.863  53.435  1.00  0.00    -0.003 A 
HETATM   26  C   UNL     1       7.828  22.678  52.910  1.00  0.00     0.056 A 
HETATM   27  C   UNL     1       8.734  21.929  53.656  1.00  0.00     0.117 A 
HETATM   28  F   UNL     1       9.236  20.801  53.136  1.00  0.00    -0.206 F 
HETATM   29  C   UNL     1       9.129  22.328  54.926  1.00  0.00     0.042 A 
HETATM   30  C   UNL     1       8.609  23.500  55.464  1.00  0.00     0.004 A 
HETATM   31  C   UNL     1       7.698  24.261  54.723  1.00  0.00     0.014 A 
ENDBRANCH  23  25
ENDBRANCH  18  19
ENDBRANCH  17  18
ENDBRANCH   1  17
TORSDOF 6
ENDMDL
MODEL 8
REMARK VINA RESULT:      -9.2      4.579     11.257
REMARK  6 active torsions:
REMARK  status: ('A' for Active; 'I' for Inactive)
REMARK       I    between atoms: N_2  and  C_3 
REMARK    1  A    between atoms: N_2  and  C_15 
REMARK       I    between atoms: C_3  and  N_4 
REMARK    2  A    between atoms: N_4  and  C_5 
REMARK    3  A    between atoms: C_15  and  C_16 
REMARK    4  A    between atoms: C_16  and  C_17 
REMARK    5  A    between atoms: C_17  and  C_18 
REMARK    6  A    between atoms: C_22  and  C_23 
ROOT
HETATM    1  C   UNL     1       6.431  29.901  56.397  1.00  0.00     0.127 C 
ENDROOT
BRANCH   1   2
HETATM    2  N   UNL     1       5.130  30.405  56.849  1.00  0.00    -0.338 N 
HETATM    3  C   UNL     1       3.961  29.787  56.230  1.00  0.00     0.154 C 
HETATM    4  C   UNL     1       4.910  31.045  58.068  1.00  0.00     0.322 C 
HETATM    5  N   UNL     1       5.996  31.715  58.575  1.00  0.00    -0.309 N 
HETATM    6  O   UNL     1       3.832  30.928  58.646  1.00  0.00    -0.247 OA
HETATM    7  H   UNL     1       6.720  31.947  57.915  1.00  0.00     0.170 HD
BRANCH   5   8
HETATM    8  C   UNL     1       6.148  32.264  59.868  1.00  0.00     0.036 A 
HETATM    9  C   UNL     1       7.139  31.867  60.772  1.00  0.00     0.039 A 
HETATM   10  C   UNL     1       7.202  32.491  62.010  1.00  0.00    -0.024 A 
HETATM   11  C   UNL     1       6.327  33.507  62.354  1.00  0.00    -0.026 A 
HETATM   12  C   UNL     1       8.145  32.251  63.130  1.00  0.00     0.207 C 
HETATM   13  C   UNL     1       6.666  34.003  63.711  1.00  0.00     0.207 C 
HETATM   14  C   UNL     1       5.348  33.930  61.476  1.00  0.00     0.012 A 
HETATM   15  O   UNL     1       7.622  33.046  64.222  1.00  0.00    -0.382 OA
HETATM   16  C   UNL     1       5.257  33.294  60.232  1.00  0.00     0.030 A 
ENDBRANCH   5   8
ENDBRANCH   1   2
BRANCH   1  17
HETATM   17  C   UNL     1       6.355  28.550  55.666  1.00  0.00     0.026 C 
BRANCH  17  18
HETATM   18  C   UNL     1       6.698  27.346  56.549  1.00  0.00     0.060 C 
BRANCH  18  19
HETATM   19  C   UNL     1       6.796  26.059  55.806  1.00  0.00     0.030 A 
HETATM   20  N   UNL     1       6.026  25.739  54.719  1.00  0.00    -0.282 N 
HETATM   21  H   UNL     1       5.322  26.301  54.247  1.00  0.00     0.189 HD
HETATM   22  N   UNL     1       6.255  24.504  54.249  1.00  0.00    -0.174 NA
HETATM   23  C   UNL     1       7.183  23.982  55.064  1.00  0.00     0.089 A 
HETATM   24  C   UNL     1       7.565  24.941  56.042  1.00  0.00     0.060 A 
BRANCH  23  25
HETATM   25  C   UNL     1       7.658  22.602  54.904  1.00  0.00    -0.003 A 
HETATM   26  C   UNL     1       7.760  22.009  53.639  1.00  0.00     0.056 A 
HETATM   27  C   UNL     1       8.236  20.706  53.515  1.00  0.00     0.117 A 
HETATM   28  F   UNL     1       8.331  20.156  52.297  1.00  0.00    -0.206 F 
HETATM   29  C   UNL     1       8.614  19.965  54.628  1.00  0.00     0.042 A 
HETATM   30  C   UNL     1       8.516  20.537  55.892  1.00  0.00     0.004 A 
HETATM   31  C   UNL     1       8.041  21.847  56.027  1.00  0.00     0.014 A 
ENDBRANCH  23  25
ENDBRANCH  18  19
ENDBRANCH  17  18
ENDBRANCH   1  17
TORSDOF 6
ENDMDL
MODEL 9
REMARK VINA RESULT:      -9.1      2.431      3.235
REMARK  6 active torsions:
REMARK  status: ('A' for Active; 'I' for Inactive)
REMARK       I    between atoms: N_2  and  C_3 
REMARK    1  A    between atoms: N_2  and  C_15 
REMARK       I    between atoms: C_3  and  N_4 
REMARK    2  A    between atoms: N_4  and  C_5 
REMARK    3  A    between atoms: C_15  and  C_16 
REMARK    4  A    between atoms: C_16  and  C_17 
REMARK    5  A    between atoms: C_17  and  C_18 
REMARK    6  A    between atoms: C_22  and  C_23 
ROOT
HETATM    1  C   UNL     1       5.235  27.151  56.935  1.00  0.00     0.127 C 
ENDROOT
BRANCH   1   2
HETATM    2  N   UNL     1       6.701  27.137  56.878  1.00  0.00    -0.338 N 
HETATM    3  C   UNL     1       7.382  27.988  57.848  1.00  0.00     0.154 C 
HETATM    4  C   UNL     1       7.461  26.103  56.331  1.00  0.00     0.322 C 
HETATM    5  N   UNL     1       6.838  25.387  55.339  1.00  0.00    -0.309 N 
HETATM    6  O   UNL     1       8.571  25.841  56.787  1.00  0.00    -0.247 OA
HETATM    7  H   UNL     1       6.058  25.840  54.892  1.00  0.00     0.170 HD
BRANCH   5   8
HETATM    8  C   UNL     1       7.255  24.169  54.758  1.00  0.00     0.036 A 
HETATM    9  C   UNL     1       7.405  22.975  55.469  1.00  0.00     0.039 A 
HETATM   10  C   UNL     1       7.805  21.836  54.786  1.00  0.00    -0.024 A 
HETATM   11  C   UNL     1       8.032  21.852  53.421  1.00  0.00    -0.026 A 
HETATM   12  C   UNL     1       8.035  20.466  55.308  1.00  0.00     0.207 C 
HETATM   13  C   UNL     1       8.402  20.487  52.972  1.00  0.00     0.207 C 
HETATM   14  C   UNL     1       7.879  23.014  52.689  1.00  0.00     0.012 A 
HETATM   15  O   UNL     1       8.616  19.745  54.194  1.00  0.00    -0.382 OA
HETATM   16  C   UNL     1       7.498  24.177  53.368  1.00  0.00     0.030 A 
ENDBRANCH   5   8
ENDBRANCH   1   2
BRANCH   1  17
HETATM   17  C   UNL     1       4.583  28.121  55.937  1.00  0.00     0.026 C 
BRANCH  17  18
HETATM   18  C   UNL     1       5.159  29.541  55.984  1.00  0.00     0.060 C 
BRANCH  18  19
HETATM   19  C   UNL     1       4.739  30.324  57.179  1.00  0.00     0.030 A 
HETATM   20  N   UNL     1       3.493  30.257  57.742  1.00  0.00    -0.282 N 
HETATM   21  H   UNL     1       2.701  29.676  57.476  1.00  0.00     0.189 HD
HETATM   22  N   UNL     1       3.330  31.093  58.778  1.00  0.00    -0.174 NA
HETATM   23  C   UNL     1       4.493  31.752  58.887  1.00  0.00     0.089 A 
HETATM   24  C   UNL     1       5.412  31.277  57.911  1.00  0.00     0.060 A 
BRANCH  23  25
HETATM   25  C   UNL     1       4.687  32.810  59.886  1.00  0.00    -0.003 A 
HETATM   26  C   UNL     1       5.766  32.780  60.778  1.00  0.00     0.056 A 
HETATM   27  C   UNL     1       5.938  33.809  61.700  1.00  0.00     0.117 A 
HETATM   28  F   UNL     1       6.979  33.767  62.543  1.00  0.00    -0.206 F 
HETATM   29  C   UNL     1       5.055  34.879  61.763  1.00  0.00     0.042 A 
HETATM   30  C   UNL     1       3.976  34.924  60.886  1.00  0.00     0.004 A 
HETATM   31  C   UNL     1       3.794  33.895  59.955  1.00  0.00     0.014 A 
ENDBRANCH  23  25
ENDBRANCH  18  19
ENDBRANCH  17  18
ENDBRANCH   1  17
TORSDOF 6
ENDMDL
MODEL 10
REMARK VINA RESULT:      -9.1      4.305     10.264
REMARK  6 active torsions:
REMARK  status: ('A' for Active; 'I' for Inactive)
REMARK       I    between atoms: N_2  and  C_3 
REMARK    1  A    between atoms: N_2  and  C_15 
REMARK       I    between atoms: C_3  and  N_4 
REMARK    2  A    between atoms: N_4  and  C_5 
REMARK    3  A    between atoms: C_15  and  C_16 
REMARK    4  A    between atoms: C_16  and  C_17 
REMARK    5  A    between atoms: C_17  and  C_18 
REMARK    6  A    between atoms: C_22  and  C_23 
ROOT
HETATM    1  C   UNL     1       4.538  30.839  54.639  1.00  0.00     0.127 C 
ENDROOT
BRANCH   1   2
HETATM    2  N   UNL     1       3.831  31.385  55.804  1.00  0.00    -0.338 N 
HETATM    3  C   UNL     1       2.375  31.406  55.708  1.00  0.00     0.154 C 
HETATM    4  C   UNL     1       4.361  31.450  57.092  1.00  0.00     0.322 C 
HETATM    5  N   UNL     1       5.729  31.543  57.152  1.00  0.00    -0.309 N 
HETATM    6  O   UNL     1       3.626  31.350  58.071  1.00  0.00    -0.247 OA
HETATM    7  H   UNL     1       6.187  31.863  56.314  1.00  0.00     0.170 HD
BRANCH   5   8
HETATM    8  C   UNL     1       6.558  31.407  58.288  1.00  0.00     0.036 A 
HETATM    9  C   UNL     1       6.484  32.236  59.411  1.00  0.00     0.039 A 
HETATM   10  C   UNL     1       7.340  31.995  60.476  1.00  0.00    -0.024 A 
HETATM   11  C   UNL     1       8.240  30.943  60.459  1.00  0.00    -0.026 A 
HETATM   12  C   UNL     1       7.459  32.724  61.763  1.00  0.00     0.207 C 
HETATM   13  C   UNL     1       8.981  30.914  61.744  1.00  0.00     0.207 C 
HETATM   14  C   UNL     1       8.325  30.099  59.369  1.00  0.00     0.012 A 
HETATM   15  O   UNL     1       8.631  32.156  62.396  1.00  0.00    -0.382 OA
HETATM   16  C   UNL     1       7.484  30.343  58.276  1.00  0.00     0.030 A 
ENDBRANCH   5   8
ENDBRANCH   1   2
BRANCH   1  17
HETATM   17  C   UNL     1       4.518  29.304  54.564  1.00  0.00     0.026 C 
BRANCH  17  18
HETATM   18  C   UNL     1       5.883  28.652  54.809  1.00  0.00     0.060 C 
BRANCH  18  19
HETATM   19  C   UNL     1       5.920  27.194  54.507  1.00  0.00     0.030 A 
HETATM   20  N   UNL     1       4.830  26.462  54.120  1.00  0.00    -0.282 N 
HETATM   21  H   UNL     1       3.876  26.775  53.954  1.00  0.00     0.189 HD
HETATM   22  N   UNL     1       5.094  25.157  53.957  1.00  0.00    -0.174 NA
HETATM   23  C   UNL     1       6.390  25.018  54.271  1.00  0.00     0.089 A 
HETATM   24  C   UNL     1       6.949  26.283  54.600  1.00  0.00     0.060 A 
BRANCH  23  25
HETATM   25  C   UNL     1       7.044  23.703  54.269  1.00  0.00    -0.003 A 
HETATM   26  C   UNL     1       7.270  23.000  55.459  1.00  0.00     0.056 A 
HETATM   27  C   UNL     1       7.872  21.745  55.424  1.00  0.00     0.117 A 
HETATM   28  F   UNL     1       8.075  21.084  56.572  1.00  0.00    -0.206 F 
HETATM   29  C   UNL     1       8.265  21.163  54.225  1.00  0.00     0.042 A 
HETATM   30  C   UNL     1       8.051  21.849  53.034  1.00  0.00     0.004 A 
HETATM   31  C   UNL     1       7.445  23.110  53.057  1.00  0.00     0.014 A 
ENDBRANCH  23  25
ENDBRANCH  18  19
ENDBRANCH  17  18
ENDBRANCH   1  17
TORSDOF 6
ENDMDL
