MODEL 1
REMARK VINA RESULT:     -10.2      0.000      0.000
REMARK  9 active torsions:
REMARK  status: ('A' for Active; 'I' for Inactive)
REMARK    1  A    between atoms: C_4  and  S_5 
REMARK    2  A    between atoms: S_5  and  C_6 
REMARK    3  A    between atoms: C_6  and  C_7 
REMARK       I    between atoms: C_7  and  N_8 
REMARK    4  A    between atoms: N_8  and  C_9 
REMARK    5  A    between atoms: C_10  and  O_11 
REMARK    6  A    between atoms: C_22  and  C_23 
REMARK    7  A    between atoms: C_29  and  C_30 
REMARK       I    between atoms: C_30  and  N_31 
REMARK    8  A    between atoms: N_31  and  C_32 
REMARK    9  A    between atoms: C_33  and  O_34 
ROOT
HETATM    1  C   UNL     1       9.946  30.677  58.278  1.00  0.00     0.069 C 
HETATM    2  C   UNL     1       8.499  30.387  57.949  1.00  0.00     0.019 A 
HETATM    3  N   UNL     1       8.316  29.510  56.896  1.00  0.00    -0.353 N 
HETATM    4  C   UNL     1       7.109  29.144  56.354  1.00  0.00     0.087 A 
HETATM    5  C   UNL     1       5.968  29.624  56.900  1.00  0.00     0.055 A 
HETATM    6  C   UNL     1       4.649  29.415  56.173  1.00  0.00     0.019 C 
HETATM    7  N   UNL     1       3.555  29.242  55.571  1.00  0.00    -0.096 N 
HETATM    8  C   UNL     1       6.009  30.643  58.051  1.00  0.00     0.104 A 
HETATM    9  C   UNL     1       7.425  30.939  58.574  1.00  0.00     0.046 A 
HETATM   10  H   UNL     1       9.139  29.151  56.420  1.00  0.00     0.166 HD
ENDROOT
BRANCH   4  11
HETATM   11  S   UNL     1       7.075  28.111  54.935  1.00  0.00    -0.102 SA
BRANCH  11  12
HETATM   12  C   UNL     1       7.469  26.502  55.709  1.00  0.00     0.184 C 
BRANCH  12  13
HETATM   13  C   UNL     1       6.221  25.669  55.864  1.00  0.00     0.231 C 
HETATM   14  N   UNL     1       6.148  24.359  55.502  1.00  0.00    -0.324 N 
HETATM   15  H   UNL     1       5.197  24.008  55.597  1.00  0.00     0.169 HD
HETATM   16  O   UNL     1       5.191  26.189  56.314  1.00  0.00    -0.272 OA
BRANCH  14  17
HETATM   17  C   UNL     1       7.035  23.402  54.961  1.00  0.00     0.070 A 
HETATM   18  C   UNL     1       7.168  23.428  53.549  1.00  0.00     0.095 A 
HETATM   19  C   UNL     1       8.038  22.544  52.906  1.00  0.00     0.041 A 
HETATM   20  C   UNL     1       8.767  21.617  53.649  1.00  0.00     0.026 A 
HETATM   21  C   UNL     1       8.619  21.575  55.031  1.00  0.00     0.036 A 
HETATM   22 CL   UNL     1       9.506  20.413  55.943  1.00  0.00    -0.084 Cl
HETATM   23  C   UNL     1       7.756  22.456  55.687  1.00  0.00     0.056 A 
BRANCH  18  24
HETATM   24  O   UNL     1       6.404  24.376  52.908  1.00  0.00    -0.354 OA
HETATM   25  C   UNL     1       7.076  25.285  52.048  1.00  0.00     0.210 C 
ENDBRANCH  18  24
ENDBRANCH  14  17
ENDBRANCH  12  13
ENDBRANCH  11  12
ENDBRANCH   4  11
BRANCH   8  26
HETATM   26  C   UNL     1       5.259  31.904  57.594  1.00  0.00    -0.044 A 
HETATM   27  C   UNL     1       4.234  32.434  58.398  1.00  0.00     0.008 A 
HETATM   28  C   UNL     1       3.501  33.543  57.974  1.00  0.00     0.001 A 
HETATM   29  C   UNL     1       3.780  34.135  56.745  1.00  0.00     0.000 A 
HETATM   30  C   UNL     1       4.787  33.615  55.933  1.00  0.00     0.001 A 
HETATM   31  C   UNL     1       5.520  32.502  56.349  1.00  0.00     0.008 A 
ENDBRANCH   8  26
BRANCH   9  32
HETATM   32  C   UNL     1       7.659  31.747  59.830  1.00  0.00     0.255 C 
HETATM   33  N   UNL     1       7.159  31.238  61.002  1.00  0.00    -0.321 N 
HETATM   34  H   UNL     1       6.818  30.287  61.050  1.00  0.00     0.169 HD
HETATM   35  O   UNL     1       8.320  32.783  59.773  1.00  0.00    -0.268 OA
BRANCH  33  36
HETATM   36  C   UNL     1       7.026  31.910  62.243  1.00  0.00     0.068 A 
HETATM   37  C   UNL     1       5.721  32.260  62.651  1.00  0.00     0.095 A 
HETATM   38  C   UNL     1       5.533  32.980  63.835  1.00  0.00     0.039 A 
HETATM   39  C   UNL     1       6.632  33.360  64.607  1.00  0.00     0.003 A 
HETATM   40  C   UNL     1       7.920  33.017  64.205  1.00  0.00     0.002 A 
HETATM   41  C   UNL     1       8.117  32.291  63.028  1.00  0.00     0.032 A 
BRANCH  37  42
HETATM   42  O   UNL     1       4.708  31.835  61.822  1.00  0.00    -0.354 OA
HETATM   43  C   UNL     1       3.481  32.552  61.880  1.00  0.00     0.210 C 
ENDBRANCH  37  42
ENDBRANCH  33  36
ENDBRANCH   9  32
TORSDOF 9
ENDMDL
MODEL 2
REMARK VINA RESULT:     -10.1      5.063      9.081
REMARK  9 active torsions:
REMARK  status: ('A' for Active; 'I' for Inactive)
REMARK    1  A    between atoms: C_4  and  S_5 
REMARK    2  A    between atoms: S_5  and  C_6 
REMARK    3  A    between atoms: C_6  and  C_7 
REMARK       I    between atoms: C_7  and  N_8 
REMARK    4  A    between atoms: N_8  and  C_9 
REMARK    5  A    between atoms: C_10  and  O_11 
REMARK    6  A    between atoms: C_22  and  C_23 
REMARK    7  A    between atoms: C_29  and  C_30 
REMARK       I    between atoms: C_30  and  N_31 
REMARK    8  A    between atoms: N_31  and  C_32 
REMARK    9  A    between atoms: C_33  and  O_34 
ROOT
HETATM    1  C   UNL     1       6.078  25.928  50.985  1.00  0.00     0.069 C 
HETATM    2  C   UNL     1       5.731  26.493  52.345  1.00  0.00     0.019 A 
HETATM    3  N   UNL     1       4.769  27.485  52.324  1.00  0.00    -0.353 N 
HETATM    4  C   UNL     1       4.335  28.208  53.408  1.00  0.00     0.087 A 
HETATM    5  C   UNL     1       4.833  27.922  54.633  1.00  0.00     0.055 A 
HETATM    6  C   UNL     1       4.538  28.859  55.793  1.00  0.00     0.019 C 
HETATM    7  N   UNL     1       4.294  29.636  56.757  1.00  0.00    -0.096 N 
HETATM    8  C   UNL     1       5.941  26.871  54.813  1.00  0.00     0.104 A 
HETATM    9  C   UNL     1       6.308  26.123  53.519  1.00  0.00     0.046 A 
HETATM   10  H   UNL     1       4.391  27.771  51.425  1.00  0.00     0.166 HD
ENDROOT
BRANCH   4  11
HETATM   11  S   UNL     1       3.192  29.518  53.172  1.00  0.00    -0.102 SA
BRANCH  11  12
HETATM   12  C   UNL     1       3.906  30.295  51.680  1.00  0.00     0.184 C 
BRANCH  12  13
HETATM   13  C   UNL     1       2.826  30.599  50.672  1.00  0.00     0.231 C 
HETATM   14  N   UNL     1       2.683  29.917  49.503  1.00  0.00    -0.324 N 
HETATM   15  H   UNL     1       1.958  30.338  48.923  1.00  0.00     0.169 HD
HETATM   16  O   UNL     1       2.036  31.529  50.885  1.00  0.00    -0.272 OA
BRANCH  14  17
HETATM   17  C   UNL     1       3.333  28.836  48.869  1.00  0.00     0.070 A 
HETATM   18  C   UNL     1       4.503  29.173  48.140  1.00  0.00     0.095 A 
HETATM   19  C   UNL     1       5.243  28.180  47.494  1.00  0.00     0.041 A 
HETATM   20  C   UNL     1       4.824  26.852  47.548  1.00  0.00     0.026 A 
HETATM   21  C   UNL     1       3.664  26.523  48.241  1.00  0.00     0.036 A 
HETATM   22 CL   UNL     1       3.140  24.883  48.286  1.00  0.00    -0.084 Cl
HETATM   23  C   UNL     1       2.918  27.506  48.896  1.00  0.00     0.056 A 
BRANCH  18  24
HETATM   24  O   UNL     1       4.828  30.511  48.147  1.00  0.00    -0.354 OA
HETATM   25  C   UNL     1       4.718  31.215  46.918  1.00  0.00     0.210 C 
ENDBRANCH  18  24
ENDBRANCH  14  17
ENDBRANCH  12  13
ENDBRANCH  11  12
ENDBRANCH   4  11
BRANCH   8  26
HETATM   26  C   UNL     1       7.145  27.561  55.473  1.00  0.00    -0.044 A 
HETATM   27  C   UNL     1       7.385  27.376  56.847  1.00  0.00     0.008 A 
HETATM   28  C   UNL     1       8.438  28.040  57.478  1.00  0.00     0.001 A 
HETATM   29  C   UNL     1       9.261  28.894  56.749  1.00  0.00     0.000 A 
HETATM   30  C   UNL     1       9.029  29.093  55.389  1.00  0.00     0.001 A 
HETATM   31  C   UNL     1       7.974  28.437  54.753  1.00  0.00     0.008 A 
ENDBRANCH   8  26
BRANCH   9  32
HETATM   32  C   UNL     1       7.219  24.917  53.527  1.00  0.00     0.255 C 
HETATM   33  N   UNL     1       6.704  23.749  54.032  1.00  0.00    -0.321 N 
HETATM   34  H   UNL     1       5.714  23.655  54.213  1.00  0.00     0.169 HD
HETATM   35  O   UNL     1       8.347  25.003  53.043  1.00  0.00    -0.268 OA
BRANCH  33  36
HETATM   36  C   UNL     1       7.417  22.573  54.375  1.00  0.00     0.068 A 
HETATM   37  C   UNL     1       7.917  22.484  55.693  1.00  0.00     0.095 A 
HETATM   38  C   UNL     1       8.683  21.377  56.072  1.00  0.00     0.039 A 
HETATM   39  C   UNL     1       8.961  20.367  55.148  1.00  0.00     0.003 A 
HETATM   40  C   UNL     1       8.471  20.456  53.848  1.00  0.00     0.002 A 
HETATM   41  C   UNL     1       7.698  21.553  53.464  1.00  0.00     0.032 A 
BRANCH  37  42
HETATM   42  O   UNL     1       7.583  23.528  56.524  1.00  0.00    -0.354 OA
HETATM   43  C   UNL     1       8.640  24.135  57.257  1.00  0.00     0.210 C 
ENDBRANCH  37  42
ENDBRANCH  33  36
ENDBRANCH   9  32
TORSDOF 9
ENDMDL
MODEL 3
REMARK VINA RESULT:      -9.9      5.005      9.392
REMARK  9 active torsions:
REMARK  status: ('A' for Active; 'I' for Inactive)
REMARK    1  A    between atoms: C_4  and  S_5 
REMARK    2  A    between atoms: S_5  and  C_6 
REMARK    3  A    between atoms: C_6  and  C_7 
REMARK       I    between atoms: C_7  and  N_8 
REMARK    4  A    between atoms: N_8  and  C_9 
REMARK    5  A    between atoms: C_10  and  O_11 
REMARK    6  A    between atoms: C_22  and  C_23 
REMARK    7  A    between atoms: C_29  and  C_30 
REMARK       I    between atoms: C_30  and  N_31 
REMARK    8  A    between atoms: N_31  and  C_32 
REMARK    9  A    between atoms: C_33  and  O_34 
ROOT
HETATM    1  C   UNL     1       5.615  26.337  50.828  1.00  0.00     0.069 C 
HETATM    2  C   UNL     1       5.221  27.211  51.998  1.00  0.00     0.019 A 
HETATM    3  N   UNL     1       4.849  28.496  51.653  1.00  0.00    -0.353 N 
HETATM    4  C   UNL     1       4.523  29.502  52.529  1.00  0.00     0.087 A 
HETATM    5  C   UNL     1       4.506  29.240  53.857  1.00  0.00     0.055 A 
HETATM    6  C   UNL     1       4.375  30.392  54.840  1.00  0.00     0.019 C 
HETATM    7  N   UNL     1       4.267  31.347  55.657  1.00  0.00    -0.096 N 
HETATM    8  C   UNL     1       4.936  27.867  54.399  1.00  0.00     0.104 A 
HETATM    9  C   UNL     1       5.247  26.832  53.304  1.00  0.00     0.046 A 
HETATM   10  H   UNL     1       4.885  28.761  50.673  1.00  0.00     0.166 HD
ENDROOT
BRANCH   4  11
HETATM   11  S   UNL     1       4.193  31.112  51.913  1.00  0.00    -0.102 SA
BRANCH  11  12
HETATM   12  C   UNL     1       3.204  30.687  50.436  1.00  0.00     0.184 C 
BRANCH  12  13
HETATM   13  C   UNL     1       4.023  30.861  49.181  1.00  0.00     0.231 C 
HETATM   14  N   UNL     1       3.915  30.042  48.100  1.00  0.00    -0.324 N 
HETATM   15  H   UNL     1       4.620  30.269  47.400  1.00  0.00     0.169 HD
HETATM   16  O   UNL     1       4.862  31.770  49.121  1.00  0.00    -0.272 OA
BRANCH  14  17
HETATM   17  C   UNL     1       3.132  28.921  47.747  1.00  0.00     0.070 A 
HETATM   18  C   UNL     1       1.925  29.215  47.061  1.00  0.00     0.095 A 
HETATM   19  C   UNL     1       1.083  28.183  46.639  1.00  0.00     0.041 A 
HETATM   20  C   UNL     1       1.416  26.857  46.908  1.00  0.00     0.026 A 
HETATM   21  C   UNL     1       2.586  26.569  47.603  1.00  0.00     0.036 A 
HETATM   22 CL   UNL     1       2.982  24.929  47.951  1.00  0.00    -0.084 Cl
HETATM   23  C   UNL     1       3.440  27.591  48.025  1.00  0.00     0.056 A 
BRANCH  18  24
HETATM   24  O   UNL     1       1.687  30.554  46.848  1.00  0.00    -0.354 OA
HETATM   25  C   UNL     1       0.516  31.110  47.431  1.00  0.00     0.210 C 
ENDBRANCH  18  24
ENDBRANCH  14  17
ENDBRANCH  12  13
ENDBRANCH  11  12
ENDBRANCH   4  11
BRANCH   8  26
HETATM   26  C   UNL     1       6.106  28.088  55.371  1.00  0.00    -0.044 A 
HETATM   27  C   UNL     1       7.339  28.555  54.881  1.00  0.00     0.008 A 
HETATM   28  C   UNL     1       8.431  28.705  55.737  1.00  0.00     0.001 A 
HETATM   29  C   UNL     1       8.306  28.392  57.088  1.00  0.00     0.000 A 
HETATM   30  C   UNL     1       7.093  27.920  57.585  1.00  0.00     0.001 A 
HETATM   31  C   UNL     1       5.999  27.761  56.734  1.00  0.00     0.008 A 
ENDBRANCH   8  26
BRANCH   9  32
HETATM   32  C   UNL     1       5.483  25.375  53.629  1.00  0.00     0.255 C 
HETATM   33  N   UNL     1       6.761  25.012  53.975  1.00  0.00    -0.321 N 
HETATM   34  H   UNL     1       7.461  25.712  54.182  1.00  0.00     0.169 HD
HETATM   35  O   UNL     1       4.536  24.589  53.626  1.00  0.00    -0.268 OA
BRANCH  33  36
HETATM   36  C   UNL     1       7.283  23.698  54.075  1.00  0.00     0.068 A 
HETATM   37  C   UNL     1       7.655  23.248  55.361  1.00  0.00     0.095 A 
HETATM   38  C   UNL     1       8.234  21.984  55.515  1.00  0.00     0.039 A 
HETATM   39  C   UNL     1       8.454  21.174  54.399  1.00  0.00     0.003 A 
HETATM   40  C   UNL     1       8.090  21.617  53.131  1.00  0.00     0.002 A 
HETATM   41  C   UNL     1       7.503  22.874  52.969  1.00  0.00     0.032 A 
BRANCH  37  42
HETATM   42  O   UNL     1       7.392  24.121  56.392  1.00  0.00    -0.354 OA
HETATM   43  C   UNL     1       8.470  24.435  57.264  1.00  0.00     0.210 C 
ENDBRANCH  37  42
ENDBRANCH  33  36
ENDBRANCH   9  32
TORSDOF 9
ENDMDL
MODEL 4
REMARK VINA RESULT:      -9.9      4.339      8.598
REMARK  9 active torsions:
REMARK  status: ('A' for Active; 'I' for Inactive)
REMARK    1  A    between atoms: C_4  and  S_5 
REMARK    2  A    between atoms: S_5  and  C_6 
REMARK    3  A    between atoms: C_6  and  C_7 
REMARK       I    between atoms: C_7  and  N_8 
REMARK    4  A    between atoms: N_8  and  C_9 
REMARK    5  A    between atoms: C_10  and  O_11 
REMARK    6  A    between atoms: C_22  and  C_23 
REMARK    7  A    between atoms: C_29  and  C_30 
REMARK       I    between atoms: C_30  and  N_31 
REMARK    8  A    between atoms: N_31  and  C_32 
REMARK    9  A    between atoms: C_33  and  O_34 
ROOT
HETATM    1  C   UNL     1       4.974  25.575  53.103  1.00  0.00     0.069 C 
HETATM    2  C   UNL     1       4.957  26.802  53.987  1.00  0.00     0.019 A 
HETATM    3  N   UNL     1       4.414  27.927  53.395  1.00  0.00    -0.353 N 
HETATM    4  C   UNL     1       4.351  29.180  53.954  1.00  0.00     0.087 A 
HETATM    5  C   UNL     1       4.807  29.363  55.214  1.00  0.00     0.055 A 
HETATM    6  C   UNL     1       4.956  30.776  55.754  1.00  0.00     0.019 C 
HETATM    7  N   UNL     1       5.080  31.949  56.202  1.00  0.00    -0.096 N 
HETATM    8  C   UNL     1       5.478  28.216  55.989  1.00  0.00     0.104 A 
HETATM    9  C   UNL     1       5.453  26.866  55.251  1.00  0.00     0.046 A 
HETATM   10  H   UNL     1       4.095  27.858  52.433  1.00  0.00     0.166 HD
ENDROOT
BRANCH   4  11
HETATM   11  S   UNL     1       3.736  30.521  53.003  1.00  0.00    -0.102 SA
BRANCH  11  12
HETATM   12  C   UNL     1       3.424  29.666  51.418  1.00  0.00     0.184 C 
BRANCH  12  13
HETATM   13  C   UNL     1       4.689  29.591  50.599  1.00  0.00     0.231 C 
HETATM   14  N   UNL     1       4.809  28.827  49.479  1.00  0.00    -0.324 N 
HETATM   15  H   UNL     1       5.766  28.841  49.131  1.00  0.00     0.169 HD
HETATM   16  O   UNL     1       5.689  30.227  50.960  1.00  0.00    -0.272 OA
BRANCH  14  17
HETATM   17  C   UNL     1       3.967  27.970  48.737  1.00  0.00     0.070 A 
HETATM   18  C   UNL     1       3.109  28.616  47.810  1.00  0.00     0.095 A 
HETATM   19  C   UNL     1       2.250  27.866  47.002  1.00  0.00     0.041 A 
HETATM   20  C   UNL     1       2.219  26.478  47.118  1.00  0.00     0.026 A 
HETATM   21  C   UNL     1       3.042  25.845  48.044  1.00  0.00     0.036 A 
HETATM   22 CL   UNL     1       2.983  24.131  48.197  1.00  0.00    -0.084 Cl
HETATM   23  C   UNL     1       3.909  26.583  48.853  1.00  0.00     0.056 A 
BRANCH  18  24
HETATM   24  O   UNL     1       3.213  29.988  47.776  1.00  0.00    -0.354 OA
HETATM   25  C   UNL     1       2.028  30.739  47.996  1.00  0.00     0.210 C 
ENDBRANCH  18  24
ENDBRANCH  14  17
ENDBRANCH  12  13
ENDBRANCH  11  12
ENDBRANCH   4  11
BRANCH   8  26
HETATM   26  C   UNL     1       6.895  28.669  56.372  1.00  0.00    -0.044 A 
HETATM   27  C   UNL     1       7.893  28.743  55.383  1.00  0.00     0.008 A 
HETATM   28  C   UNL     1       9.201  29.095  55.720  1.00  0.00     0.001 A 
HETATM   29  C   UNL     1       9.528  29.375  57.043  1.00  0.00     0.000 A 
HETATM   30  C   UNL     1       8.552  29.297  58.035  1.00  0.00     0.001 A 
HETATM   31  C   UNL     1       7.244  28.940  57.706  1.00  0.00     0.008 A 
ENDBRANCH   8  26
BRANCH   9  32
HETATM   32  C   UNL     1       5.871  25.581  55.928  1.00  0.00     0.255 C 
HETATM   33  N   UNL     1       7.075  25.040  55.550  1.00  0.00    -0.321 N 
HETATM   34  H   UNL     1       7.728  25.570  54.989  1.00  0.00     0.169 HD
HETATM   35  O   UNL     1       5.165  25.100  56.813  1.00  0.00    -0.268 OA
BRANCH  33  36
HETATM   36  C   UNL     1       7.563  23.741  55.843  1.00  0.00     0.068 A 
HETATM   37  C   UNL     1       7.489  22.778  54.814  1.00  0.00     0.095 A 
HETATM   38  C   UNL     1       7.897  21.463  55.062  1.00  0.00     0.039 A 
HETATM   39  C   UNL     1       8.365  21.101  56.327  1.00  0.00     0.003 A 
HETATM   40  C   UNL     1       8.435  22.050  57.343  1.00  0.00     0.002 A 
HETATM   41  C   UNL     1       8.039  23.367  57.101  1.00  0.00     0.032 A 
BRANCH  37  42
HETATM   42  O   UNL     1       7.018  23.237  53.605  1.00  0.00    -0.354 OA
HETATM   43  C   UNL     1       7.979  23.482  52.587  1.00  0.00     0.210 C 
ENDBRANCH  37  42
ENDBRANCH  33  36
ENDBRANCH   9  32
TORSDOF 9
ENDMDL
MODEL 5
REMARK VINA RESULT:      -9.7      5.250      9.592
REMARK  9 active torsions:
REMARK  status: ('A' for Active; 'I' for Inactive)
REMARK    1  A    between atoms: C_4  and  S_5 
REMARK    2  A    between atoms: S_5  and  C_6 
REMARK    3  A    between atoms: C_6  and  C_7 
REMARK       I    between atoms: C_7  and  N_8 
REMARK    4  A    between atoms: N_8  and  C_9 
REMARK    5  A    between atoms: C_10  and  O_11 
REMARK    6  A    between atoms: C_22  and  C_23 
REMARK    7  A    between atoms: C_29  and  C_30 
REMARK       I    between atoms: C_30  and  N_31 
REMARK    8  A    between atoms: N_31  and  C_32 
REMARK    9  A    between atoms: C_33  and  O_34 
ROOT
HETATM    1  C   UNL     1       5.188  25.335  51.909  1.00  0.00     0.069 C 
HETATM    2  C   UNL     1       5.009  26.353  53.014  1.00  0.00     0.019 A 
HETATM    3  N   UNL     1       4.330  27.495  52.634  1.00  0.00    -0.353 N 
HETATM    4  C   UNL     1       4.104  28.596  53.423  1.00  0.00     0.087 A 
HETATM    5  C   UNL     1       4.526  28.584  54.709  1.00  0.00     0.055 A 
HETATM    6  C   UNL     1       4.489  29.872  55.516  1.00  0.00     0.019 C 
HETATM    7  N   UNL     1       4.459  30.940  56.186  1.00  0.00    -0.096 N 
HETATM    8  C   UNL     1       5.334  27.401  55.266  1.00  0.00     0.104 A 
HETATM    9  C   UNL     1       5.486  26.229  54.281  1.00  0.00     0.046 A 
HETATM   10  H   UNL     1       4.027  27.577  51.668  1.00  0.00     0.166 HD
ENDROOT
BRANCH   4  11
HETATM   11  S   UNL     1       3.327  30.010  52.732  1.00  0.00    -0.102 SA
BRANCH  11  12
HETATM   12  C   UNL     1       2.703  29.295  51.170  1.00  0.00     0.184 C 
BRANCH  12  13
HETATM   13  C   UNL     1       3.730  29.438  50.074  1.00  0.00     0.231 C 
HETATM   14  N   UNL     1       3.455  29.215  48.760  1.00  0.00    -0.324 N 
HETATM   15  H   UNL     1       4.302  29.271  48.197  1.00  0.00     0.169 HD
HETATM   16  O   UNL     1       4.894  29.747  50.365  1.00  0.00    -0.272 OA
BRANCH  14  17
HETATM   17  C   UNL     1       2.318  28.852  48.006  1.00  0.00     0.070 A 
HETATM   18  C   UNL     1       2.153  27.460  47.787  1.00  0.00     0.095 A 
HETATM   19  C   UNL     1       1.049  26.983  47.076  1.00  0.00     0.041 A 
HETATM   20  C   UNL     1       0.112  27.877  46.561  1.00  0.00     0.026 A 
HETATM   21  C   UNL     1       0.285  29.243  46.754  1.00  0.00     0.036 A 
HETATM   22 CL   UNL     1      -0.865  30.344  46.097  1.00  0.00    -0.084 Cl
HETATM   23  C   UNL     1       1.382  29.733  47.467  1.00  0.00     0.056 A 
BRANCH  18  24
HETATM   24  O   UNL     1       3.134  26.664  48.333  1.00  0.00    -0.354 OA
HETATM   25  C   UNL     1       3.142  25.292  47.964  1.00  0.00     0.210 C 
ENDBRANCH  18  24
ENDBRANCH  14  17
ENDBRANCH  12  13
ENDBRANCH  11  12
ENDBRANCH   4  11
BRANCH   8  26
HETATM   26  C   UNL     1       6.679  27.943  55.772  1.00  0.00    -0.044 A 
HETATM   27  C   UNL     1       6.929  28.005  57.155  1.00  0.00     0.008 A 
HETATM   28  C   UNL     1       8.120  28.548  57.637  1.00  0.00     0.001 A 
HETATM   29  C   UNL     1       9.075  29.035  56.748  1.00  0.00     0.000 A 
HETATM   30  C   UNL     1       8.837  28.988  55.375  1.00  0.00     0.001 A 
HETATM   31  C   UNL     1       7.645  28.452  54.887  1.00  0.00     0.008 A 
ENDBRANCH   8  26
BRANCH   9  32
HETATM   32  C   UNL     1       6.062  24.898  54.708  1.00  0.00     0.255 C 
HETATM   33  N   UNL     1       7.169  24.452  54.031  1.00  0.00    -0.321 N 
HETATM   34  H   UNL     1       7.679  25.064  53.409  1.00  0.00     0.169 HD
HETATM   35  O   UNL     1       5.567  24.298  55.661  1.00  0.00    -0.268 OA
BRANCH  33  36
HETATM   36  C   UNL     1       7.732  23.151  54.069  1.00  0.00     0.068 A 
HETATM   37  C   UNL     1       8.708  22.899  55.058  1.00  0.00     0.095 A 
HETATM   38  C   UNL     1       9.344  21.655  55.106  1.00  0.00     0.039 A 
HETATM   39  C   UNL     1       9.025  20.668  54.171  1.00  0.00     0.003 A 
HETATM   40  C   UNL     1       8.065  20.916  53.193  1.00  0.00     0.002 A 
HETATM   41  C   UNL     1       7.418  22.152  53.145  1.00  0.00     0.032 A 
BRANCH  37  42
HETATM   42  O   UNL     1       8.946  23.936  55.931  1.00  0.00    -0.354 OA
HETATM   43  C   UNL     1       8.601  23.725  57.294  1.00  0.00     0.210 C 
ENDBRANCH  37  42
ENDBRANCH  33  36
ENDBRANCH   9  32
TORSDOF 9
ENDMDL
MODEL 6
REMARK VINA RESULT:      -9.6      3.422      9.193
REMARK  9 active torsions:
REMARK  status: ('A' for Active; 'I' for Inactive)
REMARK    1  A    between atoms: C_4  and  S_5 
REMARK    2  A    between atoms: S_5  and  C_6 
REMARK    3  A    between atoms: C_6  and  C_7 
REMARK       I    between atoms: C_7  and  N_8 
REMARK    4  A    between atoms: N_8  and  C_9 
REMARK    5  A    between atoms: C_10  and  O_11 
REMARK    6  A    between atoms: C_22  and  C_23 
REMARK    7  A    between atoms: C_29  and  C_30 
REMARK       I    between atoms: C_30  and  N_31 
REMARK    8  A    between atoms: N_31  and  C_32 
REMARK    9  A    between atoms: C_33  and  O_34 
ROOT
HETATM    1  C   UNL     1       5.188  25.998  57.026  1.00  0.00     0.069 C 
HETATM    2  C   UNL     1       5.185  27.320  56.291  1.00  0.00     0.019 A 
HETATM    3  N   UNL     1       4.495  28.331  56.934  1.00  0.00    -0.353 N 
HETATM    4  C   UNL     1       4.280  29.595  56.444  1.00  0.00     0.087 A 
HETATM    5  C   UNL     1       4.814  29.940  55.250  1.00  0.00     0.055 A 
HETATM    6  C   UNL     1       4.393  31.246  54.596  1.00  0.00     0.019 C 
HETATM    7  N   UNL     1       4.045  32.330  54.052  1.00  0.00    -0.096 N 
HETATM    8  C   UNL     1       5.573  28.912  54.395  1.00  0.00     0.104 A 
HETATM    9  C   UNL     1       5.762  27.547  55.081  1.00  0.00     0.046 A 
HETATM   10  H   UNL     1       4.036  28.116  57.815  1.00  0.00     0.166 HD
ENDROOT
BRANCH   4  11
HETATM   11  S   UNL     1       3.272  30.713  57.348  1.00  0.00    -0.102 SA
BRANCH  11  12
HETATM   12  C   UNL     1       4.430  31.166  58.689  1.00  0.00     0.184 C 
BRANCH  12  13
HETATM   13  C   UNL     1       5.295  32.329  58.271  1.00  0.00     0.231 C 
HETATM   14  N   UNL     1       6.444  32.674  58.915  1.00  0.00    -0.324 N 
HETATM   15  H   UNL     1       6.825  33.540  58.539  1.00  0.00     0.169 HD
HETATM   16  O   UNL     1       4.948  33.036  57.315  1.00  0.00    -0.272 OA
BRANCH  14  17
HETATM   17  C   UNL     1       7.184  32.178  60.011  1.00  0.00     0.070 A 
HETATM   18  C   UNL     1       8.051  31.094  59.718  1.00  0.00     0.095 A 
HETATM   19  C   UNL     1       8.851  30.540  60.720  1.00  0.00     0.041 A 
HETATM   20  C   UNL     1       8.788  31.039  62.019  1.00  0.00     0.026 A 
HETATM   21  C   UNL     1       7.920  32.085  62.313  1.00  0.00     0.036 A 
HETATM   22 CL   UNL     1       7.830  32.684  63.926  1.00  0.00    -0.084 Cl
HETATM   23  C   UNL     1       7.118  32.652  61.320  1.00  0.00     0.056 A 
BRANCH  18  24
HETATM   24  O   UNL     1       8.036  30.674  58.407  1.00  0.00    -0.354 OA
HETATM   25  C   UNL     1       7.801  29.294  58.166  1.00  0.00     0.210 C 
ENDBRANCH  18  24
ENDBRANCH  14  17
ENDBRANCH  12  13
ENDBRANCH  11  12
ENDBRANCH   4  11
BRANCH   8  26
HETATM   26  C   UNL     1       4.866  28.812  53.035  1.00  0.00    -0.044 A 
HETATM   27  C   UNL     1       5.608  28.971  51.851  1.00  0.00     0.008 A 
HETATM   28  C   UNL     1       4.976  28.942  50.608  1.00  0.00     0.001 A 
HETATM   29  C   UNL     1       3.598  28.756  50.531  1.00  0.00     0.000 A 
HETATM   30  C   UNL     1       2.848  28.606  51.696  1.00  0.00     0.001 A 
HETATM   31  C   UNL     1       3.474  28.640  52.943  1.00  0.00     0.008 A 
ENDBRANCH   8  26
BRANCH   9  32
HETATM   32  C   UNL     1       6.656  26.478  54.496  1.00  0.00     0.255 C 
HETATM   33  N   UNL     1       6.240  25.177  54.627  1.00  0.00    -0.321 N 
HETATM   34  H   UNL     1       5.301  24.960  54.931  1.00  0.00     0.169 HD
HETATM   35  O   UNL     1       7.675  26.802  53.887  1.00  0.00    -0.268 OA
BRANCH  33  36
HETATM   36  C   UNL     1       7.002  24.004  54.394  1.00  0.00     0.068 A 
HETATM   37  C   UNL     1       7.793  23.526  55.462  1.00  0.00     0.095 A 
HETATM   38  C   UNL     1       8.615  22.410  55.273  1.00  0.00     0.039 A 
HETATM   39  C   UNL     1       8.662  21.777  54.030  1.00  0.00     0.003 A 
HETATM   40  C   UNL     1       7.885  22.249  52.975  1.00  0.00     0.002 A 
HETATM   41  C   UNL     1       7.055  23.356  53.158  1.00  0.00     0.032 A 
BRANCH  37  42
HETATM   42  O   UNL     1       7.671  24.219  56.645  1.00  0.00    -0.354 OA
HETATM   43  C   UNL     1       8.849  24.384  57.422  1.00  0.00     0.210 C 
ENDBRANCH  37  42
ENDBRANCH  33  36
ENDBRANCH   9  32
TORSDOF 9
ENDMDL
MODEL 7
REMARK VINA RESULT:      -9.6      3.039      9.609
REMARK  9 active torsions:
REMARK  status: ('A' for Active; 'I' for Inactive)
REMARK    1  A    between atoms: C_4  and  S_5 
REMARK    2  A    between atoms: S_5  and  C_6 
REMARK    3  A    between atoms: C_6  and  C_7 
REMARK       I    between atoms: C_7  and  N_8 
REMARK    4  A    between atoms: N_8  and  C_9 
REMARK    5  A    between atoms: C_10  and  O_11 
REMARK    6  A    between atoms: C_22  and  C_23 
REMARK    7  A    between atoms: C_29  and  C_30 
REMARK       I    between atoms: C_30  and  N_31 
REMARK    8  A    between atoms: N_31  and  C_32 
REMARK    9  A    between atoms: C_33  and  O_34 
ROOT
HETATM    1  C   UNL     1       5.310  25.948  57.164  1.00  0.00     0.069 C 
HETATM    2  C   UNL     1       5.291  27.273  56.435  1.00  0.00     0.019 A 
HETATM    3  N   UNL     1       4.598  28.276  57.087  1.00  0.00    -0.353 N 
HETATM    4  C   UNL     1       4.370  29.541  56.605  1.00  0.00     0.087 A 
HETATM    5  C   UNL     1       4.894  29.895  55.409  1.00  0.00     0.055 A 
HETATM    6  C   UNL     1       4.459  31.201  54.763  1.00  0.00     0.019 C 
HETATM    7  N   UNL     1       4.098  32.284  54.227  1.00  0.00    -0.096 N 
HETATM    8  C   UNL     1       5.654  28.876  54.544  1.00  0.00     0.104 A 
HETATM    9  C   UNL     1       5.857  27.510  55.222  1.00  0.00     0.046 A 
HETATM   10  H   UNL     1       4.148  28.054  57.971  1.00  0.00     0.166 HD
ENDROOT
BRANCH   4  11
HETATM   11  S   UNL     1       3.361  30.647  57.521  1.00  0.00    -0.102 SA
BRANCH  11  12
HETATM   12  C   UNL     1       4.651  31.565  58.436  1.00  0.00     0.184 C 
BRANCH  12  13
HETATM   13  C   UNL     1       4.123  32.032  59.770  1.00  0.00     0.231 C 
HETATM   14  N   UNL     1       4.918  32.241  60.855  1.00  0.00    -0.324 N 
HETATM   15  H   UNL     1       4.359  32.459  61.678  1.00  0.00     0.169 HD
HETATM   16  O   UNL     1       2.907  32.213  59.916  1.00  0.00    -0.272 OA
BRANCH  14  17
HETATM   17  C   UNL     1       6.299  32.154  61.136  1.00  0.00     0.070 A 
HETATM   18  C   UNL     1       6.637  32.110  62.513  1.00  0.00     0.095 A 
HETATM   19  C   UNL     1       7.972  31.998  62.909  1.00  0.00     0.041 A 
HETATM   20  C   UNL     1       8.982  31.948  61.951  1.00  0.00     0.026 A 
HETATM   21  C   UNL     1       8.654  32.017  60.601  1.00  0.00     0.036 A 
HETATM   22 CL   UNL     1       9.909  31.977  59.421  1.00  0.00    -0.084 Cl
HETATM   23  C   UNL     1       7.323  32.124  60.191  1.00  0.00     0.056 A 
BRANCH  18  24
HETATM   24  O   UNL     1       5.568  32.169  63.378  1.00  0.00    -0.354 OA
HETATM   25  C   UNL     1       5.573  33.202  64.353  1.00  0.00     0.210 C 
ENDBRANCH  18  24
ENDBRANCH  14  17
ENDBRANCH  12  13
ENDBRANCH  11  12
ENDBRANCH   4  11
BRANCH   8  26
HETATM   26  C   UNL     1       4.938  28.777  53.188  1.00  0.00    -0.044 A 
HETATM   27  C   UNL     1       5.685  28.854  51.999  1.00  0.00     0.008 A 
HETATM   28  C   UNL     1       5.048  28.825  50.758  1.00  0.00     0.001 A 
HETATM   29  C   UNL     1       3.662  28.720  50.688  1.00  0.00     0.000 A 
HETATM   30  C   UNL     1       2.907  28.653  51.859  1.00  0.00     0.001 A 
HETATM   31  C   UNL     1       3.538  28.687  53.103  1.00  0.00     0.008 A 
ENDBRANCH   8  26
BRANCH   9  32
HETATM   32  C   UNL     1       6.755  26.450  54.625  1.00  0.00     0.255 C 
HETATM   33  N   UNL     1       6.293  25.158  54.645  1.00  0.00    -0.321 N 
HETATM   34  H   UNL     1       5.330  24.955  54.875  1.00  0.00     0.169 HD
HETATM   35  O   UNL     1       7.821  26.777  54.105  1.00  0.00    -0.268 OA
BRANCH  33  36
HETATM   36  C   UNL     1       7.033  23.977  54.384  1.00  0.00     0.068 A 
HETATM   37  C   UNL     1       7.782  23.437  55.452  1.00  0.00     0.095 A 
HETATM   38  C   UNL     1       8.582  22.309  55.240  1.00  0.00     0.039 A 
HETATM   39  C   UNL     1       8.648  21.725  53.973  1.00  0.00     0.003 A 
HETATM   40  C   UNL     1       7.913  22.259  52.919  1.00  0.00     0.002 A 
HETATM   41  C   UNL     1       7.105  23.379  53.124  1.00  0.00     0.032 A 
BRANCH  37  42
HETATM   42  O   UNL     1       7.644  24.084  56.659  1.00  0.00    -0.354 OA
HETATM   43  C   UNL     1       8.834  24.543  57.287  1.00  0.00     0.210 C 
ENDBRANCH  37  42
ENDBRANCH  33  36
ENDBRANCH   9  32
TORSDOF 9
ENDMDL
MODEL 8
REMARK VINA RESULT:      -9.5      1.956      2.652
REMARK  9 active torsions:
REMARK  status: ('A' for Active; 'I' for Inactive)
REMARK    1  A    between atoms: C_4  and  S_5 
REMARK    2  A    between atoms: S_5  and  C_6 
REMARK    3  A    between atoms: C_6  and  C_7 
REMARK       I    between atoms: C_7  and  N_8 
REMARK    4  A    between atoms: N_8  and  C_9 
REMARK    5  A    between atoms: C_10  and  O_11 
REMARK    6  A    between atoms: C_22  and  C_23 
REMARK    7  A    between atoms: C_29  and  C_30 
REMARK       I    between atoms: C_30  and  N_31 
REMARK    8  A    between atoms: N_31  and  C_32 
REMARK    9  A    between atoms: C_33  and  O_34 
ROOT
HETATM    1  C   UNL     1       9.048  30.663  59.318  1.00  0.00     0.069 C 
HETATM    2  C   UNL     1       7.586  30.652  58.927  1.00  0.00     0.019 A 
HETATM    3  N   UNL     1       7.274  29.772  57.908  1.00  0.00    -0.353 N 
HETATM    4  C   UNL     1       6.041  29.627  57.321  1.00  0.00     0.087 A 
HETATM    5  C   UNL     1       5.000  30.357  57.783  1.00  0.00     0.055 A 
HETATM    6  C   UNL     1       3.698  30.376  56.998  1.00  0.00     0.019 C 
HETATM    7  N   UNL     1       2.618  30.393  56.348  1.00  0.00    -0.096 N 
HETATM    8  C   UNL     1       5.199  31.410  58.886  1.00  0.00     0.104 A 
HETATM    9  C   UNL     1       6.623  31.443  59.468  1.00  0.00     0.046 A 
HETATM   10  H   UNL     1       8.025  29.228  57.493  1.00  0.00     0.166 HD
ENDROOT
BRANCH   4  11
HETATM   11  S   UNL     1       5.857  28.543  55.952  1.00  0.00    -0.102 SA
BRANCH  11  12
HETATM   12  C   UNL     1       6.396  26.974  56.719  1.00  0.00     0.184 C 
BRANCH  12  13
HETATM   13  C   UNL     1       5.341  25.909  56.544  1.00  0.00     0.231 C 
HETATM   14  N   UNL     1       5.138  25.246  55.372  1.00  0.00    -0.324 N 
HETATM   15  H   UNL     1       4.321  24.641  55.435  1.00  0.00     0.169 HD
HETATM   16  O   UNL     1       4.594  25.628  57.491  1.00  0.00    -0.272 OA
BRANCH  14  17
HETATM   17  C   UNL     1       5.722  25.249  54.087  1.00  0.00     0.070 A 
HETATM   18  C   UNL     1       6.844  24.395  53.928  1.00  0.00     0.095 A 
HETATM   19  C   UNL     1       7.487  24.297  52.691  1.00  0.00     0.041 A 
HETATM   20  C   UNL     1       7.039  25.054  51.610  1.00  0.00     0.026 A 
HETATM   21  C   UNL     1       5.954  25.910  51.771  1.00  0.00     0.036 A 
HETATM   22 CL   UNL     1       5.419  26.859  50.438  1.00  0.00    -0.084 Cl
HETATM   23  C   UNL     1       5.300  26.014  53.001  1.00  0.00     0.056 A 
BRANCH  18  24
HETATM   24  O   UNL     1       7.208  23.695  55.055  1.00  0.00    -0.354 OA
HETATM   25  C   UNL     1       7.635  22.351  54.880  1.00  0.00     0.210 C 
ENDBRANCH  18  24
ENDBRANCH  14  17
ENDBRANCH  12  13
ENDBRANCH  11  12
ENDBRANCH   4  11
BRANCH   8  26
HETATM   26  C   UNL     1       4.741  32.768  58.332  1.00  0.00    -0.044 A 
HETATM   27  C   UNL     1       5.206  33.200  57.076  1.00  0.00     0.008 A 
HETATM   28  C   UNL     1       4.850  34.455  56.582  1.00  0.00     0.001 A 
HETATM   29  C   UNL     1       4.029  35.292  57.331  1.00  0.00     0.000 A 
HETATM   30  C   UNL     1       3.568  34.882  58.581  1.00  0.00     0.001 A 
HETATM   31  C   UNL     1       3.926  33.630  59.084  1.00  0.00     0.008 A 
ENDBRANCH   8  26
BRANCH   9  32
HETATM   32  C   UNL     1       6.963  32.257  60.696  1.00  0.00     0.255 C 
HETATM   33  N   UNL     1       6.507  31.787  61.902  1.00  0.00    -0.321 N 
HETATM   34  H   UNL     1       6.128  30.854  61.985  1.00  0.00     0.169 HD
HETATM   35  O   UNL     1       7.665  33.261  60.585  1.00  0.00    -0.268 OA
BRANCH  33  36
HETATM   36  C   UNL     1       6.476  32.481  63.138  1.00  0.00     0.068 A 
HETATM   37  C   UNL     1       5.209  32.866  63.629  1.00  0.00     0.095 A 
HETATM   38  C   UNL     1       5.119  33.608  64.811  1.00  0.00     0.039 A 
HETATM   39  C   UNL     1       6.277  33.977  65.498  1.00  0.00     0.003 A 
HETATM   40  C   UNL     1       7.527  33.601  65.013  1.00  0.00     0.002 A 
HETATM   41  C   UNL     1       7.626  32.852  63.839  1.00  0.00     0.032 A 
BRANCH  37  42
HETATM   42  O   UNL     1       4.133  32.450  62.881  1.00  0.00    -0.354 OA
HETATM   43  C   UNL     1       3.098  33.398  62.653  1.00  0.00     0.210 C 
ENDBRANCH  37  42
ENDBRANCH  33  36
ENDBRANCH   9  32
TORSDOF 9
ENDMDL
MODEL 9
REMARK VINA RESULT:      -9.3      1.413      2.178
REMARK  9 active torsions:
REMARK  status: ('A' for Active; 'I' for Inactive)
REMARK    1  A    between atoms: C_4  and  S_5 
REMARK    2  A    between atoms: S_5  and  C_6 
REMARK    3  A    between atoms: C_6  and  C_7 
REMARK       I    between atoms: C_7  and  N_8 
REMARK    4  A    between atoms: N_8  and  C_9 
REMARK    5  A    between atoms: C_10  and  O_11 
REMARK    6  A    between atoms: C_22  and  C_23 
REMARK    7  A    between atoms: C_29  and  C_30 
REMARK       I    between atoms: C_30  and  N_31 
REMARK    8  A    between atoms: N_31  and  C_32 
REMARK    9  A    between atoms: C_33  and  O_34 
ROOT
HETATM    1  C   UNL     1       8.406  31.516  59.147  1.00  0.00     0.069 C 
HETATM    2  C   UNL     1       7.274  30.871  58.378  1.00  0.00     0.019 A 
HETATM    3  N   UNL     1       7.643  29.763  57.638  1.00  0.00    -0.353 N 
HETATM    4  C   UNL     1       6.825  29.047  56.799  1.00  0.00     0.087 A 
HETATM    5  C   UNL     1       5.522  29.394  56.694  1.00  0.00     0.055 A 
HETATM    6  C   UNL     1       4.670  28.764  55.605  1.00  0.00     0.019 C 
HETATM    7  N   UNL     1       3.962  28.241  54.701  1.00  0.00    -0.096 N 
HETATM    8  C   UNL     1       4.970  30.631  57.423  1.00  0.00     0.104 A 
HETATM    9  C   UNL     1       5.991  31.318  58.348  1.00  0.00     0.046 A 
HETATM   10  H   UNL     1       8.620  29.482  57.646  1.00  0.00     0.166 HD
ENDROOT
BRANCH   4  11
HETATM   11  S   UNL     1       7.500  27.739  55.843  1.00  0.00    -0.102 SA
BRANCH  11  12
HETATM   12  C   UNL     1       7.354  26.366  57.040  1.00  0.00     0.184 C 
BRANCH  12  13
HETATM   13  C   UNL     1       6.058  25.620  56.835  1.00  0.00     0.231 C 
HETATM   14  N   UNL     1       5.945  24.530  56.027  1.00  0.00    -0.324 N 
HETATM   15  H   UNL     1       4.973  24.234  55.950  1.00  0.00     0.169 HD
HETATM   16  O   UNL     1       5.029  26.017  57.397  1.00  0.00    -0.272 OA
BRANCH  14  17
HETATM   17  C   UNL     1       6.817  23.767  55.219  1.00  0.00     0.070 A 
HETATM   18  C   UNL     1       6.845  24.128  53.847  1.00  0.00     0.095 A 
HETATM   19  C   UNL     1       7.690  23.459  52.959  1.00  0.00     0.041 A 
HETATM   20  C   UNL     1       8.498  22.419  53.414  1.00  0.00     0.026 A 
HETATM   21  C   UNL     1       8.454  22.048  54.753  1.00  0.00     0.036 A 
HETATM   22 CL   UNL     1       9.440  20.749  55.306  1.00  0.00    -0.084 Cl
HETATM   23  C   UNL     1       7.618  22.712  55.654  1.00  0.00     0.056 A 
BRANCH  18  24
HETATM   24  O   UNL     1       6.007  25.163  53.500  1.00  0.00    -0.354 OA
HETATM   25  C   UNL     1       4.973  24.882  52.567  1.00  0.00     0.210 C 
ENDBRANCH  18  24
ENDBRANCH  14  17
ENDBRANCH  12  13
ENDBRANCH  11  12
ENDBRANCH   4  11
BRANCH   8  26
HETATM   26  C   UNL     1       4.378  31.578  56.368  1.00  0.00    -0.044 A 
HETATM   27  C   UNL     1       5.235  32.389  55.602  1.00  0.00     0.008 A 
HETATM   28  C   UNL     1       4.714  33.298  54.680  1.00  0.00     0.001 A 
HETATM   29  C   UNL     1       3.337  33.410  54.513  1.00  0.00     0.000 A 
HETATM   30  C   UNL     1       2.476  32.618  55.271  1.00  0.00     0.001 A 
HETATM   31  C   UNL     1       2.990  31.711  56.199  1.00  0.00     0.008 A 
ENDBRANCH   8  26
BRANCH   9  32
HETATM   32  C   UNL     1       5.586  32.416  59.304  1.00  0.00     0.255 C 
HETATM   33  N   UNL     1       5.404  32.063  60.618  1.00  0.00    -0.321 N 
HETATM   34  H   UNL     1       5.706  31.161  60.959  1.00  0.00     0.169 HD
HETATM   35  O   UNL     1       5.487  33.573  58.897  1.00  0.00    -0.268 OA
BRANCH  33  36
HETATM   36  C   UNL     1       4.794  32.836  61.638  1.00  0.00     0.068 A 
HETATM   37  C   UNL     1       5.641  33.386  62.625  1.00  0.00     0.095 A 
HETATM   38  C   UNL     1       5.090  34.105  63.691  1.00  0.00     0.039 A 
HETATM   39  C   UNL     1       3.707  34.269  63.786  1.00  0.00     0.003 A 
HETATM   40  C   UNL     1       2.871  33.725  62.815  1.00  0.00     0.002 A 
HETATM   41  C   UNL     1       3.412  33.014  61.742  1.00  0.00     0.032 A 
BRANCH  37  42
HETATM   42  O   UNL     1       6.987  33.170  62.437  1.00  0.00    -0.354 OA
HETATM   43  C   UNL     1       7.729  32.702  63.556  1.00  0.00     0.210 C 
ENDBRANCH  37  42
ENDBRANCH  33  36
ENDBRANCH   9  32
TORSDOF 9
ENDMDL
MODEL 10
REMARK VINA RESULT:      -9.2      4.350      7.961
REMARK  9 active torsions:
REMARK  status: ('A' for Active; 'I' for Inactive)
REMARK    1  A    between atoms: C_4  and  S_5 
REMARK    2  A    between atoms: S_5  and  C_6 
REMARK    3  A    between atoms: C_6  and  C_7 
REMARK       I    between atoms: C_7  and  N_8 
REMARK    4  A    between atoms: N_8  and  C_9 
REMARK    5  A    between atoms: C_10  and  O_11 
REMARK    6  A    between atoms: C_22  and  C_23 
REMARK    7  A    between atoms: C_29  and  C_30 
REMARK       I    between atoms: C_30  and  N_31 
REMARK    8  A    between atoms: N_31  and  C_32 
REMARK    9  A    between atoms: C_33  and  O_34 
ROOT
HETATM    1  C   UNL     1       4.653  25.451  53.412  1.00  0.00     0.069 C 
HETATM    2  C   UNL     1       5.219  26.697  54.055  1.00  0.00     0.019 A 
HETATM    3  N   UNL     1       5.913  26.470  55.229  1.00  0.00    -0.353 N 
HETATM    4  C   UNL     1       6.457  27.435  56.042  1.00  0.00     0.087 A 
HETATM    5  C   UNL     1       6.370  28.734  55.673  1.00  0.00     0.055 A 
HETATM    6  C   UNL     1       6.758  29.817  56.666  1.00  0.00     0.019 C 
HETATM    7  N   UNL     1       7.079  30.716  57.490  1.00  0.00    -0.096 N 
HETATM    8  C   UNL     1       5.591  29.149  54.413  1.00  0.00     0.104 A 
HETATM    9  C   UNL     1       5.062  27.964  53.587  1.00  0.00     0.046 A 
HETATM   10  H   UNL     1       5.974  25.517  55.577  1.00  0.00     0.166 HD
ENDROOT
BRANCH   4  11
HETATM   11  S   UNL     1       7.199  26.967  57.562  1.00  0.00    -0.102 SA
BRANCH  11  12
HETATM   12  C   UNL     1       7.075  25.149  57.426  1.00  0.00     0.184 C 
BRANCH  12  13
HETATM   13  C   UNL     1       8.442  24.516  57.503  1.00  0.00     0.231 C 
HETATM   14  N   UNL     1       8.996  23.809  56.481  1.00  0.00    -0.324 N 
HETATM   15  H   UNL     1       9.878  23.386  56.768  1.00  0.00     0.169 HD
HETATM   16  O   UNL     1       9.100  24.610  58.549  1.00  0.00    -0.272 OA
BRANCH  14  17
HETATM   17  C   UNL     1       8.618  23.454  55.167  1.00  0.00     0.070 A 
HETATM   18  C   UNL     1       8.597  22.062  54.896  1.00  0.00     0.095 A 
HETATM   19  C   UNL     1       8.214  21.594  53.637  1.00  0.00     0.041 A 
HETATM   20  C   UNL     1       7.867  22.496  52.633  1.00  0.00     0.026 A 
HETATM   21  C   UNL     1       7.911  23.862  52.890  1.00  0.00     0.036 A 
HETATM   22 CL   UNL     1       7.503  24.973  51.639  1.00  0.00    -0.084 Cl
HETATM   23  C   UNL     1       8.288  24.344  54.146  1.00  0.00     0.056 A 
BRANCH  18  24
HETATM   24  O   UNL     1       8.960  21.257  55.952  1.00  0.00    -0.354 OA
HETATM   25  C   UNL     1       8.054  20.229  56.330  1.00  0.00     0.210 C 
ENDBRANCH  18  24
ENDBRANCH  14  17
ENDBRANCH  12  13
ENDBRANCH  11  12
ENDBRANCH   4  11
BRANCH   8  26
HETATM   26  C   UNL     1       4.488  30.129  54.840  1.00  0.00    -0.044 A 
HETATM   27  C   UNL     1       4.290  31.316  54.111  1.00  0.00     0.008 A 
HETATM   28  C   UNL     1       3.333  32.246  54.517  1.00  0.00     0.001 A 
HETATM   29  C   UNL     1       2.564  32.006  55.651  1.00  0.00     0.000 A 
HETATM   30  C   UNL     1       2.754  30.838  56.389  1.00  0.00     0.001 A 
HETATM   31  C   UNL     1       3.714  29.906  55.992  1.00  0.00     0.008 A 
ENDBRANCH   8  26
BRANCH   9  32
HETATM   32  C   UNL     1       4.456  28.156  52.215  1.00  0.00     0.255 C 
HETATM   33  N   UNL     1       5.307  28.072  51.141  1.00  0.00    -0.321 N 
HETATM   34  H   UNL     1       6.247  27.717  51.251  1.00  0.00     0.169 HD
HETATM   35  O   UNL     1       3.243  28.322  52.103  1.00  0.00    -0.268 OA
BRANCH  33  36
HETATM   36  C   UNL     1       5.040  28.456  49.803  1.00  0.00     0.068 A 
HETATM   37  C   UNL     1       5.070  29.837  49.510  1.00  0.00     0.095 A 
HETATM   38  C   UNL     1       4.753  30.282  48.222  1.00  0.00     0.039 A 
HETATM   39  C   UNL     1       4.399  29.364  47.231  1.00  0.00     0.003 A 
HETATM   40  C   UNL     1       4.366  28.002  47.520  1.00  0.00     0.002 A 
HETATM   41  C   UNL     1       4.689  27.549  48.800  1.00  0.00     0.032 A 
BRANCH  37  42
HETATM   42  O   UNL     1       5.435  30.656  50.554  1.00  0.00    -0.354 OA
HETATM   43  C   UNL     1       5.837  31.980  50.228  1.00  0.00     0.210 C 
ENDBRANCH  37  42
ENDBRANCH  33  36
ENDBRANCH   9  32
TORSDOF 9
ENDMDL
