MODEL 1
REMARK VINA RESULT:      -8.4      0.000      0.000
REMARK  8 active torsions:
REMARK  status: ('A' for Active; 'I' for Inactive)
REMARK    1  A    between atoms: C_2  and  C_3 
REMARK    2  A    between atoms: C_3  and  C_4 
REMARK    3  A    between atoms: C_4  and  N_5 
REMARK    4  A    between atoms: N_5  and  C_6 
REMARK    5  A    between atoms: C_8  and  N_9 
REMARK    6  A    between atoms: N_9  and  C_10 
REMARK    7  A    between atoms: C_10  and  C_11 
REMARK    8  A    between atoms: C_12  and  O_13 
ROOT
HETATM    1  C   UNL     1       6.948  28.051  53.984  1.00  0.00     0.181 A 
HETATM    2  N   UNL     1       6.933  26.707  54.048  1.00  0.00    -0.207 NA
HETATM    3  C   UNL     1       6.332  26.036  53.047  1.00  0.00     0.119 A 
HETATM    4  C   UNL     1       5.770  26.694  51.931  1.00  0.00     0.031 A 
HETATM    5  C   UNL     1       5.778  28.100  51.967  1.00  0.00     0.048 A 
HETATM    6  N   UNL     1       6.359  28.722  52.998  1.00  0.00    -0.330 N 
HETATM    7  H   UNL     1       6.353  29.730  53.067  1.00  0.00     0.168 HD
HETATM    8  C   UNL     1       5.225  26.073  50.781  1.00  0.00     0.017 A 
HETATM    9  C   UNL     1       4.660  26.826  49.749  1.00  0.00     0.001 A 
HETATM   10  C   UNL     1       4.637  28.213  49.830  1.00  0.00     0.002 A 
HETATM   11  C   UNL     1       5.202  28.852  50.932  1.00  0.00     0.030 A 
ENDROOT
BRANCH   3  12
HETATM   12  N   UNL     1       6.330  24.652  53.199  1.00  0.00    -0.272 NA
HETATM   13  H   UNL     1       5.587  24.264  52.623  1.00  0.00     0.129 HD
BRANCH  12  14
HETATM   14  C   UNL     1       7.616  23.976  52.959  1.00  0.00     0.135 C 
BRANCH  14  15
HETATM   15  C   UNL     1       7.763  22.648  53.677  1.00  0.00    -0.012 A 
HETATM   16  C   UNL     1       7.596  22.595  55.080  1.00  0.00     0.075 A 
HETATM   17  C   UNL     1       7.778  21.386  55.760  1.00  0.00     0.037 A 
HETATM   18  C   UNL     1       8.155  20.236  55.066  1.00  0.00     0.003 A 
HETATM   19  C   UNL     1       8.367  20.287  53.692  1.00  0.00     0.001 A 
HETATM   20  C   UNL     1       8.186  21.487  53.004  1.00  0.00     0.011 A 
BRANCH  16  21
HETATM   21  O   UNL     1       7.274  23.781  55.689  1.00  0.00    -0.355 OA
HETATM   22  C   UNL     1       8.193  24.303  56.644  1.00  0.00     0.210 C 
ENDBRANCH  16  21
ENDBRANCH  14  15
ENDBRANCH  12  14
ENDBRANCH   3  12
BRANCH   1  23
HETATM   23  N   UNL     1       7.555  28.823  54.964  1.00  0.00    -0.262 NA
HETATM   24  H   UNL     1       8.279  29.443  54.614  1.00  0.00     0.130 HD
BRANCH  23  25
HETATM   25  C   UNL     1       7.991  28.100  56.161  1.00  0.00     0.095 C 
BRANCH  25  26
HETATM   26  C   UNL     1       8.864  29.012  57.031  1.00  0.00     0.014 C 
BRANCH  26  27
HETATM   27  C   UNL     1      10.081  29.557  56.279  1.00  0.00    -0.003 C 
HETATM   28  C   UNL     1      11.189  29.964  57.239  1.00  0.00     0.005 C 
ENDBRANCH  26  27
ENDBRANCH  25  26
ENDBRANCH  23  25
ENDBRANCH   1  23
TORSDOF 8
ENDMDL
MODEL 2
REMARK VINA RESULT:      -8.4      2.327      3.320
REMARK  8 active torsions:
REMARK  status: ('A' for Active; 'I' for Inactive)
REMARK    1  A    between atoms: C_2  and  C_3 
REMARK    2  A    between atoms: C_3  and  C_4 
REMARK    3  A    between atoms: C_4  and  N_5 
REMARK    4  A    between atoms: N_5  and  C_6 
REMARK    5  A    between atoms: C_8  and  N_9 
REMARK    6  A    between atoms: N_9  and  C_10 
REMARK    7  A    between atoms: C_10  and  C_11 
REMARK    8  A    between atoms: C_12  and  O_13 
ROOT
HETATM    1  C   UNL     1       7.568  28.029  57.762  1.00  0.00     0.181 A 
HETATM    2  N   UNL     1       7.712  26.697  57.886  1.00  0.00    -0.207 NA
HETATM    3  C   UNL     1       7.063  25.909  57.008  1.00  0.00     0.119 A 
HETATM    4  C   UNL     1       6.288  26.437  55.952  1.00  0.00     0.031 A 
HETATM    5  C   UNL     1       6.144  27.836  55.924  1.00  0.00     0.048 A 
HETATM    6  N   UNL     1       6.783  28.576  56.837  1.00  0.00    -0.330 N 
HETATM    7  H   UNL     1       6.673  29.580  56.862  1.00  0.00     0.168 HD
HETATM    8  C   UNL     1       5.668  25.697  54.917  1.00  0.00     0.017 A 
HETATM    9  C   UNL     1       4.891  26.323  53.941  1.00  0.00     0.001 A 
HETATM   10  C   UNL     1       4.724  27.703  53.962  1.00  0.00     0.002 A 
HETATM   11  C   UNL     1       5.354  28.462  54.947  1.00  0.00     0.030 A 
ENDROOT
BRANCH   3  12
HETATM   12  N   UNL     1       7.236  24.544  57.220  1.00  0.00    -0.272 NA
HETATM   13  H   UNL     1       6.474  24.047  56.765  1.00  0.00     0.129 HD
BRANCH  12  14
HETATM   14  C   UNL     1       8.549  23.995  56.842  1.00  0.00     0.135 C 
BRANCH  14  15
HETATM   15  C   UNL     1       8.477  22.720  56.024  1.00  0.00    -0.012 A 
HETATM   16  C   UNL     1       8.368  22.804  54.616  1.00  0.00     0.075 A 
HETATM   17  C   UNL     1       8.252  21.636  53.855  1.00  0.00     0.037 A 
HETATM   18  C   UNL     1       8.211  20.388  54.477  1.00  0.00     0.003 A 
HETATM   19  C   UNL     1       8.271  20.297  55.863  1.00  0.00     0.001 A 
HETATM   20  C   UNL     1       8.389  21.455  56.633  1.00  0.00     0.011 A 
BRANCH  16  21
HETATM   21  O   UNL     1       8.367  24.071  54.091  1.00  0.00    -0.355 OA
HETATM   22  C   UNL     1       8.029  24.214  52.715  1.00  0.00     0.210 C 
ENDBRANCH  16  21
ENDBRANCH  14  15
ENDBRANCH  12  14
ENDBRANCH   3  12
BRANCH   1  23
HETATM   23  N   UNL     1       8.210  28.918  58.613  1.00  0.00    -0.262 NA
HETATM   24  H   UNL     1       7.774  29.006  59.525  1.00  0.00     0.130 HD
BRANCH  23  25
HETATM   25  C   UNL     1       8.534  30.225  58.036  1.00  0.00     0.095 C 
BRANCH  25  26
HETATM   26  C   UNL     1      10.015  30.544  58.269  1.00  0.00     0.014 C 
BRANCH  26  27
HETATM   27  C   UNL     1      10.934  29.843  57.265  1.00  0.00    -0.003 C 
HETATM   28  C   UNL     1      10.281  29.742  55.894  1.00  0.00     0.005 C 
ENDBRANCH  26  27
ENDBRANCH  25  26
ENDBRANCH  23  25
ENDBRANCH   1  23
TORSDOF 8
ENDMDL
MODEL 3
REMARK VINA RESULT:      -8.0      1.628      5.118
REMARK  8 active torsions:
REMARK  status: ('A' for Active; 'I' for Inactive)
REMARK    1  A    between atoms: C_2  and  C_3 
REMARK    2  A    between atoms: C_3  and  C_4 
REMARK    3  A    between atoms: C_4  and  N_5 
REMARK    4  A    between atoms: N_5  and  C_6 
REMARK    5  A    between atoms: C_8  and  N_9 
REMARK    6  A    between atoms: N_9  and  C_10 
REMARK    7  A    between atoms: C_10  and  C_11 
REMARK    8  A    between atoms: C_12  and  O_13 
ROOT
HETATM    1  C   UNL     1       5.132  26.711  54.235  1.00  0.00     0.181 A 
HETATM    2  N   UNL     1       5.503  25.600  54.897  1.00  0.00    -0.207 NA
HETATM    3  C   UNL     1       6.317  25.744  55.961  1.00  0.00     0.119 A 
HETATM    4  C   UNL     1       6.742  27.010  56.418  1.00  0.00     0.031 A 
HETATM    5  C   UNL     1       6.354  28.116  55.639  1.00  0.00     0.048 A 
HETATM    6  N   UNL     1       5.572  27.921  54.573  1.00  0.00    -0.330 N 
HETATM    7  H   UNL     1       5.303  28.691  53.977  1.00  0.00     0.168 HD
HETATM    8  C   UNL     1       7.496  27.268  57.588  1.00  0.00     0.017 A 
HETATM    9  C   UNL     1       7.893  28.564  57.925  1.00  0.00     0.001 A 
HETATM   10  C   UNL     1       7.538  29.635  57.113  1.00  0.00     0.002 A 
HETATM   11  C   UNL     1       6.764  29.416  55.976  1.00  0.00     0.030 A 
ENDROOT
BRANCH   3  12
HETATM   12  N   UNL     1       6.682  24.549  56.574  1.00  0.00    -0.272 NA
HETATM   13  H   UNL     1       5.967  23.853  56.378  1.00  0.00     0.129 HD
BRANCH  12  14
HETATM   14  C   UNL     1       8.031  24.048  56.258  1.00  0.00     0.135 C 
BRANCH  14  15
HETATM   15  C   UNL     1       8.050  22.876  55.297  1.00  0.00    -0.012 A 
HETATM   16  C   UNL     1       8.168  23.119  53.909  1.00  0.00     0.075 A 
HETATM   17  C   UNL     1       8.139  22.049  53.008  1.00  0.00     0.037 A 
HETATM   18  C   UNL     1       7.960  20.744  53.468  1.00  0.00     0.003 A 
HETATM   19  C   UNL     1       7.796  20.499  54.827  1.00  0.00     0.001 A 
HETATM   20  C   UNL     1       7.827  21.558  55.734  1.00  0.00     0.011 A 
BRANCH  16  21
HETATM   21  O   UNL     1       8.290  24.434  53.540  1.00  0.00    -0.355 OA
HETATM   22  C   UNL     1       7.775  24.813  52.268  1.00  0.00     0.210 C 
ENDBRANCH  16  21
ENDBRANCH  14  15
ENDBRANCH  12  14
ENDBRANCH   3  12
BRANCH   1  23
HETATM   23  N   UNL     1       4.286  26.660  53.136  1.00  0.00    -0.262 NA
HETATM   24  H   UNL     1       4.310  25.778  52.635  1.00  0.00     0.130 HD
BRANCH  23  25
HETATM   25  C   UNL     1       4.362  27.805  52.225  1.00  0.00     0.095 C 
BRANCH  25  26
HETATM   26  C   UNL     1       5.291  27.475  51.051  1.00  0.00     0.014 C 
BRANCH  26  27
HETATM   27  C   UNL     1       4.896  26.184  50.330  1.00  0.00    -0.003 C 
HETATM   28  C   UNL     1       4.280  26.474  48.970  1.00  0.00     0.005 C 
ENDBRANCH  26  27
ENDBRANCH  25  26
ENDBRANCH  23  25
ENDBRANCH   1  23
TORSDOF 8
ENDMDL
MODEL 4
REMARK VINA RESULT:      -8.0      1.947      6.486
REMARK  8 active torsions:
REMARK  status: ('A' for Active; 'I' for Inactive)
REMARK    1  A    between atoms: C_2  and  C_3 
REMARK    2  A    between atoms: C_3  and  C_4 
REMARK    3  A    between atoms: C_4  and  N_5 
REMARK    4  A    between atoms: N_5  and  C_6 
REMARK    5  A    between atoms: C_8  and  N_9 
REMARK    6  A    between atoms: N_9  and  C_10 
REMARK    7  A    between atoms: C_10  and  C_11 
REMARK    8  A    between atoms: C_12  and  O_13 
ROOT
HETATM    1  C   UNL     1       7.328  24.372  52.841  1.00  0.00     0.181 A 
HETATM    2  N   UNL     1       6.979  24.761  54.081  1.00  0.00    -0.207 NA
HETATM    3  C   UNL     1       7.111  23.869  55.081  1.00  0.00     0.119 A 
HETATM    4  C   UNL     1       7.642  22.578  54.873  1.00  0.00     0.031 A 
HETATM    5  C   UNL     1       7.931  22.230  53.541  1.00  0.00     0.048 A 
HETATM    6  N   UNL     1       7.753  23.139  52.577  1.00  0.00    -0.330 N 
HETATM    7  H   UNL     1       7.922  22.909  51.607  1.00  0.00     0.168 HD
HETATM    8  C   UNL     1       7.927  21.618  55.874  1.00  0.00     0.017 A 
HETATM    9  C   UNL     1       8.418  20.352  55.548  1.00  0.00     0.001 A 
HETATM   10  C   UNL     1       8.651  20.016  54.220  1.00  0.00     0.002 A 
HETATM   11  C   UNL     1       8.416  20.953  53.216  1.00  0.00     0.030 A 
ENDROOT
BRANCH   3  12
HETATM   12  N   UNL     1       6.702  24.335  56.327  1.00  0.00    -0.272 NA
HETATM   13  H   UNL     1       6.728  23.561  56.987  1.00  0.00     0.129 HD
BRANCH  12  14
HETATM   14  C   UNL     1       7.416  25.515  56.842  1.00  0.00     0.135 C 
BRANCH  14  15
HETATM   15  C   UNL     1       6.588  26.785  56.859  1.00  0.00    -0.012 A 
HETATM   16  C   UNL     1       7.166  27.985  57.335  1.00  0.00     0.075 A 
HETATM   17  C   UNL     1       6.398  29.152  57.401  1.00  0.00     0.037 A 
HETATM   18  C   UNL     1       5.053  29.133  57.031  1.00  0.00     0.003 A 
HETATM   19  C   UNL     1       4.462  27.949  56.606  1.00  0.00     0.001 A 
HETATM   20  C   UNL     1       5.220  26.779  56.532  1.00  0.00     0.011 A 
BRANCH  16  21
HETATM   21  O   UNL     1       8.479  27.902  57.724  1.00  0.00    -0.355 OA
HETATM   22  C   UNL     1       9.415  28.755  57.073  1.00  0.00     0.210 C 
ENDBRANCH  16  21
ENDBRANCH  14  15
ENDBRANCH  12  14
ENDBRANCH   3  12
BRANCH   1  23
HETATM   23  N   UNL     1       7.237  25.227  51.752  1.00  0.00    -0.262 NA
HETATM   24  H   UNL     1       7.893  26.001  51.777  1.00  0.00     0.130 HD
BRANCH  23  25
HETATM   25  C   UNL     1       5.885  25.673  51.408  1.00  0.00     0.095 C 
BRANCH  25  26
HETATM   26  C   UNL     1       5.817  27.204  51.437  1.00  0.00     0.014 C 
BRANCH  26  27
HETATM   27  C   UNL     1       5.513  27.754  52.833  1.00  0.00    -0.003 C 
HETATM   28  C   UNL     1       6.770  28.291  53.502  1.00  0.00     0.005 C 
ENDBRANCH  26  27
ENDBRANCH  25  26
ENDBRANCH  23  25
ENDBRANCH   1  23
TORSDOF 8
ENDMDL
MODEL 5
REMARK VINA RESULT:      -8.0      1.809      5.998
REMARK  8 active torsions:
REMARK  status: ('A' for Active; 'I' for Inactive)
REMARK    1  A    between atoms: C_2  and  C_3 
REMARK    2  A    between atoms: C_3  and  C_4 
REMARK    3  A    between atoms: C_4  and  N_5 
REMARK    4  A    between atoms: N_5  and  C_6 
REMARK    5  A    between atoms: C_8  and  N_9 
REMARK    6  A    between atoms: N_9  and  C_10 
REMARK    7  A    between atoms: C_10  and  C_11 
REMARK    8  A    between atoms: C_12  and  O_13 
ROOT
HETATM    1  C   UNL     1       8.015  24.314  56.409  1.00  0.00     0.181 A 
HETATM    2  N   UNL     1       7.700  24.882  55.231  1.00  0.00    -0.207 NA
HETATM    3  C   UNL     1       7.729  24.106  54.130  1.00  0.00     0.119 A 
HETATM    4  C   UNL     1       8.031  22.728  54.189  1.00  0.00     0.031 A 
HETATM    5  C   UNL     1       8.402  22.224  55.448  1.00  0.00     0.048 A 
HETATM    6  N   UNL     1       8.389  23.040  56.507  1.00  0.00    -0.330 N 
HETATM    7  H   UNL     1       8.681  22.715  57.418  1.00  0.00     0.168 HD
HETATM    8  C   UNL     1       7.973  21.812  53.111  1.00  0.00     0.017 A 
HETATM    9  C   UNL     1       8.330  20.472  53.276  1.00  0.00     0.001 A 
HETATM   10  C   UNL     1       8.740  20.008  54.520  1.00  0.00     0.002 A 
HETATM   11  C   UNL     1       8.770  20.878  55.608  1.00  0.00     0.030 A 
ENDROOT
BRANCH   3  12
HETATM   12  N   UNL     1       7.422  24.771  52.947  1.00  0.00    -0.272 NA
HETATM   13  H   UNL     1       7.874  24.287  52.176  1.00  0.00     0.129 HD
BRANCH  12  14
HETATM   14  C   UNL     1       5.990  24.995  52.687  1.00  0.00     0.135 C 
BRANCH  14  15
HETATM   15  C   UNL     1       5.695  26.218  51.841  1.00  0.00    -0.012 A 
HETATM   16  C   UNL     1       5.909  27.506  52.384  1.00  0.00     0.075 A 
HETATM   17  C   UNL     1       5.595  28.642  51.631  1.00  0.00     0.037 A 
HETATM   18  C   UNL     1       5.040  28.514  50.357  1.00  0.00     0.003 A 
HETATM   19  C   UNL     1       4.782  27.253  49.833  1.00  0.00     0.001 A 
HETATM   20  C   UNL     1       5.094  26.112  50.573  1.00  0.00     0.011 A 
BRANCH  16  21
HETATM   21  O   UNL     1       6.411  27.541  53.660  1.00  0.00    -0.355 OA
HETATM   22  C   UNL     1       5.641  28.210  54.653  1.00  0.00     0.210 C 
ENDBRANCH  16  21
ENDBRANCH  14  15
ENDBRANCH  12  14
ENDBRANCH   3  12
BRANCH   1  23
HETATM   23  N   UNL     1       7.999  25.032  57.596  1.00  0.00    -0.262 NA
HETATM   24  H   UNL     1       7.728  24.487  58.408  1.00  0.00     0.130 HD
BRANCH  23  25
HETATM   25  C   UNL     1       7.300  26.319  57.548  1.00  0.00     0.095 C 
BRANCH  25  26
HETATM   26  C   UNL     1       8.311  27.453  57.342  1.00  0.00     0.014 C 
BRANCH  26  27
HETATM   27  C   UNL     1       7.821  28.789  57.906  1.00  0.00    -0.003 C 
HETATM   28  C   UNL     1       8.961  29.788  58.033  1.00  0.00     0.005 C 
ENDBRANCH  26  27
ENDBRANCH  25  26
ENDBRANCH  23  25
ENDBRANCH   1  23
TORSDOF 8
ENDMDL
MODEL 6
REMARK VINA RESULT:      -7.8      2.127      6.853
REMARK  8 active torsions:
REMARK  status: ('A' for Active; 'I' for Inactive)
REMARK    1  A    between atoms: C_2  and  C_3 
REMARK    2  A    between atoms: C_3  and  C_4 
REMARK    3  A    between atoms: C_4  and  N_5 
REMARK    4  A    between atoms: N_5  and  C_6 
REMARK    5  A    between atoms: C_8  and  N_9 
REMARK    6  A    between atoms: N_9  and  C_10 
REMARK    7  A    between atoms: C_10  and  C_11 
REMARK    8  A    between atoms: C_12  and  O_13 
ROOT
HETATM    1  C   UNL     1       7.279  24.552  52.795  1.00  0.00     0.181 A 
HETATM    2  N   UNL     1       6.921  24.956  54.028  1.00  0.00    -0.207 NA
HETATM    3  C   UNL     1       7.012  24.064  55.033  1.00  0.00     0.119 A 
HETATM    4  C   UNL     1       7.509  22.757  54.837  1.00  0.00     0.031 A 
HETATM    5  C   UNL     1       7.810  22.397  53.511  1.00  0.00     0.048 A 
HETATM    6  N   UNL     1       7.674  23.307  52.542  1.00  0.00    -0.330 N 
HETATM    7  H   UNL     1       7.851  23.069  51.575  1.00  0.00     0.168 HD
HETATM    8  C   UNL     1       7.751  21.793  55.845  1.00  0.00     0.017 A 
HETATM    9  C   UNL     1       8.212  20.513  55.531  1.00  0.00     0.001 A 
HETATM   10  C   UNL     1       8.456  20.165  54.208  1.00  0.00     0.002 A 
HETATM   11  C   UNL     1       8.264  21.106  53.198  1.00  0.00     0.030 A 
ENDROOT
BRANCH   3  12
HETATM   12  N   UNL     1       6.595  24.544  56.271  1.00  0.00    -0.272 NA
HETATM   13  H   UNL     1       7.418  24.780  56.821  1.00  0.00     0.129 HD
BRANCH  12  14
HETATM   14  C   UNL     1       5.624  25.651  56.239  1.00  0.00     0.135 C 
BRANCH  14  15
HETATM   15  C   UNL     1       6.138  26.947  56.836  1.00  0.00    -0.012 A 
HETATM   16  C   UNL     1       5.397  28.137  56.653  1.00  0.00     0.075 A 
HETATM   17  C   UNL     1       5.885  29.348  57.157  1.00  0.00     0.037 A 
HETATM   18  C   UNL     1       7.117  29.395  57.811  1.00  0.00     0.003 A 
HETATM   19  C   UNL     1       7.875  28.238  57.955  1.00  0.00     0.001 A 
HETATM   20  C   UNL     1       7.397  27.025  57.460  1.00  0.00     0.011 A 
BRANCH  16  21
HETATM   21  O   UNL     1       4.223  28.010  55.955  1.00  0.00    -0.355 OA
HETATM   22  C   UNL     1       4.123  28.681  54.703  1.00  0.00     0.210 C 
ENDBRANCH  16  21
ENDBRANCH  14  15
ENDBRANCH  12  14
ENDBRANCH   3  12
BRANCH   1  23
HETATM   23  N   UNL     1       7.230  25.406  51.703  1.00  0.00    -0.262 NA
HETATM   24  H   UNL     1       8.110  25.867  51.496  1.00  0.00     0.130 HD
BRANCH  23  25
HETATM   25  C   UNL     1       6.107  26.347  51.684  1.00  0.00     0.095 C 
BRANCH  25  26
HETATM   26  C   UNL     1       5.018  25.840  50.732  1.00  0.00     0.014 C 
BRANCH  26  27
HETATM   27  C   UNL     1       4.532  26.920  49.763  1.00  0.00    -0.003 C 
HETATM   28  C   UNL     1       5.394  28.170  49.849  1.00  0.00     0.005 C 
ENDBRANCH  26  27
ENDBRANCH  25  26
ENDBRANCH  23  25
ENDBRANCH   1  23
TORSDOF 8
ENDMDL
MODEL 7
REMARK VINA RESULT:      -7.8      1.987      6.101
REMARK  8 active torsions:
REMARK  status: ('A' for Active; 'I' for Inactive)
REMARK    1  A    between atoms: C_2  and  C_3 
REMARK    2  A    between atoms: C_3  and  C_4 
REMARK    3  A    between atoms: C_4  and  N_5 
REMARK    4  A    between atoms: N_5  and  C_6 
REMARK    5  A    between atoms: C_8  and  N_9 
REMARK    6  A    between atoms: N_9  and  C_10 
REMARK    7  A    between atoms: C_10  and  C_11 
REMARK    8  A    between atoms: C_12  and  O_13 
ROOT
HETATM    1  C   UNL     1       7.963  24.179  56.334  1.00  0.00     0.181 A 
HETATM    2  N   UNL     1       7.614  24.746  55.165  1.00  0.00    -0.207 NA
HETATM    3  C   UNL     1       7.647  23.978  54.058  1.00  0.00     0.119 A 
HETATM    4  C   UNL     1       7.985  22.608  54.103  1.00  0.00     0.031 A 
HETATM    5  C   UNL     1       8.389  22.106  55.353  1.00  0.00     0.048 A 
HETATM    6  N   UNL     1       8.370  22.914  56.417  1.00  0.00    -0.330 N 
HETATM    7  H   UNL     1       8.685  22.591  57.322  1.00  0.00     0.168 HD
HETATM    8  C   UNL     1       7.933  21.698  53.020  1.00  0.00     0.017 A 
HETATM    9  C   UNL     1       8.328  20.367  53.170  1.00  0.00     0.001 A 
HETATM   10  C   UNL     1       8.769  19.906  54.405  1.00  0.00     0.002 A 
HETATM   11  C   UNL     1       8.793  20.769  55.498  1.00  0.00     0.030 A 
ENDROOT
BRANCH   3  12
HETATM   12  N   UNL     1       7.304  24.643  52.884  1.00  0.00    -0.272 NA
HETATM   13  H   UNL     1       6.328  24.448  52.676  1.00  0.00     0.129 HD
BRANCH  12  14
HETATM   14  C   UNL     1       7.591  26.087  52.854  1.00  0.00     0.135 C 
BRANCH  14  15
HETATM   15  C   UNL     1       6.424  26.962  53.268  1.00  0.00    -0.012 A 
HETATM   16  C   UNL     1       5.189  26.837  52.592  1.00  0.00     0.075 A 
HETATM   17  C   UNL     1       4.120  27.673  52.932  1.00  0.00     0.037 A 
HETATM   18  C   UNL     1       4.274  28.653  53.912  1.00  0.00     0.003 A 
HETATM   19  C   UNL     1       5.499  28.816  54.550  1.00  0.00     0.001 A 
HETATM   20  C   UNL     1       6.571  27.986  54.222  1.00  0.00     0.011 A 
BRANCH  16  21
HETATM   21  O   UNL     1       5.139  25.883  51.608  1.00  0.00    -0.355 OA
HETATM   22  C   UNL     1       4.927  26.324  50.271  1.00  0.00     0.210 C 
ENDBRANCH  16  21
ENDBRANCH  14  15
ENDBRANCH  12  14
ENDBRANCH   3  12
BRANCH   1  23
HETATM   23  N   UNL     1       7.946  24.889  57.526  1.00  0.00    -0.262 NA
HETATM   24  H   UNL     1       7.084  24.795  58.053  1.00  0.00     0.130 HD
BRANCH  23  25
HETATM   25  C   UNL     1       8.379  26.286  57.437  1.00  0.00     0.095 C 
BRANCH  25  26
HETATM   26  C   UNL     1       7.192  27.217  57.709  1.00  0.00     0.014 C 
BRANCH  26  27
HETATM   27  C   UNL     1       7.601  28.691  57.771  1.00  0.00    -0.003 C 
HETATM   28  C   UNL     1       9.030  28.890  57.286  1.00  0.00     0.005 C 
ENDBRANCH  26  27
ENDBRANCH  25  26
ENDBRANCH  23  25
ENDBRANCH   1  23
TORSDOF 8
ENDMDL
MODEL 8
REMARK VINA RESULT:      -7.8      1.489      4.981
REMARK  8 active torsions:
REMARK  status: ('A' for Active; 'I' for Inactive)
REMARK    1  A    between atoms: C_2  and  C_3 
REMARK    2  A    between atoms: C_3  and  C_4 
REMARK    3  A    between atoms: C_4  and  N_5 
REMARK    4  A    between atoms: N_5  and  C_6 
REMARK    5  A    between atoms: C_8  and  N_9 
REMARK    6  A    between atoms: N_9  and  C_10 
REMARK    7  A    between atoms: C_10  and  C_11 
REMARK    8  A    between atoms: C_12  and  O_13 
ROOT
HETATM    1  C   UNL     1       6.141  28.016  52.900  1.00  0.00     0.181 A 
HETATM    2  N   UNL     1       6.687  26.788  52.964  1.00  0.00    -0.207 NA
HETATM    3  C   UNL     1       7.272  26.419  54.120  1.00  0.00     0.119 A 
HETATM    4  C   UNL     1       7.283  27.254  55.258  1.00  0.00     0.031 A 
HETATM    5  C   UNL     1       6.740  28.541  55.092  1.00  0.00     0.048 A 
HETATM    6  N   UNL     1       6.199  28.874  53.916  1.00  0.00    -0.330 N 
HETATM    7  H   UNL     1       5.830  29.801  53.756  1.00  0.00     0.168 HD
HETATM    8  C   UNL     1       7.766  26.911  56.544  1.00  0.00     0.017 A 
HETATM    9  C   UNL     1       7.762  27.834  57.592  1.00  0.00     0.001 A 
HETATM   10  C   UNL     1       7.263  29.116  57.390  1.00  0.00     0.002 A 
HETATM   11  C   UNL     1       6.746  29.469  56.145  1.00  0.00     0.030 A 
ENDROOT
BRANCH   3  12
HETATM   12  N   UNL     1       7.841  25.149  54.100  1.00  0.00    -0.272 NA
HETATM   13  H   UNL     1       8.214  24.946  55.023  1.00  0.00     0.129 HD
BRANCH  12  14
HETATM   14  C   UNL     1       6.975  24.063  53.611  1.00  0.00     0.135 C 
BRANCH  14  15
HETATM   15  C   UNL     1       7.499  22.670  53.902  1.00  0.00    -0.012 A 
HETATM   16  C   UNL     1       7.746  22.287  55.241  1.00  0.00     0.075 A 
HETATM   17  C   UNL     1       8.276  21.023  55.519  1.00  0.00     0.037 A 
HETATM   18  C   UNL     1       8.594  20.146  54.481  1.00  0.00     0.003 A 
HETATM   19  C   UNL     1       8.398  20.531  53.159  1.00  0.00     0.001 A 
HETATM   20  C   UNL     1       7.867  21.788  52.870  1.00  0.00     0.011 A 
BRANCH  16  21
HETATM   21  O   UNL     1       7.452  23.227  56.196  1.00  0.00    -0.355 OA
HETATM   22  C   UNL     1       8.390  23.412  57.251  1.00  0.00     0.210 C 
ENDBRANCH  16  21
ENDBRANCH  14  15
ENDBRANCH  12  14
ENDBRANCH   3  12
BRANCH   1  23
HETATM   23  N   UNL     1       5.507  28.476  51.755  1.00  0.00    -0.262 NA
HETATM   24  H   UNL     1       4.661  29.007  51.934  1.00  0.00     0.130 HD
BRANCH  23  25
HETATM   25  C   UNL     1       5.310  27.482  50.697  1.00  0.00     0.095 C 
BRANCH  25  26
HETATM   26  C   UNL     1       4.310  28.012  49.663  1.00  0.00     0.014 C 
BRANCH  26  27
HETATM   27  C   UNL     1       4.749  27.737  48.223  1.00  0.00    -0.003 C 
HETATM   28  C   UNL     1       4.338  26.342  47.775  1.00  0.00     0.005 C 
ENDBRANCH  26  27
ENDBRANCH  25  26
ENDBRANCH  23  25
ENDBRANCH   1  23
TORSDOF 8
ENDMDL
MODEL 9
REMARK VINA RESULT:      -7.8      2.238      6.162
REMARK  8 active torsions:
REMARK  status: ('A' for Active; 'I' for Inactive)
REMARK    1  A    between atoms: C_2  and  C_3 
REMARK    2  A    between atoms: C_3  and  C_4 
REMARK    3  A    between atoms: C_4  and  N_5 
REMARK    4  A    between atoms: N_5  and  C_6 
REMARK    5  A    between atoms: C_8  and  N_9 
REMARK    6  A    between atoms: N_9  and  C_10 
REMARK    7  A    between atoms: C_10  and  C_11 
REMARK    8  A    between atoms: C_12  and  O_13 
ROOT
HETATM    1  C   UNL     1       5.607  25.496  55.310  1.00  0.00     0.181 A 
HETATM    2  N   UNL     1       5.623  25.816  54.004  1.00  0.00    -0.207 NA
HETATM    3  C   UNL     1       6.356  25.045  53.176  1.00  0.00     0.119 A 
HETATM    4  C   UNL     1       7.054  23.905  53.631  1.00  0.00     0.031 A 
HETATM    5  C   UNL     1       7.030  23.672  55.018  1.00  0.00     0.048 A 
HETATM    6  N   UNL     1       6.315  24.483  55.804  1.00  0.00    -0.330 N 
HETATM    7  H   UNL     1       6.304  24.360  56.807  1.00  0.00     0.168 HD
HETATM    8  C   UNL     1       7.750  22.973  52.825  1.00  0.00     0.017 A 
HETATM    9  C   UNL     1       8.439  21.897  53.388  1.00  0.00     0.001 A 
HETATM   10  C   UNL     1       8.441  21.715  54.766  1.00  0.00     0.002 A 
HETATM   11  C   UNL     1       7.732  22.595  55.582  1.00  0.00     0.030 A 
ENDROOT
BRANCH   3  12
HETATM   12  N   UNL     1       6.348  25.456  51.847  1.00  0.00    -0.272 NA
HETATM   13  H   UNL     1       6.890  24.793  51.300  1.00  0.00     0.129 HD
BRANCH  12  14
HETATM   14  C   UNL     1       5.022  25.697  51.254  1.00  0.00     0.135 C 
BRANCH  14  15
HETATM   15  C   UNL     1       5.028  26.666  50.088  1.00  0.00    -0.012 A 
HETATM   16  C   UNL     1       5.385  28.017  50.309  1.00  0.00     0.075 A 
HETATM   17  C   UNL     1       5.348  28.931  49.251  1.00  0.00     0.037 A 
HETATM   18  C   UNL     1       4.929  28.527  47.983  1.00  0.00     0.003 A 
HETATM   19  C   UNL     1       4.532  27.212  47.766  1.00  0.00     0.001 A 
HETATM   20  C   UNL     1       4.568  26.291  48.813  1.00  0.00     0.011 A 
BRANCH  16  21
HETATM   21  O   UNL     1       5.736  28.339  51.596  1.00  0.00    -0.355 OA
HETATM   22  C   UNL     1       4.891  29.240  52.304  1.00  0.00     0.210 C 
ENDBRANCH  16  21
ENDBRANCH  14  15
ENDBRANCH  12  14
ENDBRANCH   3  12
BRANCH   1  23
HETATM   23  N   UNL     1       4.870  26.225  56.233  1.00  0.00    -0.262 NA
HETATM   24  H   UNL     1       3.898  25.943  56.304  1.00  0.00     0.130 HD
BRANCH  23  25
HETATM   25  C   UNL     1       5.007  27.681  56.145  1.00  0.00     0.095 C 
BRANCH  25  26
HETATM   26  C   UNL     1       5.944  28.184  57.249  1.00  0.00     0.014 C 
BRANCH  26  27
HETATM   27  C   UNL     1       7.368  28.432  56.746  1.00  0.00    -0.003 C 
HETATM   28  C   UNL     1       8.304  27.305  57.155  1.00  0.00     0.005 C 
ENDBRANCH  26  27
ENDBRANCH  25  26
ENDBRANCH  23  25
ENDBRANCH   1  23
TORSDOF 8
ENDMDL
MODEL 10
REMARK VINA RESULT:      -7.7      2.784      4.213
REMARK  8 active torsions:
REMARK  status: ('A' for Active; 'I' for Inactive)
REMARK    1  A    between atoms: C_2  and  C_3 
REMARK    2  A    between atoms: C_3  and  C_4 
REMARK    3  A    between atoms: C_4  and  N_5 
REMARK    4  A    between atoms: N_5  and  C_6 
REMARK    5  A    between atoms: C_8  and  N_9 
REMARK    6  A    between atoms: N_9  and  C_10 
REMARK    7  A    between atoms: C_10  and  C_11 
REMARK    8  A    between atoms: C_12  and  O_13 
ROOT
HETATM    1  C   UNL     1       7.840  29.113  58.188  1.00  0.00     0.181 A 
HETATM    2  N   UNL     1       7.810  27.772  58.079  1.00  0.00    -0.207 NA
HETATM    3  C   UNL     1       6.899  27.228  57.249  1.00  0.00     0.119 A 
HETATM    4  C   UNL     1       6.024  28.018  56.472  1.00  0.00     0.031 A 
HETATM    5  C   UNL     1       6.082  29.407  56.684  1.00  0.00     0.048 A 
HETATM    6  N   UNL     1       6.982  29.898  57.542  1.00  0.00    -0.330 N 
HETATM    7  H   UNL     1       7.026  30.888  57.740  1.00  0.00     0.168 HD
HETATM    8  C   UNL     1       5.119  27.545  55.491  1.00  0.00     0.017 A 
HETATM    9  C   UNL     1       4.271  28.416  54.805  1.00  0.00     0.001 A 
HETATM   10  C   UNL     1       4.313  29.781  55.067  1.00  0.00     0.002 A 
HETATM   11  C   UNL     1       5.221  30.279  55.999  1.00  0.00     0.030 A 
ENDROOT
BRANCH   3  12
HETATM   12  N   UNL     1       6.909  25.837  57.213  1.00  0.00    -0.272 NA
HETATM   13  H   UNL     1       6.213  25.526  56.541  1.00  0.00     0.129 HD
BRANCH  12  14
HETATM   14  C   UNL     1       8.218  25.208  56.975  1.00  0.00     0.135 C 
BRANCH  14  15
HETATM   15  C   UNL     1       8.162  23.963  56.110  1.00  0.00    -0.012 A 
HETATM   16  C   UNL     1       7.815  24.082  54.745  1.00  0.00     0.075 A 
HETATM   17  C   UNL     1       7.712  22.936  53.948  1.00  0.00     0.037 A 
HETATM   18  C   UNL     1       7.918  21.672  54.501  1.00  0.00     0.003 A 
HETATM   19  C   UNL     1       8.214  21.541  55.853  1.00  0.00     0.001 A 
HETATM   20  C   UNL     1       8.323  22.676  56.656  1.00  0.00     0.011 A 
BRANCH  16  21
HETATM   21  O   UNL     1       7.581  25.357  54.296  1.00  0.00    -0.355 OA
HETATM   22  C   UNL     1       7.819  25.625  52.918  1.00  0.00     0.210 C 
ENDBRANCH  16  21
ENDBRANCH  14  15
ENDBRANCH  12  14
ENDBRANCH   3  12
BRANCH   1  23
HETATM   23  N   UNL     1       8.753  29.760  59.009  1.00  0.00    -0.262 NA
HETATM   24  H   UNL     1       8.457  29.841  59.976  1.00  0.00     0.130 HD
BRANCH  23  25
HETATM   25  C   UNL     1       9.280  31.027  58.494  1.00  0.00     0.095 C 
BRANCH  25  26
HETATM   26  C   UNL     1       9.646  31.951  59.662  1.00  0.00     0.014 C 
BRANCH  26  27
HETATM   27  C   UNL     1       8.460  32.226  60.590  1.00  0.00    -0.003 C 
HETATM   28  C   UNL     1       8.846  32.043  62.050  1.00  0.00     0.005 C 
ENDBRANCH  26  27
ENDBRANCH  25  26
ENDBRANCH  23  25
ENDBRANCH   1  23
TORSDOF 8
ENDMDL
