MODEL 1
REMARK VINA RESULT:      -8.7      0.000      0.000
REMARK  6 active torsions:
REMARK  status: ('A' for Active; 'I' for Inactive)
REMARK    1  A    between atoms: O_2  and  C_3 
REMARK    2  A    between atoms: C_4  and  O_5 
REMARK    3  A    between atoms: O_5  and  C_6 
REMARK    4  A    between atoms: C_11  and  C_12 
REMARK    5  A    between atoms: C_12  and  N_13 
REMARK       I    between atoms: N_13  and  C_14 
REMARK    6  A    between atoms: C_14  and  C_15 
ROOT
HETATM    1  N   UNL     1       8.916  31.096  60.837  1.00  0.00    -0.353 N 
HETATM    2  C   UNL     1       9.265  31.376  59.534  1.00  0.00     0.252 C 
HETATM    3  O   UNL     1       9.849  32.402  59.205  1.00  0.00    -0.268 OA
HETATM    4  H   UNL     1       8.247  30.362  61.028  1.00  0.00     0.163 HD
ENDROOT
BRANCH   1   5
HETATM    5  C   UNL     1       9.162  32.059  61.884  1.00  0.00     0.161 C 
BRANCH   5   6
HETATM    6  C   UNL     1       7.914  32.282  62.696  1.00  0.00    -0.038 A 
HETATM    7  C   UNL     1       7.962  33.023  63.885  1.00  0.00     0.012 A 
HETATM    8  C   UNL     1       6.797  33.268  64.608  1.00  0.00     0.040 A 
HETATM    9  C   UNL     1       5.576  32.764  64.153  1.00  0.00     0.108 A 
HETATM   10  C   UNL     1       5.501  32.047  62.951  1.00  0.00     0.102 A 
HETATM   11  C   UNL     1       6.675  31.805  62.232  1.00  0.00     0.048 A 
BRANCH   9  12
HETATM   12  O   UNL     1       4.414  33.042  64.829  1.00  0.00    -0.287 OA
BRANCH  12  13
HETATM   13  C   UNL     1       4.607  34.094  65.761  1.00  0.00     0.505 C 
HETATM   14  F   UNL     1       3.585  34.980  65.633  1.00  0.00    -0.184 F 
HETATM   15  F   UNL     1       4.500  33.565  67.006  1.00  0.00    -0.184 F 
ENDBRANCH  12  13
ENDBRANCH   9  12
BRANCH  10  16
HETATM   16  O   UNL     1       4.256  31.605  62.588  1.00  0.00    -0.353 OA
HETATM   17  C   UNL     1       3.681  32.183  61.421  1.00  0.00     0.210 C 
ENDBRANCH  10  16
ENDBRANCH   5   6
ENDBRANCH   1   5
BRANCH   2  18
HETATM   18  C   UNL     1       8.860  30.377  58.503  1.00  0.00     0.034 A 
HETATM   19  C   UNL     1       7.603  29.753  58.535  1.00  0.00     0.051 A 
HETATM   20  C   UNL     1       7.290  28.831  57.526  1.00  0.00     0.085 A 
HETATM   21  C   UNL     1       8.226  28.547  56.538  1.00  0.00     0.062 A 
HETATM   22  N   UNL     1       6.140  28.106  57.335  1.00  0.00    -0.242 NA
HETATM   23  N   UNL     1       7.601  27.623  55.739  1.00  0.00    -0.349 N 
HETATM   24  C   UNL     1       9.489  29.134  56.487  1.00  0.00     0.033 A 
HETATM   25  H   UNL     1       7.993  27.187  54.916  1.00  0.00     0.167 HD
HETATM   26  C   UNL     1       6.357  27.392  56.254  1.00  0.00     0.208 A 
HETATM   27  C   UNL     1       9.788  30.058  57.497  1.00  0.00     0.019 A 
ENDBRANCH   2  18
TORSDOF 6
ENDMDL
MODEL 2
REMARK VINA RESULT:      -8.6      7.266     11.101
REMARK  6 active torsions:
REMARK  status: ('A' for Active; 'I' for Inactive)
REMARK    1  A    between atoms: O_2  and  C_3 
REMARK    2  A    between atoms: C_4  and  O_5 
REMARK    3  A    between atoms: O_5  and  C_6 
REMARK    4  A    between atoms: C_11  and  C_12 
REMARK    5  A    between atoms: C_12  and  N_13 
REMARK       I    between atoms: N_13  and  C_14 
REMARK    6  A    between atoms: C_14  and  C_15 
ROOT
HETATM    1  N   UNL     1       6.703  27.080  55.317  1.00  0.00    -0.353 N 
HETATM    2  C   UNL     1       7.582  28.043  54.871  1.00  0.00     0.252 C 
HETATM    3  O   UNL     1       7.808  28.241  53.682  1.00  0.00    -0.268 OA
HETATM    4  H   UNL     1       6.719  26.803  56.289  1.00  0.00     0.163 HD
ENDROOT
BRANCH   1   5
HETATM    5  C   UNL     1       6.054  26.192  54.382  1.00  0.00     0.161 C 
BRANCH   5   6
HETATM    6  C   UNL     1       6.880  24.950  54.179  1.00  0.00    -0.038 A 
HETATM    7  C   UNL     1       7.037  24.402  52.899  1.00  0.00     0.012 A 
HETATM    8  C   UNL     1       7.841  23.280  52.708  1.00  0.00     0.040 A 
HETATM    9  C   UNL     1       8.487  22.693  53.798  1.00  0.00     0.108 A 
HETATM   10  C   UNL     1       8.368  23.243  55.082  1.00  0.00     0.102 A 
HETATM   11  C   UNL     1       7.558  24.367  55.265  1.00  0.00     0.048 A 
BRANCH   9  12
HETATM   12  O   UNL     1       9.322  21.619  53.615  1.00  0.00    -0.287 OA
BRANCH  12  13
HETATM   13  C   UNL     1       8.581  20.421  53.448  1.00  0.00     0.505 C 
HETATM   14  F   UNL     1       7.320  20.622  53.913  1.00  0.00    -0.184 F 
HETATM   15  F   UNL     1       8.464  20.194  52.115  1.00  0.00    -0.184 F 
ENDBRANCH  12  13
ENDBRANCH   9  12
BRANCH  10  16
HETATM   16  O   UNL     1       9.048  22.597  56.081  1.00  0.00    -0.353 OA
HETATM   17  C   UNL     1       8.299  21.700  56.895  1.00  0.00     0.210 C 
ENDBRANCH  10  16
ENDBRANCH   5   6
ENDBRANCH   1   5
BRANCH   2  18
HETATM   18  C   UNL     1       8.300  28.831  55.914  1.00  0.00     0.034 A 
HETATM   19  C   UNL     1       7.715  29.108  57.160  1.00  0.00     0.051 A 
HETATM   20  C   UNL     1       8.453  29.848  58.094  1.00  0.00     0.085 A 
HETATM   21  C   UNL     1       9.727  30.299  57.764  1.00  0.00     0.062 A 
HETATM   22  N   UNL     1       8.111  30.235  59.366  1.00  0.00    -0.242 NA
HETATM   23  N   UNL     1      10.146  30.973  58.883  1.00  0.00    -0.349 N 
HETATM   24  C   UNL     1      10.330  30.057  56.530  1.00  0.00     0.033 A 
HETATM   25  H   UNL     1      11.034  31.440  58.998  1.00  0.00     0.167 HD
HETATM   26  C   UNL     1       9.147  30.907  59.814  1.00  0.00     0.208 A 
HETATM   27  C   UNL     1       9.584  29.312  55.608  1.00  0.00     0.019 A 
ENDBRANCH   2  18
TORSDOF 6
ENDMDL
MODEL 3
REMARK VINA RESULT:      -8.3     10.423     12.979
REMARK  6 active torsions:
REMARK  status: ('A' for Active; 'I' for Inactive)
REMARK    1  A    between atoms: O_2  and  C_3 
REMARK    2  A    between atoms: C_4  and  O_5 
REMARK    3  A    between atoms: O_5  and  C_6 
REMARK    4  A    between atoms: C_11  and  C_12 
REMARK    5  A    between atoms: C_12  and  N_13 
REMARK       I    between atoms: N_13  and  C_14 
REMARK    6  A    between atoms: C_14  and  C_15 
ROOT
HETATM    1  N   UNL     1       4.705  26.247  51.806  1.00  0.00    -0.353 N 
HETATM    2  C   UNL     1       4.808  27.192  50.809  1.00  0.00     0.252 C 
HETATM    3  O   UNL     1       5.561  28.157  50.880  1.00  0.00    -0.268 OA
HETATM    4  H   UNL     1       3.922  25.607  51.807  1.00  0.00     0.163 HD
ENDROOT
BRANCH   1   5
HETATM    5  C   UNL     1       5.440  26.400  53.039  1.00  0.00     0.161 C 
BRANCH   5   6
HETATM    6  C   UNL     1       6.279  25.179  53.305  1.00  0.00    -0.038 A 
HETATM    7  C   UNL     1       6.936  24.524  52.255  1.00  0.00     0.012 A 
HETATM    8  C   UNL     1       7.750  23.423  52.512  1.00  0.00     0.040 A 
HETATM    9  C   UNL     1       7.905  22.963  53.821  1.00  0.00     0.108 A 
HETATM   10  C   UNL     1       7.281  23.621  54.891  1.00  0.00     0.102 A 
HETATM   11  C   UNL     1       6.465  24.724  54.623  1.00  0.00     0.048 A 
BRANCH   9  12
HETATM   12  O   UNL     1       8.744  21.911  54.094  1.00  0.00    -0.287 OA
BRANCH  12  13
HETATM   13  C   UNL     1       8.211  20.694  53.598  1.00  0.00     0.505 C 
HETATM   14  F   UNL     1       9.025  20.232  52.613  1.00  0.00    -0.184 F 
HETATM   15  F   UNL     1       8.271  19.782  54.601  1.00  0.00    -0.184 F 
ENDBRANCH  12  13
ENDBRANCH   9  12
BRANCH  10  16
HETATM   16  O   UNL     1       7.504  23.096  56.136  1.00  0.00    -0.353 OA
HETATM   17  C   UNL     1       8.306  23.865  57.026  1.00  0.00     0.210 C 
ENDBRANCH  10  16
ENDBRANCH   5   6
ENDBRANCH   1   5
BRANCH   2  18
HETATM   18  C   UNL     1       3.918  27.018  49.625  1.00  0.00     0.034 A 
HETATM   19  C   UNL     1       2.991  28.002  49.250  1.00  0.00     0.051 A 
HETATM   20  C   UNL     1       2.193  27.772  48.119  1.00  0.00     0.085 A 
HETATM   21  C   UNL     1       2.326  26.581  47.414  1.00  0.00     0.062 A 
HETATM   22  N   UNL     1       1.234  28.573  47.552  1.00  0.00    -0.242 NA
HETATM   23  N   UNL     1       1.412  26.689  46.396  1.00  0.00    -0.349 N 
HETATM   24  C   UNL     1       3.224  25.575  47.770  1.00  0.00     0.033 A 
HETATM   25  H   UNL     1       1.232  25.997  45.684  1.00  0.00     0.167 HD
HETATM   26  C   UNL     1       0.785  27.897  46.520  1.00  0.00     0.208 A 
HETATM   27  C   UNL     1       4.018  25.820  48.897  1.00  0.00     0.019 A 
ENDBRANCH   2  18
TORSDOF 6
ENDMDL
MODEL 4
REMARK VINA RESULT:      -8.2      5.057      7.754
REMARK  6 active torsions:
REMARK  status: ('A' for Active; 'I' for Inactive)
REMARK    1  A    between atoms: O_2  and  C_3 
REMARK    2  A    between atoms: C_4  and  O_5 
REMARK    3  A    between atoms: O_5  and  C_6 
REMARK    4  A    between atoms: C_11  and  C_12 
REMARK    5  A    between atoms: C_12  and  N_13 
REMARK       I    between atoms: N_13  and  C_14 
REMARK    6  A    between atoms: C_14  and  C_15 
ROOT
HETATM    1  N   UNL     1       7.484  26.535  54.098  1.00  0.00    -0.353 N 
HETATM    2  C   UNL     1       6.565  25.512  54.181  1.00  0.00     0.252 C 
HETATM    3  O   UNL     1       5.355  25.704  54.227  1.00  0.00    -0.268 OA
HETATM    4  H   UNL     1       8.458  26.347  54.290  1.00  0.00     0.163 HD
ENDROOT
BRANCH   1   5
HETATM    5  C   UNL     1       7.052  27.912  54.137  1.00  0.00     0.161 C 
BRANCH   5   6
HETATM    6  C   UNL     1       7.245  28.483  55.517  1.00  0.00    -0.038 A 
HETATM    7  C   UNL     1       8.316  28.064  56.317  1.00  0.00     0.012 A 
HETATM    8  C   UNL     1       8.520  28.631  57.574  1.00  0.00     0.040 A 
HETATM    9  C   UNL     1       7.647  29.614  58.043  1.00  0.00     0.108 A 
HETATM   10  C   UNL     1       6.587  30.071  57.246  1.00  0.00     0.102 A 
HETATM   11  C   UNL     1       6.390  29.496  55.988  1.00  0.00     0.048 A 
BRANCH   9  12
HETATM   12  O   UNL     1       7.866  30.216  59.257  1.00  0.00    -0.287 OA
BRANCH  12  13
HETATM   13  C   UNL     1       9.206  30.669  59.365  1.00  0.00     0.505 C 
HETATM   14  F   UNL     1       9.238  32.001  59.097  1.00  0.00    -0.184 F 
HETATM   15  F   UNL     1       9.582  30.531  60.662  1.00  0.00    -0.184 F 
ENDBRANCH  12  13
ENDBRANCH   9  12
BRANCH  10  16
HETATM   16  O   UNL     1       5.795  31.045  57.795  1.00  0.00    -0.353 OA
HETATM   17  C   UNL     1       5.155  31.940  56.892  1.00  0.00     0.210 C 
ENDBRANCH  10  16
ENDBRANCH   5   6
ENDBRANCH   1   5
BRANCH   2  18
HETATM   18  C   UNL     1       7.110  24.126  54.259  1.00  0.00     0.034 A 
HETATM   19  C   UNL     1       7.375  23.507  55.491  1.00  0.00     0.051 A 
HETATM   20  C   UNL     1       7.879  22.198  55.485  1.00  0.00     0.085 A 
HETATM   21  C   UNL     1       8.117  21.557  54.274  1.00  0.00     0.062 A 
HETATM   22  N   UNL     1       8.205  21.386  56.542  1.00  0.00    -0.242 NA
HETATM   23  N   UNL     1       8.599  20.324  54.636  1.00  0.00    -0.349 N 
HETATM   24  C   UNL     1       7.882  22.149  53.034  1.00  0.00     0.033 A 
HETATM   25  H   UNL     1       8.882  19.589  54.004  1.00  0.00     0.167 HD
HETATM   26  C   UNL     1       8.633  20.268  56.001  1.00  0.00     0.208 A 
HETATM   27  C   UNL     1       7.373  23.454  53.053  1.00  0.00     0.019 A 
ENDBRANCH   2  18
TORSDOF 6
ENDMDL
MODEL 5
REMARK VINA RESULT:      -8.2      7.169     10.999
REMARK  6 active torsions:
REMARK  status: ('A' for Active; 'I' for Inactive)
REMARK    1  A    between atoms: O_2  and  C_3 
REMARK    2  A    between atoms: C_4  and  O_5 
REMARK    3  A    between atoms: O_5  and  C_6 
REMARK    4  A    between atoms: C_11  and  C_12 
REMARK    5  A    between atoms: C_12  and  N_13 
REMARK       I    between atoms: N_13  and  C_14 
REMARK    6  A    between atoms: C_14  and  C_15 
ROOT
HETATM    1  N   UNL     1       6.401  27.899  54.619  1.00  0.00    -0.353 N 
HETATM    2  C   UNL     1       5.486  28.424  55.505  1.00  0.00     0.252 C 
HETATM    3  O   UNL     1       4.285  28.187  55.442  1.00  0.00    -0.268 OA
HETATM    4  H   UNL     1       7.330  28.295  54.569  1.00  0.00     0.163 HD
ENDROOT
BRANCH   1   5
HETATM    5  C   UNL     1       5.963  27.090  53.507  1.00  0.00     0.161 C 
BRANCH   5   6
HETATM    6  C   UNL     1       6.639  25.745  53.537  1.00  0.00    -0.038 A 
HETATM    7  C   UNL     1       7.244  25.228  52.385  1.00  0.00     0.012 A 
HETATM    8  C   UNL     1       7.912  24.005  52.429  1.00  0.00     0.040 A 
HETATM    9  C   UNL     1       7.969  23.287  53.625  1.00  0.00     0.108 A 
HETATM   10  C   UNL     1       7.396  23.801  54.798  1.00  0.00     0.102 A 
HETATM   11  C   UNL     1       6.728  25.027  54.743  1.00  0.00     0.048 A 
BRANCH   9  12
HETATM   12  O   UNL     1       8.666  22.107  53.695  1.00  0.00    -0.287 OA
BRANCH  12  13
HETATM   13  C   UNL     1       7.909  21.037  53.152  1.00  0.00     0.505 C 
HETATM   14  F   UNL     1       8.748  20.211  52.473  1.00  0.00    -0.184 F 
HETATM   15  F   UNL     1       7.420  20.312  54.191  1.00  0.00    -0.184 F 
ENDBRANCH  12  13
ENDBRANCH   9  12
BRANCH  10  16
HETATM   16  O   UNL     1       7.516  23.023  55.920  1.00  0.00    -0.353 OA
HETATM   17  C   UNL     1       8.394  23.491  56.937  1.00  0.00     0.210 C 
ENDBRANCH  10  16
ENDBRANCH   5   6
ENDBRANCH   1   5
BRANCH   2  18
HETATM   18  C   UNL     1       6.016  29.349  56.548  1.00  0.00     0.034 A 
HETATM   19  C   UNL     1       7.061  28.971  57.405  1.00  0.00     0.051 A 
HETATM   20  C   UNL     1       7.513  29.897  58.356  1.00  0.00     0.085 A 
HETATM   21  C   UNL     1       6.912  31.148  58.438  1.00  0.00     0.062 A 
HETATM   22  N   UNL     1       8.513  29.772  59.288  1.00  0.00    -0.242 NA
HETATM   23  N   UNL     1       7.585  31.779  59.454  1.00  0.00    -0.349 N 
HETATM   24  C   UNL     1       5.860  31.549  57.615  1.00  0.00     0.033 A 
HETATM   25  H   UNL     1       7.409  32.714  59.793  1.00  0.00     0.167 HD
HETATM   26  C   UNL     1       8.533  30.917  59.930  1.00  0.00     0.208 A 
HETATM   27  C   UNL     1       5.422  30.617  56.666  1.00  0.00     0.019 A 
ENDBRANCH   2  18
TORSDOF 6
ENDMDL
MODEL 6
REMARK VINA RESULT:      -8.1      5.404     10.009
REMARK  6 active torsions:
REMARK  status: ('A' for Active; 'I' for Inactive)
REMARK    1  A    between atoms: O_2  and  C_3 
REMARK    2  A    between atoms: C_4  and  O_5 
REMARK    3  A    between atoms: O_5  and  C_6 
REMARK    4  A    between atoms: C_11  and  C_12 
REMARK    5  A    between atoms: C_12  and  N_13 
REMARK       I    between atoms: N_13  and  C_14 
REMARK    6  A    between atoms: C_14  and  C_15 
ROOT
HETATM    1  N   UNL     1       5.459  33.654  66.915  1.00  0.00    -0.353 N 
HETATM    2  C   UNL     1       5.625  34.727  67.763  1.00  0.00     0.252 C 
HETATM    3  O   UNL     1       5.161  35.838  67.533  1.00  0.00    -0.268 OA
HETATM    4  H   UNL     1       6.039  32.834  67.029  1.00  0.00     0.163 HD
ENDROOT
BRANCH   1   5
HETATM    5  C   UNL     1       4.781  33.818  65.651  1.00  0.00     0.161 C 
BRANCH   5   6
HETATM    6  C   UNL     1       5.674  33.391  64.517  1.00  0.00    -0.038 A 
HETATM    7  C   UNL     1       7.055  33.263  64.709  1.00  0.00     0.012 A 
HETATM    8  C   UNL     1       7.872  32.821  63.669  1.00  0.00     0.040 A 
HETATM    9  C   UNL     1       7.312  32.514  62.427  1.00  0.00     0.108 A 
HETATM   10  C   UNL     1       5.928  32.607  62.222  1.00  0.00     0.102 A 
HETATM   11  C   UNL     1       5.117  33.052  63.270  1.00  0.00     0.048 A 
BRANCH   9  12
HETATM   12  O   UNL     1       8.098  32.030  61.411  1.00  0.00    -0.287 OA
BRANCH  12  13
HETATM   13  C   UNL     1       9.254  31.388  61.925  1.00  0.00     0.505 C 
HETATM   14  F   UNL     1       9.372  30.169  61.335  1.00  0.00    -0.184 F 
HETATM   15  F   UNL     1      10.333  32.109  61.529  1.00  0.00    -0.184 F 
ENDBRANCH  12  13
ENDBRANCH   9  12
BRANCH  10  16
HETATM   16  O   UNL     1       5.479  32.275  60.971  1.00  0.00    -0.353 OA
HETATM   17  C   UNL     1       5.025  33.342  60.145  1.00  0.00     0.210 C 
ENDBRANCH  10  16
ENDBRANCH   5   6
ENDBRANCH   1   5
BRANCH   2  18
HETATM   18  C   UNL     1       6.446  34.494  68.987  1.00  0.00     0.034 A 
HETATM   19  C   UNL     1       6.285  33.342  69.773  1.00  0.00     0.051 A 
HETATM   20  C   UNL     1       7.098  33.187  70.904  1.00  0.00     0.085 A 
HETATM   21  C   UNL     1       8.023  34.174  71.228  1.00  0.00     0.062 A 
HETATM   22  N   UNL     1       7.139  32.160  71.815  1.00  0.00    -0.242 NA
HETATM   23  N   UNL     1       8.628  33.708  72.368  1.00  0.00    -0.349 N 
HETATM   24  C   UNL     1       8.196  35.338  70.479  1.00  0.00     0.033 A 
HETATM   25  H   UNL     1       9.357  34.175  72.887  1.00  0.00     0.167 HD
HETATM   26  C   UNL     1       8.067  32.501  72.679  1.00  0.00     0.208 A 
HETATM   27  C   UNL     1       7.381  35.477  69.348  1.00  0.00     0.019 A 
ENDBRANCH   2  18
TORSDOF 6
ENDMDL
MODEL 7
REMARK VINA RESULT:      -8.1      4.941      8.129
REMARK  6 active torsions:
REMARK  status: ('A' for Active; 'I' for Inactive)
REMARK    1  A    between atoms: O_2  and  C_3 
REMARK    2  A    between atoms: C_4  and  O_5 
REMARK    3  A    between atoms: O_5  and  C_6 
REMARK    4  A    between atoms: C_11  and  C_12 
REMARK    5  A    between atoms: C_12  and  N_13 
REMARK       I    between atoms: N_13  and  C_14 
REMARK    6  A    between atoms: C_14  and  C_15 
ROOT
HETATM    1  N   UNL     1       7.421  26.345  53.715  1.00  0.00    -0.353 N 
HETATM    2  C   UNL     1       6.534  25.318  53.950  1.00  0.00     0.252 C 
HETATM    3  O   UNL     1       5.324  25.490  54.049  1.00  0.00    -0.268 OA
HETATM    4  H   UNL     1       8.409  26.194  53.865  1.00  0.00     0.163 HD
ENDROOT
BRANCH   1   5
HETATM    5  C   UNL     1       6.959  27.711  53.650  1.00  0.00     0.161 C 
BRANCH   5   6
HETATM    6  C   UNL     1       7.108  28.380  54.990  1.00  0.00    -0.038 A 
HETATM    7  C   UNL     1       5.979  28.807  55.700  1.00  0.00     0.012 A 
HETATM    8  C   UNL     1       6.118  29.382  56.963  1.00  0.00     0.040 A 
HETATM    9  C   UNL     1       7.388  29.542  57.518  1.00  0.00     0.108 A 
HETATM   10  C   UNL     1       8.530  29.093  56.838  1.00  0.00     0.102 A 
HETATM   11  C   UNL     1       8.381  28.519  55.572  1.00  0.00     0.048 A 
BRANCH   9  12
HETATM   12  O   UNL     1       7.535  30.059  58.781  1.00  0.00    -0.287 OA
BRANCH  12  13
HETATM   13  C   UNL     1       7.247  31.448  58.798  1.00  0.00     0.505 C 
HETATM   14  F   UNL     1       6.017  31.631  59.345  1.00  0.00    -0.184 F 
HETATM   15  F   UNL     1       8.131  32.040  59.641  1.00  0.00    -0.184 F 
ENDBRANCH  12  13
ENDBRANCH   9  12
BRANCH  10  16
HETATM   16  O   UNL     1       9.728  29.288  57.474  1.00  0.00    -0.353 OA
HETATM   17  C   UNL     1      10.819  29.727  56.671  1.00  0.00     0.210 C 
ENDBRANCH  10  16
ENDBRANCH   5   6
ENDBRANCH   1   5
BRANCH   2  18
HETATM   18  C   UNL     1       7.116  23.955  54.125  1.00  0.00     0.034 A 
HETATM   19  C   UNL     1       7.405  23.437  55.397  1.00  0.00     0.051 A 
HETATM   20  C   UNL     1       7.944  22.145  55.485  1.00  0.00     0.085 A 
HETATM   21  C   UNL     1       8.190  21.422  54.323  1.00  0.00     0.062 A 
HETATM   22  N   UNL     1       8.298  21.422  56.597  1.00  0.00    -0.242 NA
HETATM   23  N   UNL     1       8.707  20.232  54.771  1.00  0.00    -0.349 N 
HETATM   24  C   UNL     1       7.932  21.914  53.044  1.00  0.00     0.033 A 
HETATM   25  H   UNL     1       9.006  19.459  54.193  1.00  0.00     0.167 HD
HETATM   26  C   UNL     1       8.751  20.279  56.136  1.00  0.00     0.208 A 
HETATM   27  C   UNL     1       7.389  23.203  52.971  1.00  0.00     0.019 A 
ENDBRANCH   2  18
TORSDOF 6
ENDMDL
MODEL 8
REMARK VINA RESULT:      -8.1     10.699     12.794
REMARK  6 active torsions:
REMARK  status: ('A' for Active; 'I' for Inactive)
REMARK    1  A    between atoms: O_2  and  C_3 
REMARK    2  A    between atoms: C_4  and  O_5 
REMARK    3  A    between atoms: O_5  and  C_6 
REMARK    4  A    between atoms: C_11  and  C_12 
REMARK    5  A    between atoms: C_12  and  N_13 
REMARK       I    between atoms: N_13  and  C_14 
REMARK    6  A    between atoms: C_14  and  C_15 
ROOT
HETATM    1  N   UNL     1       6.610  25.862  52.817  1.00  0.00    -0.353 N 
HETATM    2  C   UNL     1       6.277  25.142  53.943  1.00  0.00     0.252 C 
HETATM    3  O   UNL     1       5.472  25.541  54.777  1.00  0.00    -0.268 OA
HETATM    4  H   UNL     1       7.430  25.606  52.285  1.00  0.00     0.163 HD
ENDROOT
BRANCH   1   5
HETATM    5  C   UNL     1       6.068  27.184  52.607  1.00  0.00     0.161 C 
BRANCH   5   6
HETATM    6  C   UNL     1       5.358  27.256  51.281  1.00  0.00    -0.038 A 
HETATM    7  C   UNL     1       5.093  26.089  50.552  1.00  0.00     0.012 A 
HETATM    8  C   UNL     1       4.393  26.155  49.349  1.00  0.00     0.040 A 
HETATM    9  C   UNL     1       3.962  27.391  48.862  1.00  0.00     0.108 A 
HETATM   10  C   UNL     1       4.189  28.567  49.591  1.00  0.00     0.102 A 
HETATM   11  C   UNL     1       4.894  28.491  50.795  1.00  0.00     0.048 A 
BRANCH   9  12
HETATM   12  O   UNL     1       3.227  27.464  47.705  1.00  0.00    -0.287 OA
BRANCH  12  13
HETATM   13  C   UNL     1       2.065  26.654  47.788  1.00  0.00     0.505 C 
HETATM   14  F   UNL     1       1.174  27.257  48.619  1.00  0.00    -0.184 F 
HETATM   15  F   UNL     1       1.489  26.636  46.560  1.00  0.00    -0.184 F 
ENDBRANCH  12  13
ENDBRANCH   9  12
BRANCH  10  16
HETATM   16  O   UNL     1       3.718  29.725  49.030  1.00  0.00    -0.353 OA
HETATM   17  C   UNL     1       4.685  30.621  48.493  1.00  0.00     0.210 C 
ENDBRANCH  10  16
ENDBRANCH   5   6
ENDBRANCH   1   5
BRANCH   2  18
HETATM   18  C   UNL     1       6.980  23.841  54.139  1.00  0.00     0.034 A 
HETATM   19  C   UNL     1       7.266  23.344  55.420  1.00  0.00     0.051 A 
HETATM   20  C   UNL     1       7.922  22.109  55.526  1.00  0.00     0.085 A 
HETATM   21  C   UNL     1       8.286  21.422  54.374  1.00  0.00     0.062 A 
HETATM   22  N   UNL     1       8.298  21.416  56.650  1.00  0.00    -0.242 NA
HETATM   23  N   UNL     1       8.897  20.285  54.839  1.00  0.00    -0.349 N 
HETATM   24  C   UNL     1       8.035  21.896  53.086  1.00  0.00     0.033 A 
HETATM   25  H   UNL     1       9.292  19.548  54.272  1.00  0.00     0.167 HD
HETATM   26  C   UNL     1       8.879  20.325  56.205  1.00  0.00     0.208 A 
HETATM   27  C   UNL     1       7.373  23.127  52.995  1.00  0.00     0.019 A 
ENDBRANCH   2  18
TORSDOF 6
ENDMDL
MODEL 9
REMARK VINA RESULT:      -7.7      5.180      8.478
REMARK  6 active torsions:
REMARK  status: ('A' for Active; 'I' for Inactive)
REMARK    1  A    between atoms: O_2  and  C_3 
REMARK    2  A    between atoms: C_4  and  O_5 
REMARK    3  A    between atoms: O_5  and  C_6 
REMARK    4  A    between atoms: C_11  and  C_12 
REMARK    5  A    between atoms: C_12  and  N_13 
REMARK       I    between atoms: N_13  and  C_14 
REMARK    6  A    between atoms: C_14  and  C_15 
ROOT
HETATM    1  N   UNL     1       7.980  30.592  59.581  1.00  0.00    -0.353 N 
HETATM    2  C   UNL     1       8.297  31.842  60.068  1.00  0.00     0.252 C 
HETATM    3  O   UNL     1       9.107  32.584  59.524  1.00  0.00    -0.268 OA
HETATM    4  H   UNL     1       7.490  29.937  60.174  1.00  0.00     0.163 HD
ENDROOT
BRANCH   1   5
HETATM    5  C   UNL     1       8.663  30.062  58.425  1.00  0.00     0.161 C 
BRANCH   5   6
HETATM    6  C   UNL     1       7.802  29.041  57.730  1.00  0.00    -0.038 A 
HETATM    7  C   UNL     1       8.315  27.776  57.415  1.00  0.00     0.012 A 
HETATM    8  C   UNL     1       7.500  26.816  56.816  1.00  0.00     0.040 A 
HETATM    9  C   UNL     1       6.171  27.120  56.518  1.00  0.00     0.108 A 
HETATM   10  C   UNL     1       5.629  28.370  56.853  1.00  0.00     0.102 A 
HETATM   11  C   UNL     1       6.453  29.326  57.452  1.00  0.00     0.048 A 
BRANCH   9  12
HETATM   12  O   UNL     1       5.345  26.168  55.975  1.00  0.00    -0.287 OA
BRANCH  12  13
HETATM   13  C   UNL     1       5.776  25.804  54.674  1.00  0.00     0.505 C 
HETATM   14  F   UNL     1       5.845  24.448  54.602  1.00  0.00    -0.184 F 
HETATM   15  F   UNL     1       4.809  26.183  53.800  1.00  0.00    -0.184 F 
ENDBRANCH  12  13
ENDBRANCH   9  12
BRANCH  10  16
HETATM   16  O   UNL     1       4.312  28.564  56.526  1.00  0.00    -0.353 OA
HETATM   17  C   UNL     1       3.830  29.903  56.567  1.00  0.00     0.210 C 
ENDBRANCH  10  16
ENDBRANCH   5   6
ENDBRANCH   1   5
BRANCH   2  18
HETATM   18  C   UNL     1       7.633  32.256  61.337  1.00  0.00     0.034 A 
HETATM   19  C   UNL     1       6.285  32.646  61.369  1.00  0.00     0.051 A 
HETATM   20  C   UNL     1       5.726  33.014  62.602  1.00  0.00     0.085 A 
HETATM   21  C   UNL     1       6.514  33.000  63.747  1.00  0.00     0.062 A 
HETATM   22  N   UNL     1       4.446  33.419  62.892  1.00  0.00    -0.242 NA
HETATM   23  N   UNL     1       5.666  33.410  64.744  1.00  0.00    -0.349 N 
HETATM   24  C   UNL     1       7.860  32.636  63.747  1.00  0.00     0.033 A 
HETATM   25  H   UNL     1       5.905  33.521  65.720  1.00  0.00     0.167 HD
HETATM   26  C   UNL     1       4.442  33.648  64.185  1.00  0.00     0.208 A 
HETATM   27  C   UNL     1       8.405  32.265  62.511  1.00  0.00     0.019 A 
ENDBRANCH   2  18
TORSDOF 6
ENDMDL
MODEL 10
REMARK VINA RESULT:      -7.7      5.871     10.698
REMARK  6 active torsions:
REMARK  status: ('A' for Active; 'I' for Inactive)
REMARK    1  A    between atoms: O_2  and  C_3 
REMARK    2  A    between atoms: C_4  and  O_5 
REMARK    3  A    between atoms: O_5  and  C_6 
REMARK    4  A    between atoms: C_11  and  C_12 
REMARK    5  A    between atoms: C_12  and  N_13 
REMARK       I    between atoms: N_13  and  C_14 
REMARK    6  A    between atoms: C_14  and  C_15 
ROOT
HETATM    1  N   UNL     1       6.060  34.732  67.440  1.00  0.00    -0.353 N 
HETATM    2  C   UNL     1       5.867  34.217  68.704  1.00  0.00     0.252 C 
HETATM    3  O   UNL     1       4.955  33.446  68.978  1.00  0.00    -0.268 OA
HETATM    4  H   UNL     1       6.673  35.525  67.314  1.00  0.00     0.163 HD
ENDROOT
BRANCH   1   5
HETATM    5  C   UNL     1       5.127  34.436  66.379  1.00  0.00     0.161 C 
BRANCH   5   6
HETATM    6  C   UNL     1       5.862  33.982  65.146  1.00  0.00    -0.038 A 
HETATM    7  C   UNL     1       7.186  33.534  65.231  1.00  0.00     0.012 A 
HETATM    8  C   UNL     1       7.846  33.069  64.095  1.00  0.00     0.040 A 
HETATM    9  C   UNL     1       7.188  33.059  62.863  1.00  0.00     0.108 A 
HETATM   10  C   UNL     1       5.853  33.475  62.761  1.00  0.00     0.102 A 
HETATM   11  C   UNL     1       5.200  33.941  63.905  1.00  0.00     0.048 A 
BRANCH   9  12
HETATM   12  O   UNL     1       7.809  32.557  61.747  1.00  0.00    -0.287 OA
BRANCH  12  13
HETATM   13  C   UNL     1       8.793  31.599  62.102  1.00  0.00     0.505 C 
HETATM   14  F   UNL     1       8.598  30.479  61.357  1.00  0.00    -0.184 F 
HETATM   15  F   UNL     1      10.001  32.095  61.732  1.00  0.00    -0.184 F 
ENDBRANCH  12  13
ENDBRANCH   9  12
BRANCH  10  16
HETATM   16  O   UNL     1       5.296  33.418  61.510  1.00  0.00    -0.353 OA
HETATM   17  C   UNL     1       4.537  34.546  61.091  1.00  0.00     0.210 C 
ENDBRANCH  10  16
ENDBRANCH   5   6
ENDBRANCH   1   5
BRANCH   2  18
HETATM   18  C   UNL     1       6.809  34.676  69.766  1.00  0.00     0.034 A 
HETATM   19  C   UNL     1       7.105  36.036  69.949  1.00  0.00     0.051 A 
HETATM   20  C   UNL     1       7.994  36.393  70.974  1.00  0.00     0.085 A 
HETATM   21  C   UNL     1       8.567  35.403  71.765  1.00  0.00     0.062 A 
HETATM   22  N   UNL     1       8.430  37.638  71.355  1.00  0.00    -0.242 NA
HETATM   23  N   UNL     1       9.366  36.092  72.641  1.00  0.00    -0.349 N 
HETATM   24  C   UNL     1       8.308  34.042  71.597  1.00  0.00     0.033 A 
HETATM   25  H   UNL     1       9.941  35.687  73.365  1.00  0.00     0.167 HD
HETATM   26  C   UNL     1       9.251  37.424  72.358  1.00  0.00     0.208 A 
HETATM   27  C   UNL     1       7.415  33.700  70.574  1.00  0.00     0.019 A 
ENDBRANCH   2  18
TORSDOF 6
ENDMDL
