MODEL 1
REMARK VINA RESULT:      -9.6      0.000      0.000
REMARK  5 active torsions:
REMARK  status: ('A' for Active; 'I' for Inactive)
REMARK    1  A    between atoms: O_2  and  C_3 
REMARK    2  A    between atoms: C_4  and  C_5 
REMARK       I    between atoms: C_5  and  N_6 
REMARK    3  A    between atoms: N_6  and  C_7 
REMARK    4  A    between atoms: C_7  and  C_8 
REMARK       I    between atoms: C_8  and  N_9 
REMARK    5  A    between atoms: N_9  and  N_10 
ROOT
HETATM    1  C   UNL     1       6.560  27.889  54.356  1.00  0.00     0.255 C 
HETATM    2  N   UNL     1       7.210  27.038  55.235  1.00  0.00    -0.245 N 
HETATM    3  O   UNL     1       6.253  27.593  53.199  1.00  0.00    -0.270 OA
HETATM    4  H   UNL     1       7.297  27.297  56.224  1.00  0.00     0.192 HD
ENDROOT
BRANCH   1   5
HETATM    5  C   UNL     1       6.077  29.206  54.968  1.00  0.00     0.227 C 
BRANCH   5   6
HETATM    6  N   UNL     1       6.939  29.814  55.970  1.00  0.00    -0.348 N 
HETATM    7  C   UNL     1       6.704  29.628  57.317  1.00  0.00     0.254 C 
HETATM    8  O   UNL     1       5.932  28.771  57.731  1.00  0.00    -0.268 OA
HETATM    9  H   UNL     1       7.477  30.621  55.683  1.00  0.00     0.163 HD
BRANCH   7  10
HETATM   10  C   UNL     1       7.461  30.525  58.231  1.00  0.00     0.065 A 
HETATM   11  C   UNL     1       8.856  30.451  58.317  1.00  0.00     0.084 A 
HETATM   12  C   UNL     1       9.548  31.272  59.213  1.00  0.00     0.038 A 
HETATM   13  C   UNL     1       8.854  32.196  59.996  1.00  0.00     0.003 A 
HETATM   14  C   UNL     1       7.467  32.296  59.891  1.00  0.00     0.001 A 
HETATM   15  C   UNL     1       6.769  31.466  59.011  1.00  0.00     0.020 A 
BRANCH  11  16
HETATM   16  O   UNL     1       9.553  29.503  57.616  1.00  0.00    -0.355 OA
HETATM   17  C   UNL     1      10.739  30.067  57.054  1.00  0.00     0.210 C 
ENDBRANCH  11  16
ENDBRANCH   7  10
ENDBRANCH   5   6
ENDBRANCH   1   5
BRANCH   2  18
HETATM   18  N   UNL     1       7.492  25.763  54.835  1.00  0.00    -0.166 NA
HETATM   19  C   UNL     1       7.796  24.898  55.745  1.00  0.00     0.157 A 
HETATM   20  C   UNL     1       7.970  25.088  57.256  1.00  0.00     0.277 A 
HETATM   21  C   UNL     1       8.034  23.480  55.493  1.00  0.00     0.028 A 
HETATM   22  O   UNL     1       7.920  26.143  57.845  1.00  0.00    -0.266 OA
HETATM   23  N   UNL     1       8.226  23.828  57.758  1.00  0.00    -0.321 N 
HETATM   24  C   UNL     1       8.271  22.888  56.733  1.00  0.00     0.048 A 
HETATM   25  H   UNL     1       8.384  23.649  58.738  1.00  0.00     0.169 HD
HETATM   26  C   UNL     1       8.514  21.535  56.843  1.00  0.00     0.032 A 
HETATM   27  C   UNL     1       8.517  20.783  55.662  1.00  0.00     0.021 A 
HETATM   28  C   UNL     1       8.278  21.397  54.413  1.00  0.00     0.012 A 
HETATM   29 BR   UNL     1       8.295  20.339  52.845  1.00  0.00    -0.051 Br
HETATM   30  C   UNL     1       8.030  22.766  54.313  1.00  0.00     0.035 A 
ENDBRANCH   2  18
TORSDOF 5
ENDMDL
MODEL 2
REMARK VINA RESULT:      -9.6      2.252      3.988
REMARK  5 active torsions:
REMARK  status: ('A' for Active; 'I' for Inactive)
REMARK    1  A    between atoms: O_2  and  C_3 
REMARK    2  A    between atoms: C_4  and  C_5 
REMARK       I    between atoms: C_5  and  N_6 
REMARK    3  A    between atoms: N_6  and  C_7 
REMARK    4  A    between atoms: C_7  and  C_8 
REMARK       I    between atoms: C_8  and  N_9 
REMARK    5  A    between atoms: N_9  and  N_10 
ROOT
HETATM    1  C   UNL     1       7.314  28.632  57.619  1.00  0.00     0.255 C 
HETATM    2  N   UNL     1       6.673  28.030  56.548  1.00  0.00    -0.245 N 
HETATM    3  O   UNL     1       7.992  28.028  58.454  1.00  0.00    -0.270 OA
HETATM    4  H   UNL     1       6.256  28.611  55.812  1.00  0.00     0.192 HD
ENDROOT
BRANCH   1   5
HETATM    5  C   UNL     1       7.273  30.162  57.621  1.00  0.00     0.227 C 
BRANCH   5   6
HETATM    6  N   UNL     1       6.938  30.804  58.883  1.00  0.00    -0.348 N 
HETATM    7  C   UNL     1       7.804  31.698  59.478  1.00  0.00     0.254 C 
HETATM    8  O   UNL     1       8.760  32.175  58.878  1.00  0.00    -0.268 OA
HETATM    9  H   UNL     1       6.251  30.341  59.463  1.00  0.00     0.163 HD
BRANCH   7  10
HETATM   10  C   UNL     1       7.489  32.056  60.886  1.00  0.00     0.065 A 
HETATM   11  C   UNL     1       6.198  32.449  61.256  1.00  0.00     0.084 A 
HETATM   12  C   UNL     1       5.929  32.824  62.577  1.00  0.00     0.038 A 
HETATM   13  C   UNL     1       6.939  32.770  63.539  1.00  0.00     0.003 A 
HETATM   14  C   UNL     1       8.220  32.349  63.183  1.00  0.00     0.001 A 
HETATM   15  C   UNL     1       8.497  31.991  61.862  1.00  0.00     0.020 A 
BRANCH  11  16
HETATM   16  O   UNL     1       5.209  32.583  60.318  1.00  0.00    -0.355 OA
HETATM   17  C   UNL     1       3.932  32.295  60.891  1.00  0.00     0.210 C 
ENDBRANCH  11  16
ENDBRANCH   7  10
ENDBRANCH   5   6
ENDBRANCH   1   5
BRANCH   2  18
HETATM   18  N   UNL     1       6.832  26.687  56.352  1.00  0.00    -0.166 NA
HETATM   19  C   UNL     1       7.095  26.280  55.154  1.00  0.00     0.157 A 
HETATM   20  C   UNL     1       7.193  27.077  53.849  1.00  0.00     0.277 A 
HETATM   21  C   UNL     1       7.381  24.895  54.796  1.00  0.00     0.028 A 
HETATM   22  O   UNL     1       6.954  28.257  53.722  1.00  0.00    -0.266 OA
HETATM   23  N   UNL     1       7.565  26.161  52.886  1.00  0.00    -0.321 N 
HETATM   24  C   UNL     1       7.669  24.886  53.432  1.00  0.00     0.048 A 
HETATM   25  H   UNL     1       7.707  26.409  51.919  1.00  0.00     0.169 HD
HETATM   26  C   UNL     1       8.004  23.718  52.780  1.00  0.00     0.032 A 
HETATM   27  C   UNL     1       8.039  22.543  53.542  1.00  0.00     0.021 A 
HETATM   28  C   UNL     1       7.742  22.566  54.922  1.00  0.00     0.012 A 
HETATM   29 BR   UNL     1       7.799  20.952  55.907  1.00  0.00    -0.051 Br
HETATM   30  C   UNL     1       7.408  23.754  55.572  1.00  0.00     0.035 A 
ENDBRANCH   2  18
TORSDOF 5
ENDMDL
MODEL 3
REMARK VINA RESULT:      -9.5      1.785      2.873
REMARK  5 active torsions:
REMARK  status: ('A' for Active; 'I' for Inactive)
REMARK    1  A    between atoms: O_2  and  C_3 
REMARK    2  A    between atoms: C_4  and  C_5 
REMARK       I    between atoms: C_5  and  N_6 
REMARK    3  A    between atoms: N_6  and  C_7 
REMARK    4  A    between atoms: C_7  and  C_8 
REMARK       I    between atoms: C_8  and  N_9 
REMARK    5  A    between atoms: N_9  and  N_10 
ROOT
HETATM    1  C   UNL     1       6.004  28.411  56.686  1.00  0.00     0.255 C 
HETATM    2  N   UNL     1       7.200  27.822  56.309  1.00  0.00    -0.245 N 
HETATM    3  O   UNL     1       4.953  27.793  56.875  1.00  0.00    -0.270 OA
HETATM    4  H   UNL     1       8.065  28.373  56.319  1.00  0.00     0.192 HD
ENDROOT
BRANCH   1   5
HETATM    5  C   UNL     1       6.096  29.899  57.029  1.00  0.00     0.227 C 
BRANCH   5   6
HETATM    6  N   UNL     1       6.522  30.231  58.380  1.00  0.00    -0.348 N 
HETATM    7  C   UNL     1       6.647  31.545  58.783  1.00  0.00     0.254 C 
HETATM    8  O   UNL     1       6.187  32.473  58.129  1.00  0.00    -0.268 OA
HETATM    9  H   UNL     1       7.036  29.522  58.885  1.00  0.00     0.163 HD
BRANCH   7  10
HETATM   10  C   UNL     1       7.362  31.756  60.069  1.00  0.00     0.065 A 
HETATM   11  C   UNL     1       8.680  31.315  60.240  1.00  0.00     0.084 A 
HETATM   12  C   UNL     1       9.323  31.483  61.471  1.00  0.00     0.038 A 
HETATM   13  C   UNL     1       8.667  32.128  62.521  1.00  0.00     0.003 A 
HETATM   14  C   UNL     1       7.365  32.597  62.347  1.00  0.00     0.001 A 
HETATM   15  C   UNL     1       6.713  32.415  61.125  1.00  0.00     0.020 A 
BRANCH  11  16
HETATM   16  O   UNL     1       9.319  30.614  59.252  1.00  0.00    -0.355 OA
HETATM   17  C   UNL     1      10.135  31.485  58.467  1.00  0.00     0.210 C 
ENDBRANCH  11  16
ENDBRANCH   7  10
ENDBRANCH   5   6
ENDBRANCH   1   5
BRANCH   2  18
HETATM   18  N   UNL     1       7.258  26.462  56.185  1.00  0.00    -0.166 NA
HETATM   19  C   UNL     1       7.405  25.970  55.000  1.00  0.00     0.157 A 
HETATM   20  C   UNL     1       7.458  26.683  53.645  1.00  0.00     0.277 A 
HETATM   21  C   UNL     1       7.574  24.550  54.708  1.00  0.00     0.028 A 
HETATM   22  O   UNL     1       7.287  27.867  53.462  1.00  0.00    -0.266 OA
HETATM   23  N   UNL     1       7.699  25.690  52.716  1.00  0.00    -0.321 N 
HETATM   24  C   UNL     1       7.761  24.444  53.331  1.00  0.00     0.048 A 
HETATM   25  H   UNL     1       7.785  25.872  51.728  1.00  0.00     0.169 HD
HETATM   26  C   UNL     1       7.970  23.220  52.731  1.00  0.00     0.032 A 
HETATM   27  C   UNL     1       7.986  22.091  53.559  1.00  0.00     0.021 A 
HETATM   28  C   UNL     1       7.793  22.214  54.953  1.00  0.00     0.012 A 
HETATM   29 BR   UNL     1       7.818  20.658  56.029  1.00  0.00    -0.051 Br
HETATM   30  C   UNL     1       7.585  23.457  55.550  1.00  0.00     0.035 A 
ENDBRANCH   2  18
TORSDOF 5
ENDMDL
MODEL 4
REMARK VINA RESULT:      -9.4      3.336      8.581
REMARK  5 active torsions:
REMARK  status: ('A' for Active; 'I' for Inactive)
REMARK    1  A    between atoms: O_2  and  C_3 
REMARK    2  A    between atoms: C_4  and  C_5 
REMARK       I    between atoms: C_5  and  N_6 
REMARK    3  A    between atoms: N_6  and  C_7 
REMARK    4  A    between atoms: C_7  and  C_8 
REMARK       I    between atoms: C_8  and  N_9 
REMARK    5  A    between atoms: N_9  and  N_10 
ROOT
HETATM    1  C   UNL     1       7.236  27.567  55.364  1.00  0.00     0.255 C 
HETATM    2  N   UNL     1       7.601  28.902  55.426  1.00  0.00    -0.245 N 
HETATM    3  O   UNL     1       6.685  26.953  56.280  1.00  0.00    -0.270 OA
HETATM    4  H   UNL     1       7.913  29.385  54.576  1.00  0.00     0.192 HD
ENDROOT
BRANCH   1   5
HETATM    5  C   UNL     1       7.405  26.913  53.990  1.00  0.00     0.227 C 
BRANCH   5   6
HETATM    6  N   UNL     1       7.819  25.518  53.980  1.00  0.00    -0.348 N 
HETATM    7  C   UNL     1       6.952  24.523  53.577  1.00  0.00     0.254 C 
HETATM    8  O   UNL     1       5.905  24.771  52.992  1.00  0.00    -0.268 OA
HETATM    9  H   UNL     1       8.596  25.267  54.576  1.00  0.00     0.163 HD
BRANCH   7  10
HETATM   10  C   UNL     1       7.382  23.134  53.886  1.00  0.00     0.065 A 
HETATM   11  C   UNL     1       7.472  22.687  55.209  1.00  0.00     0.084 A 
HETATM   12  C   UNL     1       7.920  21.390  55.483  1.00  0.00     0.038 A 
HETATM   13  C   UNL     1       8.240  20.525  54.437  1.00  0.00     0.003 A 
HETATM   14  C   UNL     1       8.123  20.954  53.115  1.00  0.00     0.001 A 
HETATM   15  C   UNL     1       7.694  22.254  52.837  1.00  0.00     0.020 A 
BRANCH  11  16
HETATM   16  O   UNL     1       7.235  23.539  56.256  1.00  0.00    -0.355 OA
HETATM   17  C   UNL     1       8.412  23.696  57.050  1.00  0.00     0.210 C 
ENDBRANCH  11  16
ENDBRANCH   7  10
ENDBRANCH   5   6
ENDBRANCH   1   5
BRANCH   2  18
HETATM   18  N   UNL     1       7.293  29.621  56.546  1.00  0.00    -0.166 NA
HETATM   19  C   UNL     1       8.269  30.069  57.264  1.00  0.00     0.157 A 
HETATM   20  C   UNL     1       9.779  29.861  57.099  1.00  0.00     0.277 A 
HETATM   21  C   UNL     1       8.111  30.925  58.435  1.00  0.00     0.028 A 
HETATM   22  O   UNL     1      10.309  29.149  56.277  1.00  0.00    -0.266 OA
HETATM   23  N   UNL     1      10.364  30.615  58.096  1.00  0.00    -0.321 N 
HETATM   24  C   UNL     1       9.395  31.232  58.881  1.00  0.00     0.048 A 
HETATM   25  H   UNL     1      11.363  30.669  58.230  1.00  0.00     0.169 HD
HETATM   26  C   UNL     1       9.595  32.050  59.974  1.00  0.00     0.032 A 
HETATM   27  C   UNL     1       8.458  32.555  60.616  1.00  0.00     0.021 A 
HETATM   28  C   UNL     1       7.163  32.233  60.154  1.00  0.00     0.012 A 
HETATM   29 BR   UNL     1       5.658  32.937  61.058  1.00  0.00    -0.051 Br
HETATM   30  C   UNL     1       6.973  31.408  59.046  1.00  0.00     0.035 A 
ENDBRANCH   2  18
TORSDOF 5
ENDMDL
MODEL 5
REMARK VINA RESULT:      -9.0      1.928      2.834
REMARK  5 active torsions:
REMARK  status: ('A' for Active; 'I' for Inactive)
REMARK    1  A    between atoms: O_2  and  C_3 
REMARK    2  A    between atoms: C_4  and  C_5 
REMARK       I    between atoms: C_5  and  N_6 
REMARK    3  A    between atoms: N_6  and  C_7 
REMARK    4  A    between atoms: C_7  and  C_8 
REMARK       I    between atoms: C_8  and  N_9 
REMARK    5  A    between atoms: N_9  and  N_10 
ROOT
HETATM    1  C   UNL     1       5.616  28.737  56.007  1.00  0.00     0.255 C 
HETATM    2  N   UNL     1       6.912  28.412  55.642  1.00  0.00    -0.245 N 
HETATM    3  O   UNL     1       4.655  27.968  55.923  1.00  0.00    -0.270 OA
HETATM    4  H   UNL     1       7.683  29.045  55.881  1.00  0.00     0.192 HD
ENDROOT
BRANCH   1   5
HETATM    5  C   UNL     1       5.460  30.092  56.701  1.00  0.00     0.227 C 
BRANCH   5   6
HETATM    6  N   UNL     1       6.017  30.206  58.041  1.00  0.00    -0.348 N 
HETATM    7  C   UNL     1       6.452  31.422  58.528  1.00  0.00     0.254 C 
HETATM    8  O   UNL     1       6.175  32.480  57.977  1.00  0.00    -0.268 OA
HETATM    9  H   UNL     1       6.387  29.362  58.455  1.00  0.00     0.163 HD
BRANCH   7  10
HETATM   10  C   UNL     1       7.261  31.361  59.775  1.00  0.00     0.065 A 
HETATM   11  C   UNL     1       6.823  31.990  60.946  1.00  0.00     0.084 A 
HETATM   12  C   UNL     1       7.617  31.959  62.098  1.00  0.00     0.038 A 
HETATM   13  C   UNL     1       8.830  31.269  62.094  1.00  0.00     0.003 A 
HETATM   14  C   UNL     1       9.256  30.615  60.938  1.00  0.00     0.001 A 
HETATM   15  C   UNL     1       8.475  30.657  59.781  1.00  0.00     0.020 A 
BRANCH  11  16
HETATM   16  O   UNL     1       5.674  32.736  60.956  1.00  0.00    -0.355 OA
HETATM   17  C   UNL     1       4.885  32.425  62.105  1.00  0.00     0.210 C 
ENDBRANCH  11  16
ENDBRANCH   7  10
ENDBRANCH   5   6
ENDBRANCH   1   5
BRANCH   2  18
HETATM   18  N   UNL     1       7.178  27.144  55.207  1.00  0.00    -0.166 NA
HETATM   19  C   UNL     1       7.554  26.272  56.083  1.00  0.00     0.157 A 
HETATM   20  C   UNL     1       7.830  26.447  57.580  1.00  0.00     0.277 A 
HETATM   21  C   UNL     1       7.789  24.860  55.798  1.00  0.00     0.028 A 
HETATM   22  O   UNL     1       7.811  27.495  58.185  1.00  0.00    -0.266 OA
HETATM   23  N   UNL     1       8.134  25.184  58.048  1.00  0.00    -0.321 N 
HETATM   24  C   UNL     1       8.117  24.257  57.010  1.00  0.00     0.048 A 
HETATM   25  H   UNL     1       8.361  24.995  59.012  1.00  0.00     0.169 HD
HETATM   26  C   UNL     1       8.381  22.905  57.087  1.00  0.00     0.032 A 
HETATM   27  C   UNL     1       8.310  22.167  55.899  1.00  0.00     0.021 A 
HETATM   28  C   UNL     1       7.978  22.793  54.678  1.00  0.00     0.012 A 
HETATM   29 BR   UNL     1       7.898  21.753  53.099  1.00  0.00    -0.051 Br
HETATM   30  C   UNL     1       7.710  24.160  54.612  1.00  0.00     0.035 A 
ENDBRANCH   2  18
TORSDOF 5
ENDMDL
MODEL 6
REMARK VINA RESULT:      -8.7      3.404      8.901
REMARK  5 active torsions:
REMARK  status: ('A' for Active; 'I' for Inactive)
REMARK    1  A    between atoms: O_2  and  C_3 
REMARK    2  A    between atoms: C_4  and  C_5 
REMARK       I    between atoms: C_5  and  N_6 
REMARK    3  A    between atoms: N_6  and  C_7 
REMARK    4  A    between atoms: C_7  and  C_8 
REMARK       I    between atoms: C_8  and  N_9 
REMARK    5  A    between atoms: N_9  and  N_10 
ROOT
HETATM    1  C   UNL     1       7.574  26.896  56.127  1.00  0.00     0.255 C 
HETATM    2  N   UNL     1       7.939  28.225  55.988  1.00  0.00    -0.245 N 
HETATM    3  O   UNL     1       7.415  26.328  57.210  1.00  0.00    -0.270 OA
HETATM    4  H   UNL     1       7.904  28.670  55.064  1.00  0.00     0.192 HD
ENDROOT
BRANCH   1   5
HETATM    5  C   UNL     1       7.202  26.187  54.823  1.00  0.00     0.227 C 
BRANCH   5   6
HETATM    6  N   UNL     1       7.774  24.866  54.613  1.00  0.00    -0.348 N 
HETATM    7  C   UNL     1       7.106  23.912  53.873  1.00  0.00     0.254 C 
HETATM    8  O   UNL     1       6.144  24.192  53.168  1.00  0.00    -0.268 OA
HETATM    9  H   UNL     1       8.470  24.558  55.279  1.00  0.00     0.163 HD
BRANCH   7  10
HETATM   10  C   UNL     1       7.642  22.529  53.976  1.00  0.00     0.065 A 
HETATM   11  C   UNL     1       7.885  21.943  55.224  1.00  0.00     0.084 A 
HETATM   12  C   UNL     1       8.431  20.657  55.301  1.00  0.00     0.038 A 
HETATM   13  C   UNL     1       8.697  19.938  54.135  1.00  0.00     0.003 A 
HETATM   14  C   UNL     1       8.428  20.505  52.889  1.00  0.00     0.001 A 
HETATM   15  C   UNL     1       7.901  21.795  52.807  1.00  0.00     0.020 A 
BRANCH  11  16
HETATM   16  O   UNL     1       7.703  22.654  56.380  1.00  0.00    -0.355 OA
HETATM   17  C   UNL     1       8.387  22.028  57.467  1.00  0.00     0.210 C 
ENDBRANCH  11  16
ENDBRANCH   7  10
ENDBRANCH   5   6
ENDBRANCH   1   5
BRANCH   2  18
HETATM   18  N   UNL     1       8.087  28.992  57.110  1.00  0.00    -0.166 NA
HETATM   19  C   UNL     1       7.194  29.896  57.345  1.00  0.00     0.157 A 
HETATM   20  C   UNL     1       5.983  30.316  56.504  1.00  0.00     0.277 A 
HETATM   21  C   UNL     1       7.157  30.732  58.540  1.00  0.00     0.028 A 
HETATM   22  O   UNL     1       5.708  29.898  55.402  1.00  0.00    -0.266 OA
HETATM   23  N   UNL     1       5.331  31.275  57.254  1.00  0.00    -0.321 N 
HETATM   24  C   UNL     1       6.015  31.525  58.438  1.00  0.00     0.048 A 
HETATM   25  H   UNL     1       4.488  31.734  56.943  1.00  0.00     0.169 HD
HETATM   26  C   UNL     1       5.678  32.423  59.430  1.00  0.00     0.032 A 
HETATM   27  C   UNL     1       6.531  32.507  60.538  1.00  0.00     0.021 A 
HETATM   28  C   UNL     1       7.685  31.699  60.626  1.00  0.00     0.012 A 
HETATM   29 BR   UNL     1       8.806  31.852  62.142  1.00  0.00    -0.051 Br
HETATM   30  C   UNL     1       8.015  30.792  59.619  1.00  0.00     0.035 A 
ENDBRANCH   2  18
TORSDOF 5
ENDMDL
MODEL 7
REMARK VINA RESULT:      -8.6      4.581      8.451
REMARK  5 active torsions:
REMARK  status: ('A' for Active; 'I' for Inactive)
REMARK    1  A    between atoms: O_2  and  C_3 
REMARK    2  A    between atoms: C_4  and  C_5 
REMARK       I    between atoms: C_5  and  N_6 
REMARK    3  A    between atoms: N_6  and  C_7 
REMARK    4  A    between atoms: C_7  and  C_8 
REMARK       I    between atoms: C_8  and  N_9 
REMARK    5  A    between atoms: N_9  and  N_10 
ROOT
HETATM    1  C   UNL     1       6.199  26.968  54.715  1.00  0.00     0.255 C 
HETATM    2  N   UNL     1       5.111  27.263  53.909  1.00  0.00    -0.245 N 
HETATM    3  O   UNL     1       7.325  27.452  54.569  1.00  0.00    -0.270 OA
HETATM    4  H   UNL     1       4.175  26.943  54.181  1.00  0.00     0.192 HD
ENDROOT
BRANCH   1   5
HETATM    5  C   UNL     1       5.883  26.109  55.941  1.00  0.00     0.227 C 
BRANCH   5   6
HETATM    6  N   UNL     1       6.242  24.701  55.859  1.00  0.00    -0.348 N 
HETATM    7  C   UNL     1       7.488  24.261  56.254  1.00  0.00     0.254 C 
HETATM    8  O   UNL     1       8.251  24.966  56.904  1.00  0.00    -0.268 OA
HETATM    9  H   UNL     1       5.713  24.131  55.212  1.00  0.00     0.163 HD
BRANCH   7  10
HETATM   10  C   UNL     1       7.835  22.872  55.854  1.00  0.00     0.065 A 
HETATM   11  C   UNL     1       7.639  22.433  54.539  1.00  0.00     0.084 A 
HETATM   12  C   UNL     1       7.931  21.110  54.190  1.00  0.00     0.038 A 
HETATM   13  C   UNL     1       8.455  20.234  55.141  1.00  0.00     0.003 A 
HETATM   14  C   UNL     1       8.681  20.674  56.445  1.00  0.00     0.001 A 
HETATM   15  C   UNL     1       8.375  21.989  56.803  1.00  0.00     0.020 A 
BRANCH  11  16
HETATM   16  O   UNL     1       7.057  23.249  53.606  1.00  0.00    -0.355 OA
HETATM   17  C   UNL     1       8.027  23.700  52.659  1.00  0.00     0.210 C 
ENDBRANCH  11  16
ENDBRANCH   7  10
ENDBRANCH   5   6
ENDBRANCH   1   5
BRANCH   2  18
HETATM   18  N   UNL     1       5.255  28.188  52.914  1.00  0.00    -0.166 NA
HETATM   19  C   UNL     1       5.208  27.772  51.692  1.00  0.00     0.157 A 
HETATM   20  C   UNL     1       5.081  26.345  51.149  1.00  0.00     0.277 A 
HETATM   21  C   UNL     1       5.255  28.640  50.520  1.00  0.00     0.028 A 
HETATM   22  O   UNL     1       5.082  25.333  51.813  1.00  0.00    -0.266 OA
HETATM   23  N   UNL     1       5.008  26.479  49.777  1.00  0.00    -0.321 N 
HETATM   24  C   UNL     1       5.116  27.815  49.405  1.00  0.00     0.048 A 
HETATM   25  H   UNL     1       4.919  25.692  49.152  1.00  0.00     0.169 HD
HETATM   26  C   UNL     1       5.101  28.336  48.128  1.00  0.00     0.032 A 
HETATM   27  C   UNL     1       5.232  29.724  47.998  1.00  0.00     0.021 A 
HETATM   28  C   UNL     1       5.375  30.548  49.136  1.00  0.00     0.012 A 
HETATM   29 BR   UNL     1       5.553  32.417  48.908  1.00  0.00    -0.051 Br
HETATM   30  C   UNL     1       5.386  30.011  50.423  1.00  0.00     0.035 A 
ENDBRANCH   2  18
TORSDOF 5
ENDMDL
MODEL 8
REMARK VINA RESULT:      -8.5      4.364      8.661
REMARK  5 active torsions:
REMARK  status: ('A' for Active; 'I' for Inactive)
REMARK    1  A    between atoms: O_2  and  C_3 
REMARK    2  A    between atoms: C_4  and  C_5 
REMARK       I    between atoms: C_5  and  N_6 
REMARK    3  A    between atoms: N_6  and  C_7 
REMARK    4  A    between atoms: C_7  and  C_8 
REMARK       I    between atoms: C_8  and  N_9 
REMARK    5  A    between atoms: N_9  and  N_10 
ROOT
HETATM    1  C   UNL     1       6.191  26.852  56.514  1.00  0.00     0.255 C 
HETATM    2  N   UNL     1       4.888  27.050  56.088  1.00  0.00    -0.245 N 
HETATM    3  O   UNL     1       7.081  27.704  56.454  1.00  0.00    -0.270 OA
HETATM    4  H   UNL     1       4.168  26.354  56.308  1.00  0.00     0.192 HD
ENDROOT
BRANCH   1   5
HETATM    5  C   UNL     1       6.439  25.530  57.244  1.00  0.00     0.227 C 
BRANCH   5   6
HETATM    6  N   UNL     1       6.598  24.346  56.413  1.00  0.00    -0.348 N 
HETATM    7  C   UNL     1       7.825  23.729  56.281  1.00  0.00     0.254 C 
HETATM    8  O   UNL     1       8.764  23.985  57.025  1.00  0.00    -0.268 OA
HETATM    9  H   UNL     1       5.905  24.198  55.691  1.00  0.00     0.163 HD
BRANCH   7  10
HETATM   10  C   UNL     1       7.924  22.724  55.190  1.00  0.00     0.065 A 
HETATM   11  C   UNL     1       8.049  23.123  53.855  1.00  0.00     0.084 A 
HETATM   12  C   UNL     1       8.098  22.164  52.837  1.00  0.00     0.038 A 
HETATM   13  C   UNL     1       8.062  20.805  53.154  1.00  0.00     0.003 A 
HETATM   14  C   UNL     1       7.968  20.401  54.485  1.00  0.00     0.001 A 
HETATM   15  C   UNL     1       7.901  21.355  55.503  1.00  0.00     0.020 A 
BRANCH  11  16
HETATM   16  O   UNL     1       8.012  24.448  53.511  1.00  0.00    -0.355 OA
HETATM   17  C   UNL     1       7.728  24.598  52.119  1.00  0.00     0.210 C 
ENDBRANCH  11  16
ENDBRANCH   7  10
ENDBRANCH   5   6
ENDBRANCH   1   5
BRANCH   2  18
HETATM   18  N   UNL     1       4.527  28.280  55.614  1.00  0.00    -0.166 NA
HETATM   19  C   UNL     1       4.250  28.385  54.357  1.00  0.00     0.157 A 
HETATM   20  C   UNL     1       4.329  27.332  53.247  1.00  0.00     0.277 A 
HETATM   21  C   UNL     1       3.764  29.603  53.715  1.00  0.00     0.028 A 
HETATM   22  O   UNL     1       4.756  26.206  53.369  1.00  0.00    -0.266 OA
HETATM   23  N   UNL     1       3.855  27.958  52.111  1.00  0.00    -0.321 N 
HETATM   24  C   UNL     1       3.530  29.285  52.379  1.00  0.00     0.048 A 
HETATM   25  H   UNL     1       3.792  27.498  51.216  1.00  0.00     0.169 HD
HETATM   26  C   UNL     1       3.041  30.224  51.495  1.00  0.00     0.032 A 
HETATM   27  C   UNL     1       2.793  31.509  51.995  1.00  0.00     0.021 A 
HETATM   28  C   UNL     1       3.036  31.817  53.351  1.00  0.00     0.012 A 
HETATM   29 BR   UNL     1       2.688  33.568  53.977  1.00  0.00    -0.051 Br
HETATM   30  C   UNL     1       3.528  30.858  54.236  1.00  0.00     0.035 A 
ENDBRANCH   2  18
TORSDOF 5
ENDMDL
MODEL 9
REMARK VINA RESULT:      -8.5      4.965      8.483
REMARK  5 active torsions:
REMARK  status: ('A' for Active; 'I' for Inactive)
REMARK    1  A    between atoms: O_2  and  C_3 
REMARK    2  A    between atoms: C_4  and  C_5 
REMARK       I    between atoms: C_5  and  N_6 
REMARK    3  A    between atoms: N_6  and  C_7 
REMARK    4  A    between atoms: C_7  and  C_8 
REMARK       I    between atoms: C_8  and  N_9 
REMARK    5  A    between atoms: N_9  and  N_10 
ROOT
HETATM    1  C   UNL     1       5.579  28.452  53.412  1.00  0.00     0.255 C 
HETATM    2  N   UNL     1       6.077  28.455  52.119  1.00  0.00    -0.245 N 
HETATM    3  O   UNL     1       4.441  28.814  53.721  1.00  0.00    -0.270 OA
HETATM    4  H   UNL     1       6.973  28.000  51.917  1.00  0.00     0.192 HD
ENDROOT
BRANCH   1   5
HETATM    5  C   UNL     1       6.489  27.797  54.454  1.00  0.00     0.227 C 
BRANCH   5   6
HETATM    6  N   UNL     1       7.097  26.528  54.082  1.00  0.00    -0.348 N 
HETATM    7  C   UNL     1       6.496  25.330  54.406  1.00  0.00     0.254 C 
HETATM    8  O   UNL     1       5.335  25.268  54.793  1.00  0.00    -0.268 OA
HETATM    9  H   UNL     1       8.092  26.534  53.901  1.00  0.00     0.163 HD
BRANCH   7  10
HETATM   10  C   UNL     1       7.344  24.120  54.238  1.00  0.00     0.065 A 
HETATM   11  C   UNL     1       8.333  23.800  55.176  1.00  0.00     0.084 A 
HETATM   12  C   UNL     1       9.150  22.681  54.979  1.00  0.00     0.038 A 
HETATM   13  C   UNL     1       8.957  21.859  53.868  1.00  0.00     0.003 A 
HETATM   14  C   UNL     1       7.953  22.156  52.947  1.00  0.00     0.001 A 
HETATM   15  C   UNL     1       7.146  23.281  53.129  1.00  0.00     0.020 A 
BRANCH  11  16
HETATM   16  O   UNL     1       8.592  24.630  56.234  1.00  0.00    -0.355 OA
HETATM   17  C   UNL     1       8.588  23.896  57.459  1.00  0.00     0.210 C 
ENDBRANCH  11  16
ENDBRANCH   7  10
ENDBRANCH   5   6
ENDBRANCH   1   5
BRANCH   2  18
HETATM   18  N   UNL     1       5.253  28.829  51.095  1.00  0.00    -0.166 NA
HETATM   19  C   UNL     1       4.743  27.897  50.360  1.00  0.00     0.157 A 
HETATM   20  C   UNL     1       4.972  26.382  50.403  1.00  0.00     0.277 A 
HETATM   21  C   UNL     1       3.779  28.122  49.288  1.00  0.00     0.028 A 
HETATM   22  O   UNL     1       5.761  25.807  51.117  1.00  0.00    -0.266 OA
HETATM   23  N   UNL     1       4.128  25.856  49.445  1.00  0.00    -0.321 N 
HETATM   24  C   UNL     1       3.436  26.867  48.788  1.00  0.00     0.048 A 
HETATM   25  H   UNL     1       4.067  24.868  49.252  1.00  0.00     0.169 HD
HETATM   26  C   UNL     1       2.519  26.731  47.767  1.00  0.00     0.032 A 
HETATM   27  C   UNL     1       1.950  27.903  47.253  1.00  0.00     0.021 A 
HETATM   28  C   UNL     1       2.309  29.168  47.767  1.00  0.00     0.012 A 
HETATM   29 BR   UNL     1       1.516  30.722  47.036  1.00  0.00    -0.051 Br
HETATM   30  C   UNL     1       3.236  29.294  48.802  1.00  0.00     0.035 A 
ENDBRANCH   2  18
TORSDOF 5
ENDMDL
MODEL 10
REMARK VINA RESULT:      -8.2      4.556      7.723
REMARK  5 active torsions:
REMARK  status: ('A' for Active; 'I' for Inactive)
REMARK    1  A    between atoms: O_2  and  C_3 
REMARK    2  A    between atoms: C_4  and  C_5 
REMARK       I    between atoms: C_5  and  N_6 
REMARK    3  A    between atoms: N_6  and  C_7 
REMARK    4  A    between atoms: C_7  and  C_8 
REMARK       I    between atoms: C_8  and  N_9 
REMARK    5  A    between atoms: N_9  and  N_10 
ROOT
HETATM    1  C   UNL     1       4.952  27.558  53.964  1.00  0.00     0.255 C 
HETATM    2  N   UNL     1       4.527  26.243  53.861  1.00  0.00    -0.245 N 
HETATM    3  O   UNL     1       5.925  27.925  54.628  1.00  0.00    -0.270 OA
HETATM    4  H   UNL     1       3.808  25.992  53.174  1.00  0.00     0.192 HD
ENDROOT
BRANCH   1   5
HETATM    5  C   UNL     1       4.228  28.546  53.047  1.00  0.00     0.227 C 
BRANCH   5   6
HETATM    6  N   UNL     1       3.684  28.007  51.809  1.00  0.00    -0.348 N 
HETATM    7  C   UNL     1       4.174  28.410  50.584  1.00  0.00     0.254 C 
HETATM    8  O   UNL     1       5.223  29.035  50.476  1.00  0.00    -0.268 OA
HETATM    9  H   UNL     1       2.752  27.618  51.850  1.00  0.00     0.163 HD
BRANCH   7  10
HETATM   10  C   UNL     1       3.355  28.022  49.406  1.00  0.00     0.065 A 
HETATM   11  C   UNL     1       2.007  28.391  49.315  1.00  0.00     0.084 A 
HETATM   12  C   UNL     1       1.240  27.980  48.219  1.00  0.00     0.038 A 
HETATM   13  C   UNL     1       1.824  27.235  47.195  1.00  0.00     0.003 A 
HETATM   14  C   UNL     1       3.174  26.890  47.266  1.00  0.00     0.001 A 
HETATM   15  C   UNL     1       3.940  27.282  48.365  1.00  0.00     0.020 A 
BRANCH  11  16
HETATM   16  O   UNL     1       1.391  29.058  50.340  1.00  0.00    -0.355 OA
HETATM   17  C   UNL     1       1.147  30.418  49.978  1.00  0.00     0.210 C 
ENDBRANCH  11  16
ENDBRANCH   7  10
ENDBRANCH   5   6
ENDBRANCH   1   5
BRANCH   2  18
HETATM   18  N   UNL     1       5.249  25.264  54.483  1.00  0.00    -0.166 NA
HETATM   19  C   UNL     1       6.173  24.670  53.802  1.00  0.00     0.157 A 
HETATM   20  C   UNL     1       6.564  24.839  52.330  1.00  0.00     0.277 A 
HETATM   21  C   UNL     1       7.088  23.671  54.344  1.00  0.00     0.028 A 
HETATM   22  O   UNL     1       5.991  25.533  51.522  1.00  0.00    -0.266 OA
HETATM   23  N   UNL     1       7.656  24.015  52.143  1.00  0.00    -0.321 N 
HETATM   24  C   UNL     1       7.961  23.327  53.313  1.00  0.00     0.048 A 
HETATM   25  H   UNL     1       8.129  23.924  51.257  1.00  0.00     0.169 HD
HETATM   26  C   UNL     1       8.971  22.409  53.509  1.00  0.00     0.032 A 
HETATM   27  C   UNL     1       9.082  21.836  54.782  1.00  0.00     0.021 A 
HETATM   28  C   UNL     1       8.189  22.192  55.816  1.00  0.00     0.012 A 
HETATM   29 BR   UNL     1       8.378  21.387  57.517  1.00  0.00    -0.051 Br
HETATM   30  C   UNL     1       7.173  23.124  55.608  1.00  0.00     0.035 A 
ENDBRANCH   2  18
TORSDOF 5
ENDMDL
