MODEL 1
REMARK VINA RESULT:      -9.6      0.000      0.000
REMARK  7 active torsions:
REMARK  status: ('A' for Active; 'I' for Inactive)
REMARK    1  A    between atoms: C_2  and  O_3 
REMARK    2  A    between atoms: O_3  and  C_4 
REMARK    3  A    between atoms: C_5  and  N_6 
REMARK    4  A    between atoms: N_9  and  C_11 
REMARK    5  A    between atoms: C_11  and  C_12 
REMARK       I    between atoms: C_12  and  N_13 
REMARK    6  A    between atoms: N_13  and  C_14 
REMARK    7  A    between atoms: C_15  and  C_16 
ROOT
HETATM    1  C   UNL     1       6.358  26.171  52.878  1.00  0.00     0.275 C 
HETATM    2  C   UNL     1       7.531  25.537  52.131  1.00  0.00     0.050 C 
ENDROOT
BRANCH   1   3
HETATM    3  N   UNL     1       5.665  27.187  51.927  1.00  0.00    -0.056 N 
HETATM    4  C   UNL     1       5.429  26.685  50.490  1.00  0.00     0.255 C 
HETATM    5  C   UNL     1       4.842  27.828  49.623  1.00  0.00     0.150 C 
HETATM    6  N   UNL     1       3.610  28.358  50.249  1.00  0.00    -0.375 N 
HETATM    7  C   UNL     1       3.773  28.827  51.633  1.00  0.00     0.150 C 
HETATM    8  C   UNL     1       4.347  27.697  52.507  1.00  0.00     0.255 C 
HETATM    9  H   UNL     1       6.288  27.997  51.853  1.00  0.00     0.281 HD
BRANCH   6  10
HETATM   10  C   UNL     1       2.775  29.107  49.391  1.00  0.00     0.064 A 
HETATM   11  C   UNL     1       1.883  28.472  48.483  1.00  0.00     0.095 A 
HETATM   12  C   UNL     1       1.035  29.242  47.670  1.00  0.00     0.039 A 
HETATM   13  C   UNL     1       1.049  30.634  47.741  1.00  0.00     0.003 A 
HETATM   14  C   UNL     1       1.909  31.270  48.622  1.00  0.00     0.002 A 
HETATM   15  C   UNL     1       2.758  30.516  49.435  1.00  0.00     0.032 A 
BRANCH  11  16
HETATM   16  O   UNL     1       1.868  27.093  48.493  1.00  0.00    -0.349 OA
BRANCH  16  17
HETATM   17  C   UNL     1       2.243  26.425  47.287  1.00  0.00     0.171 C 
HETATM   18  C   UNL     1       3.037  25.185  47.661  1.00  0.00     0.034 C 
ENDBRANCH  16  17
ENDBRANCH  11  16
ENDBRANCH   6  10
ENDBRANCH   1   3
BRANCH   1  19
HETATM   19  C   UNL     1       5.393  25.091  53.414  1.00  0.00     0.253 C 
HETATM   20  N   UNL     1       5.489  24.629  54.699  1.00  0.00    -0.325 N 
HETATM   21  H   UNL     1       4.616  24.222  55.025  1.00  0.00     0.169 HD
HETATM   22  O   UNL     1       4.395  24.774  52.758  1.00  0.00    -0.271 OA
BRANCH  20  23
HETATM   23  C   UNL     1       6.496  24.824  55.663  1.00  0.00     0.045 A 
HETATM   24  C   UNL     1       7.652  24.018  55.800  1.00  0.00     0.001 A 
HETATM   25  C   UNL     1       8.613  24.420  56.753  1.00  0.00     0.014 A 
HETATM   26  C   UNL     1       8.422  25.540  57.564  1.00  0.00     0.001 A 
HETATM   27  C   UNL     1       7.242  26.265  57.474  1.00  0.00     0.002 A 
HETATM   28  C   UNL     1       6.275  25.896  56.543  1.00  0.00     0.030 A 
BRANCH  24  29
HETATM   29  C   UNL     1       7.845  22.717  55.115  1.00  0.00    -0.024 A 
HETATM   30  C   UNL     1       8.180  22.649  53.749  1.00  0.00     0.012 A 
HETATM   31  C   UNL     1       8.410  21.422  53.119  1.00  0.00     0.001 A 
HETATM   32  C   UNL     1       8.312  20.238  53.844  1.00  0.00     0.000 A 
HETATM   33  C   UNL     1       7.988  20.280  55.197  1.00  0.00     0.001 A 
HETATM   34  C   UNL     1       7.761  21.506  55.825  1.00  0.00     0.012 A 
ENDBRANCH  24  29
ENDBRANCH  20  23
ENDBRANCH   1  19
TORSDOF 7
ENDMDL
MODEL 2
REMARK VINA RESULT:      -9.2      1.922      9.368
REMARK  7 active torsions:
REMARK  status: ('A' for Active; 'I' for Inactive)
REMARK    1  A    between atoms: C_2  and  O_3 
REMARK    2  A    between atoms: O_3  and  C_4 
REMARK    3  A    between atoms: C_5  and  N_6 
REMARK    4  A    between atoms: N_9  and  C_11 
REMARK    5  A    between atoms: C_11  and  C_12 
REMARK       I    between atoms: C_12  and  N_13 
REMARK    6  A    between atoms: N_13  and  C_14 
REMARK    7  A    between atoms: C_15  and  C_16 
ROOT
HETATM    1  C   UNL     1       5.573  28.159  52.453  1.00  0.00     0.275 C 
HETATM    2  C   UNL     1       5.993  28.852  53.750  1.00  0.00     0.050 C 
ENDROOT
BRANCH   1   3
HETATM    3  N   UNL     1       6.080  26.691  52.497  1.00  0.00    -0.056 N 
HETATM    4  C   UNL     1       7.549  26.516  52.926  1.00  0.00     0.255 C 
HETATM    5  C   UNL     1       7.956  25.025  52.816  1.00  0.00     0.150 C 
HETATM    6  N   UNL     1       7.028  24.186  53.608  1.00  0.00    -0.375 N 
HETATM    7  C   UNL     1       5.608  24.334  53.258  1.00  0.00     0.150 C 
HETATM    8  C   UNL     1       5.190  25.810  53.373  1.00  0.00     0.255 C 
HETATM    9  H   UNL     1       6.010  26.324  51.543  1.00  0.00     0.281 HD
BRANCH   6  10
HETATM   10  C   UNL     1       7.503  22.892  53.914  1.00  0.00     0.064 A 
HETATM   11  C   UNL     1       7.674  22.462  55.260  1.00  0.00     0.095 A 
HETATM   12  C   UNL     1       8.108  21.155  55.534  1.00  0.00     0.039 A 
HETATM   13  C   UNL     1       8.375  20.259  54.500  1.00  0.00     0.003 A 
HETATM   14  C   UNL     1       8.211  20.659  53.183  1.00  0.00     0.002 A 
HETATM   15  C   UNL     1       7.780  21.956  52.896  1.00  0.00     0.032 A 
BRANCH  11  16
HETATM   16  O   UNL     1       7.342  23.367  56.245  1.00  0.00    -0.349 OA
BRANCH  16  17
HETATM   17  C   UNL     1       8.410  23.910  57.024  1.00  0.00     0.171 C 
HETATM   18  C   UNL     1       8.191  25.407  57.149  1.00  0.00     0.034 C 
ENDBRANCH  16  17
ENDBRANCH  11  16
ENDBRANCH   6  10
ENDBRANCH   1   3
BRANCH   1  19
HETATM   19  C   UNL     1       4.048  28.265  52.237  1.00  0.00     0.253 C 
HETATM   20  N   UNL     1       3.490  28.054  51.004  1.00  0.00    -0.325 N 
HETATM   21  H   UNL     1       2.508  27.797  51.068  1.00  0.00     0.169 HD
HETATM   22  O   UNL     1       3.290  28.341  53.210  1.00  0.00    -0.271 OA
BRANCH  20  23
HETATM   23  C   UNL     1       4.096  27.929  49.740  1.00  0.00     0.045 A 
HETATM   24  C   UNL     1       4.744  28.980  49.047  1.00  0.00     0.001 A 
HETATM   25  C   UNL     1       5.392  28.653  47.835  1.00  0.00     0.014 A 
HETATM   26  C   UNL     1       5.364  27.360  47.311  1.00  0.00     0.001 A 
HETATM   27  C   UNL     1       4.650  26.365  47.963  1.00  0.00     0.002 A 
HETATM   28  C   UNL     1       4.001  26.654  49.160  1.00  0.00     0.030 A 
BRANCH  24  29
HETATM   29  C   UNL     1       4.662  30.409  49.435  1.00  0.00    -0.024 A 
HETATM   30  C   UNL     1       5.744  31.065  50.054  1.00  0.00     0.012 A 
HETATM   31  C   UNL     1       5.682  32.424  50.373  1.00  0.00     0.001 A 
HETATM   32  C   UNL     1       4.536  33.157  50.077  1.00  0.00     0.000 A 
HETATM   33  C   UNL     1       3.457  32.533  49.460  1.00  0.00     0.001 A 
HETATM   34  C   UNL     1       3.521  31.175  49.140  1.00  0.00     0.012 A 
ENDBRANCH  24  29
ENDBRANCH  20  23
ENDBRANCH   1  19
TORSDOF 7
ENDMDL
MODEL 3
REMARK VINA RESULT:      -9.2      1.579      2.693
REMARK  7 active torsions:
REMARK  status: ('A' for Active; 'I' for Inactive)
REMARK    1  A    between atoms: C_2  and  O_3 
REMARK    2  A    between atoms: O_3  and  C_4 
REMARK    3  A    between atoms: C_5  and  N_6 
REMARK    4  A    between atoms: N_9  and  C_11 
REMARK    5  A    between atoms: C_11  and  C_12 
REMARK       I    between atoms: C_12  and  N_13 
REMARK    6  A    between atoms: N_13  and  C_14 
REMARK    7  A    between atoms: C_15  and  C_16 
ROOT
HETATM    1  C   UNL     1       5.652  26.287  52.895  1.00  0.00     0.275 C 
HETATM    2  C   UNL     1       6.997  25.903  52.277  1.00  0.00     0.050 C 
ENDROOT
BRANCH   1   3
HETATM    3  N   UNL     1       4.798  26.991  51.805  1.00  0.00    -0.056 N 
HETATM    4  C   UNL     1       4.754  28.528  51.895  1.00  0.00     0.255 C 
HETATM    5  C   UNL     1       3.781  29.091  50.829  1.00  0.00     0.150 C 
HETATM    6  N   UNL     1       4.170  28.612  49.483  1.00  0.00    -0.375 N 
HETATM    7  C   UNL     1       4.253  27.150  49.348  1.00  0.00     0.150 C 
HETATM    8  C   UNL     1       5.224  26.580  50.396  1.00  0.00     0.255 C 
HETATM    9  H   UNL     1       3.833  26.665  51.927  1.00  0.00     0.281 HD
BRANCH   6  10
HETATM   10  C   UNL     1       3.630  29.346  48.405  1.00  0.00     0.064 A 
HETATM   11  C   UNL     1       4.294  30.488  47.877  1.00  0.00     0.095 A 
HETATM   12  C   UNL     1       3.754  31.175  46.777  1.00  0.00     0.039 A 
HETATM   13  C   UNL     1       2.565  30.751  46.185  1.00  0.00     0.003 A 
HETATM   14  C   UNL     1       1.906  29.638  46.684  1.00  0.00     0.002 A 
HETATM   15  C   UNL     1       2.433  28.947  47.777  1.00  0.00     0.032 A 
BRANCH  11  16
HETATM   16  O   UNL     1       5.494  30.831  48.463  1.00  0.00    -0.349 OA
BRANCH  16  17
HETATM   17  C   UNL     1       5.672  32.198  48.840  1.00  0.00     0.171 C 
HETATM   18  C   UNL     1       5.675  32.274  50.357  1.00  0.00     0.034 C 
ENDBRANCH  16  17
ENDBRANCH  11  16
ENDBRANCH   6  10
ENDBRANCH   1   3
BRANCH   1  19
HETATM   19  C   UNL     1       4.952  25.055  53.509  1.00  0.00     0.253 C 
HETATM   20  N   UNL     1       5.262  24.618  54.769  1.00  0.00    -0.325 N 
HETATM   21  H   UNL     1       4.512  24.065  55.177  1.00  0.00     0.169 HD
HETATM   22  O   UNL     1       3.961  24.568  52.955  1.00  0.00    -0.271 OA
BRANCH  20  23
HETATM   23  C   UNL     1       6.316  24.986  55.626  1.00  0.00     0.045 A 
HETATM   24  C   UNL     1       7.550  24.300  55.732  1.00  0.00     0.001 A 
HETATM   25  C   UNL     1       8.538  24.869  56.565  1.00  0.00     0.014 A 
HETATM   26  C   UNL     1       8.304  26.036  57.294  1.00  0.00     0.001 A 
HETATM   27  C   UNL     1       7.058  26.644  57.243  1.00  0.00     0.002 A 
HETATM   28  C   UNL     1       6.062  26.109  56.430  1.00  0.00     0.030 A 
BRANCH  24  29
HETATM   29  C   UNL     1       7.813  22.964  55.144  1.00  0.00    -0.024 A 
HETATM   30  C   UNL     1       7.733  21.792  55.920  1.00  0.00     0.012 A 
HETATM   31  C   UNL     1       7.932  20.530  55.351  1.00  0.00     0.001 A 
HETATM   32  C   UNL     1       8.213  20.416  53.993  1.00  0.00     0.000 A 
HETATM   33  C   UNL     1       8.290  21.559  53.204  1.00  0.00     0.001 A 
HETATM   34  C   UNL     1       8.089  22.819  53.774  1.00  0.00     0.012 A 
ENDBRANCH  24  29
ENDBRANCH  20  23
ENDBRANCH   1  19
TORSDOF 7
ENDMDL
MODEL 4
REMARK VINA RESULT:      -9.2      4.729      8.328
REMARK  7 active torsions:
REMARK  status: ('A' for Active; 'I' for Inactive)
REMARK    1  A    between atoms: C_2  and  O_3 
REMARK    2  A    between atoms: O_3  and  C_4 
REMARK    3  A    between atoms: C_5  and  N_6 
REMARK    4  A    between atoms: N_9  and  C_11 
REMARK    5  A    between atoms: C_11  and  C_12 
REMARK       I    between atoms: C_12  and  N_13 
REMARK    6  A    between atoms: N_13  and  C_14 
REMARK    7  A    between atoms: C_15  and  C_16 
ROOT
HETATM    1  C   UNL     1       4.826  30.287  57.532  1.00  0.00     0.275 C 
HETATM    2  C   UNL     1       3.312  30.372  57.725  1.00  0.00     0.050 C 
ENDROOT
BRANCH   1   3
HETATM    3  N   UNL     1       5.120  29.218  56.444  1.00  0.00    -0.056 N 
HETATM    4  C   UNL     1       6.421  29.433  55.647  1.00  0.00     0.255 C 
HETATM    5  C   UNL     1       6.533  28.370  54.525  1.00  0.00     0.150 C 
HETATM    6  N   UNL     1       6.439  27.010  55.103  1.00  0.00    -0.375 N 
HETATM    7  C   UNL     1       5.228  26.758  55.897  1.00  0.00     0.150 C 
HETATM    8  C   UNL     1       5.110  27.803  57.021  1.00  0.00     0.255 C 
HETATM    9  H   UNL     1       4.353  29.265  55.766  1.00  0.00     0.281 HD
BRANCH   6  10
HETATM   10  C   UNL     1       6.913  25.971  54.272  1.00  0.00     0.064 A 
HETATM   11  C   UNL     1       7.292  24.708  54.805  1.00  0.00     0.095 A 
HETATM   12  C   UNL     1       7.721  23.679  53.950  1.00  0.00     0.039 A 
HETATM   13  C   UNL     1       7.780  23.875  52.571  1.00  0.00     0.003 A 
HETATM   14  C   UNL     1       7.411  25.098  52.033  1.00  0.00     0.002 A 
HETATM   15  C   UNL     1       6.983  26.129  52.873  1.00  0.00     0.032 A 
BRANCH  11  16
HETATM   16  O   UNL     1       7.162  24.548  56.168  1.00  0.00    -0.349 OA
BRANCH  16  17
HETATM   17  C   UNL     1       8.116  23.710  56.824  1.00  0.00     0.171 C 
HETATM   18  C   UNL     1       9.050  24.597  57.630  1.00  0.00     0.034 C 
ENDBRANCH  16  17
ENDBRANCH  11  16
ENDBRANCH   6  10
ENDBRANCH   1   3
BRANCH   1  19
HETATM   19  C   UNL     1       5.421  31.671  57.195  1.00  0.00     0.253 C 
HETATM   20  N   UNL     1       6.322  32.278  58.028  1.00  0.00    -0.325 N 
HETATM   21  H   UNL     1       6.889  32.968  57.541  1.00  0.00     0.169 HD
HETATM   22  O   UNL     1       5.248  32.161  56.074  1.00  0.00    -0.271 OA
BRANCH  20  23
HETATM   23  C   UNL     1       6.715  31.949  59.339  1.00  0.00     0.045 A 
HETATM   24  C   UNL     1       7.923  31.295  59.682  1.00  0.00     0.001 A 
HETATM   25  C   UNL     1       8.207  31.138  61.056  1.00  0.00     0.014 A 
HETATM   26  C   UNL     1       7.319  31.565  62.045  1.00  0.00     0.001 A 
HETATM   27  C   UNL     1       6.101  32.124  61.686  1.00  0.00     0.002 A 
HETATM   28  C   UNL     1       5.791  32.294  60.339  1.00  0.00     0.030 A 
BRANCH  24  29
HETATM   29  C   UNL     1       8.827  30.648  58.701  1.00  0.00    -0.024 A 
HETATM   30  C   UNL     1      10.045  31.243  58.320  1.00  0.00     0.012 A 
HETATM   31  C   UNL     1      10.917  30.606  57.432  1.00  0.00     0.001 A 
HETATM   32  C   UNL     1      10.591  29.359  56.910  1.00  0.00     0.000 A 
HETATM   33  C   UNL     1       9.396  28.747  57.276  1.00  0.00     0.001 A 
HETATM   34  C   UNL     1       8.526  29.384  58.164  1.00  0.00     0.012 A 
ENDBRANCH  24  29
ENDBRANCH  20  23
ENDBRANCH   1  19
TORSDOF 7
ENDMDL
MODEL 5
REMARK VINA RESULT:      -9.1      5.840      9.902
REMARK  7 active torsions:
REMARK  status: ('A' for Active; 'I' for Inactive)
REMARK    1  A    between atoms: C_2  and  O_3 
REMARK    2  A    between atoms: O_3  and  C_4 
REMARK    3  A    between atoms: C_5  and  N_6 
REMARK    4  A    between atoms: N_9  and  C_11 
REMARK    5  A    between atoms: C_11  and  C_12 
REMARK       I    between atoms: C_12  and  N_13 
REMARK    6  A    between atoms: N_13  and  C_14 
REMARK    7  A    between atoms: C_15  and  C_16 
ROOT
HETATM    1  C   UNL     1       5.476  30.449  58.074  1.00  0.00     0.275 C 
HETATM    2  C   UNL     1       3.951  30.343  58.069  1.00  0.00     0.050 C 
ENDROOT
BRANCH   1   3
HETATM    3  N   UNL     1       6.031  29.557  56.930  1.00  0.00    -0.056 N 
HETATM    4  C   UNL     1       7.276  28.725  57.291  1.00  0.00     0.255 C 
HETATM    5  C   UNL     1       7.792  27.976  56.037  1.00  0.00     0.150 C 
HETATM    6  N   UNL     1       6.707  27.152  55.457  1.00  0.00    -0.375 N 
HETATM    7  C   UNL     1       5.483  27.892  55.118  1.00  0.00     0.150 C 
HETATM    8  C   UNL     1       4.956  28.633  56.359  1.00  0.00     0.255 C 
HETATM    9  H   UNL     1       6.312  30.186  56.172  1.00  0.00     0.281 HD
BRANCH   6  10
HETATM   10  C   UNL     1       7.133  26.136  54.574  1.00  0.00     0.064 A 
HETATM   11  C   UNL     1       7.276  24.787  55.005  1.00  0.00     0.095 A 
HETATM   12  C   UNL     1       7.661  23.791  54.094  1.00  0.00     0.039 A 
HETATM   13  C   UNL     1       7.906  24.101  52.757  1.00  0.00     0.003 A 
HETATM   14  C   UNL     1       7.769  25.408  52.318  1.00  0.00     0.002 A 
HETATM   15  C   UNL     1       7.386  26.409  53.214  1.00  0.00     0.032 A 
BRANCH  11  16
HETATM   16  O   UNL     1       6.967  24.524  56.323  1.00  0.00    -0.349 OA
BRANCH  16  17
HETATM   17  C   UNL     1       7.901  23.746  57.072  1.00  0.00     0.171 C 
HETATM   18  C   UNL     1       9.065  24.643  57.456  1.00  0.00     0.034 C 
ENDBRANCH  16  17
ENDBRANCH  11  16
ENDBRANCH   6  10
ENDBRANCH   1   3
BRANCH   1  19
HETATM   19  C   UNL     1       5.928  31.922  57.965  1.00  0.00     0.253 C 
HETATM   20  N   UNL     1       6.871  32.439  58.812  1.00  0.00    -0.325 N 
HETATM   21  H   UNL     1       7.329  33.258  58.421  1.00  0.00     0.169 HD
HETATM   22  O   UNL     1       5.597  32.599  56.985  1.00  0.00    -0.271 OA
BRANCH  20  23
HETATM   23  C   UNL     1       7.430  31.903  59.988  1.00  0.00     0.045 A 
HETATM   24  C   UNL     1       6.858  32.014  61.278  1.00  0.00     0.001 A 
HETATM   25  C   UNL     1       7.497  31.324  62.332  1.00  0.00     0.014 A 
HETATM   26  C   UNL     1       8.670  30.595  62.130  1.00  0.00     0.001 A 
HETATM   27  C   UNL     1       9.261  30.572  60.874  1.00  0.00     0.002 A 
HETATM   28  C   UNL     1       8.655  31.240  59.814  1.00  0.00     0.030 A 
BRANCH  24  29
HETATM   29  C   UNL     1       5.728  32.914  61.614  1.00  0.00    -0.024 A 
HETATM   30  C   UNL     1       4.392  32.474  61.540  1.00  0.00     0.012 A 
HETATM   31  C   UNL     1       3.332  33.310  61.905  1.00  0.00     0.001 A 
HETATM   32  C   UNL     1       3.587  34.603  62.354  1.00  0.00     0.000 A 
HETATM   33  C   UNL     1       4.900  35.058  62.441  1.00  0.00     0.001 A 
HETATM   34  C   UNL     1       5.957  34.221  62.078  1.00  0.00     0.012 A 
ENDBRANCH  24  29
ENDBRANCH  20  23
ENDBRANCH   1  19
TORSDOF 7
ENDMDL
MODEL 6
REMARK VINA RESULT:      -9.0      9.254     13.321
REMARK  7 active torsions:
REMARK  status: ('A' for Active; 'I' for Inactive)
REMARK    1  A    between atoms: C_2  and  O_3 
REMARK    2  A    between atoms: O_3  and  C_4 
REMARK    3  A    between atoms: C_5  and  N_6 
REMARK    4  A    between atoms: N_9  and  C_11 
REMARK    5  A    between atoms: C_11  and  C_12 
REMARK       I    between atoms: C_12  and  N_13 
REMARK    6  A    between atoms: N_13  and  C_14 
REMARK    7  A    between atoms: C_15  and  C_16 
ROOT
HETATM    1  C   UNL     1       6.271  33.222  62.912  1.00  0.00     0.275 C 
HETATM    2  C   UNL     1       7.078  33.272  64.209  1.00  0.00     0.050 C 
ENDROOT
BRANCH   1   3
HETATM    3  N   UNL     1       7.214  32.758  61.767  1.00  0.00    -0.056 N 
HETATM    4  C   UNL     1       8.159  31.596  62.126  1.00  0.00     0.255 C 
HETATM    5  C   UNL     1       9.118  31.312  60.943  1.00  0.00     0.150 C 
HETATM    6  N   UNL     1       8.340  31.051  59.710  1.00  0.00    -0.375 N 
HETATM    7  C   UNL     1       7.401  32.119  59.335  1.00  0.00     0.150 C 
HETATM    8  C   UNL     1       6.437  32.403  60.500  1.00  0.00     0.255 C 
HETATM    9  H   UNL     1       7.812  33.556  61.533  1.00  0.00     0.281 HD
BRANCH   6  10
HETATM   10  C   UNL     1       9.051  30.403  58.677  1.00  0.00     0.064 A 
HETATM   11  C   UNL     1       8.485  29.318  57.952  1.00  0.00     0.095 A 
HETATM   12  C   UNL     1       9.199  28.719  56.902  1.00  0.00     0.039 A 
HETATM   13  C   UNL     1      10.469  29.176  56.550  1.00  0.00     0.003 A 
HETATM   14  C   UNL     1      11.036  30.234  57.244  1.00  0.00     0.002 A 
HETATM   15  C   UNL     1      10.335  30.838  58.291  1.00  0.00     0.032 A 
BRANCH  11  16
HETATM   16  O   UNL     1       7.205  28.942  58.301  1.00  0.00    -0.349 OA
BRANCH  16  17
HETATM   17  C   UNL     1       6.261  28.768  57.243  1.00  0.00     0.171 C 
HETATM   18  C   UNL     1       5.121  29.748  57.460  1.00  0.00     0.034 C 
ENDBRANCH  16  17
ENDBRANCH  11  16
ENDBRANCH   6  10
ENDBRANCH   1   3
BRANCH   1  19
HETATM   19  C   UNL     1       5.024  32.324  63.068  1.00  0.00     0.253 C 
HETATM   20  N   UNL     1       3.823  32.674  62.511  1.00  0.00    -0.325 N 
HETATM   21  H   UNL     1       3.217  31.869  62.372  1.00  0.00     0.169 HD
HETATM   22  O   UNL     1       5.139  31.182  63.524  1.00  0.00    -0.271 OA
BRANCH  20  23
HETATM   23  C   UNL     1       3.411  33.886  61.925  1.00  0.00     0.045 A 
HETATM   24  C   UNL     1       3.465  35.150  62.560  1.00  0.00     0.001 A 
HETATM   25  C   UNL     1       3.110  36.278  61.788  1.00  0.00     0.014 A 
HETATM   26  C   UNL     1       2.679  36.160  60.466  1.00  0.00     0.001 A 
HETATM   27  C   UNL     1       2.550  34.903  59.891  1.00  0.00     0.002 A 
HETATM   28  C   UNL     1       2.893  33.771  60.625  1.00  0.00     0.030 A 
BRANCH  24  29
HETATM   29  C   UNL     1       3.729  35.345  64.006  1.00  0.00    -0.024 A 
HETATM   30  C   UNL     1       4.649  36.310  64.461  1.00  0.00     0.012 A 
HETATM   31  C   UNL     1       4.859  36.525  65.826  1.00  0.00     0.001 A 
HETATM   32  C   UNL     1       4.150  35.782  66.765  1.00  0.00     0.000 A 
HETATM   33  C   UNL     1       3.230  34.828  66.340  1.00  0.00     0.001 A 
HETATM   34  C   UNL     1       3.020  34.616  64.976  1.00  0.00     0.012 A 
ENDBRANCH  24  29
ENDBRANCH  20  23
ENDBRANCH   1  19
TORSDOF 7
ENDMDL
MODEL 7
REMARK VINA RESULT:      -8.9      9.449     13.393
REMARK  7 active torsions:
REMARK  status: ('A' for Active; 'I' for Inactive)
REMARK    1  A    between atoms: C_2  and  O_3 
REMARK    2  A    between atoms: O_3  and  C_4 
REMARK    3  A    between atoms: C_5  and  N_6 
REMARK    4  A    between atoms: N_9  and  C_11 
REMARK    5  A    between atoms: C_11  and  C_12 
REMARK       I    between atoms: C_12  and  N_13 
REMARK    6  A    between atoms: N_13  and  C_14 
REMARK    7  A    between atoms: C_15  and  C_16 
ROOT
HETATM    1  C   UNL     1       6.828  33.206  63.212  1.00  0.00     0.275 C 
HETATM    2  C   UNL     1       7.713  33.228  64.458  1.00  0.00     0.050 C 
ENDROOT
BRANCH   1   3
HETATM    3  N   UNL     1       7.680  32.699  62.016  1.00  0.00    -0.056 N 
HETATM    4  C   UNL     1       8.415  31.366  62.251  1.00  0.00     0.255 C 
HETATM    5  C   UNL     1       9.313  31.037  61.033  1.00  0.00     0.150 C 
HETATM    6  N   UNL     1       8.504  31.027  59.793  1.00  0.00    -0.375 N 
HETATM    7  C   UNL     1       7.758  32.268  59.533  1.00  0.00     0.150 C 
HETATM    8  C   UNL     1       6.855  32.600  60.733  1.00  0.00     0.255 C 
HETATM    9  H   UNL     1       8.404  33.404  61.847  1.00  0.00     0.281 HD
BRANCH   6  10
HETATM   10  C   UNL     1       9.097  30.368  58.694  1.00  0.00     0.064 A 
HETATM   11  C   UNL     1       8.382  29.400  57.934  1.00  0.00     0.095 A 
HETATM   12  C   UNL     1       8.983  28.791  56.821  1.00  0.00     0.039 A 
HETATM   13  C   UNL     1      10.282  29.124  56.440  1.00  0.00     0.003 A 
HETATM   14  C   UNL     1      10.992  30.068  57.166  1.00  0.00     0.002 A 
HETATM   15  C   UNL     1      10.406  30.681  58.275  1.00  0.00     0.032 A 
BRANCH  11  16
HETATM   16  O   UNL     1       7.082  29.149  58.319  1.00  0.00    -0.349 OA
BRANCH  16  17
HETATM   17  C   UNL     1       6.042  29.602  57.450  1.00  0.00     0.171 C 
HETATM   18  C   UNL     1       5.267  28.388  56.968  1.00  0.00     0.034 C 
ENDBRANCH  16  17
ENDBRANCH  11  16
ENDBRANCH   6  10
ENDBRANCH   1   3
BRANCH   1  19
HETATM   19  C   UNL     1       5.558  32.360  63.450  1.00  0.00     0.253 C 
HETATM   20  N   UNL     1       4.509  32.846  64.184  1.00  0.00    -0.325 N 
HETATM   21  H   UNL     1       3.636  32.373  63.964  1.00  0.00     0.169 HD
HETATM   22  O   UNL     1       5.383  31.315  62.814  1.00  0.00    -0.271 OA
BRANCH  20  23
HETATM   23  C   UNL     1       4.420  33.994  64.994  1.00  0.00     0.045 A 
HETATM   24  C   UNL     1       4.023  35.275  64.540  1.00  0.00     0.001 A 
HETATM   25  C   UNL     1       3.886  36.292  65.511  1.00  0.00     0.014 A 
HETATM   26  C   UNL     1       4.170  36.067  66.859  1.00  0.00     0.001 A 
HETATM   27  C   UNL     1       4.641  34.827  67.268  1.00  0.00     0.002 A 
HETATM   28  C   UNL     1       4.786  33.803  66.336  1.00  0.00     0.030 A 
BRANCH  24  29
HETATM   29  C   UNL     1       3.885  35.646  63.112  1.00  0.00    -0.024 A 
HETATM   30  C   UNL     1       2.710  35.362  62.390  1.00  0.00     0.012 A 
HETATM   31  C   UNL     1       2.563  35.758  61.057  1.00  0.00     0.001 A 
HETATM   32  C   UNL     1       3.589  36.449  60.419  1.00  0.00     0.000 A 
HETATM   33  C   UNL     1       4.757  36.748  61.114  1.00  0.00     0.001 A 
HETATM   34  C   UNL     1       4.901  36.353  62.446  1.00  0.00     0.012 A 
ENDBRANCH  24  29
ENDBRANCH  20  23
ENDBRANCH   1  19
TORSDOF 7
ENDMDL
MODEL 8
REMARK VINA RESULT:      -8.8      5.596      9.198
REMARK  7 active torsions:
REMARK  status: ('A' for Active; 'I' for Inactive)
REMARK    1  A    between atoms: C_2  and  O_3 
REMARK    2  A    between atoms: O_3  and  C_4 
REMARK    3  A    between atoms: C_5  and  N_6 
REMARK    4  A    between atoms: N_9  and  C_11 
REMARK    5  A    between atoms: C_11  and  C_12 
REMARK       I    between atoms: C_12  and  N_13 
REMARK    6  A    between atoms: N_13  and  C_14 
REMARK    7  A    between atoms: C_15  and  C_16 
ROOT
HETATM    1  C   UNL     1       7.107  28.433  56.500  1.00  0.00     0.275 C 
HETATM    2  C   UNL     1       7.841  27.604  57.554  1.00  0.00     0.050 C 
ENDROOT
BRANCH   1   3
HETATM    3  N   UNL     1       6.687  29.782  57.146  1.00  0.00    -0.056 N 
HETATM    4  C   UNL     1       5.221  29.858  57.614  1.00  0.00     0.255 C 
HETATM    5  C   UNL     1       4.905  31.285  58.129  1.00  0.00     0.150 C 
HETATM    6  N   UNL     1       5.862  31.664  59.193  1.00  0.00    -0.375 N 
HETATM    7  C   UNL     1       7.279  31.584  58.808  1.00  0.00     0.150 C 
HETATM    8  C   UNL     1       7.607  30.168  58.304  1.00  0.00     0.255 C 
HETATM    9  H   UNL     1       6.799  30.504  56.427  1.00  0.00     0.281 HD
BRANCH   6  10
HETATM   10  C   UNL     1       5.457  32.745  60.006  1.00  0.00     0.064 A 
HETATM   11  C   UNL     1       5.878  32.855  61.361  1.00  0.00     0.095 A 
HETATM   12  C   UNL     1       5.493  33.963  62.133  1.00  0.00     0.039 A 
HETATM   13  C   UNL     1       4.700  34.972  61.589  1.00  0.00     0.003 A 
HETATM   14  C   UNL     1       4.283  34.884  60.270  1.00  0.00     0.002 A 
HETATM   15  C   UNL     1       4.658  33.787  59.491  1.00  0.00     0.032 A 
BRANCH  11  16
HETATM   16  O   UNL     1       6.707  31.860  61.833  1.00  0.00    -0.349 OA
BRANCH  16  17
HETATM   17  C   UNL     1       7.819  32.260  62.635  1.00  0.00     0.171 C 
HETATM   18  C   UNL     1       9.092  31.816  61.936  1.00  0.00     0.034 C 
ENDBRANCH  16  17
ENDBRANCH  11  16
ENDBRANCH   6  10
ENDBRANCH   1   3
BRANCH   1  19
HETATM   19  C   UNL     1       7.974  28.614  55.235  1.00  0.00     0.253 C 
HETATM   20  N   UNL     1       7.415  28.609  53.985  1.00  0.00    -0.325 N 
HETATM   21  H   UNL     1       8.000  29.085  53.303  1.00  0.00     0.169 HD
HETATM   22  O   UNL     1       9.154  28.968  55.340  1.00  0.00    -0.271 OA
BRANCH  20  23
HETATM   23  C   UNL     1       6.117  28.258  53.571  1.00  0.00     0.045 A 
HETATM   24  C   UNL     1       5.648  26.930  53.417  1.00  0.00     0.001 A 
HETATM   25  C   UNL     1       4.284  26.758  53.096  1.00  0.00     0.014 A 
HETATM   26  C   UNL     1       3.432  27.845  52.893  1.00  0.00     0.001 A 
HETATM   27  C   UNL     1       3.933  29.138  52.963  1.00  0.00     0.002 A 
HETATM   28  C   UNL     1       5.273  29.342  53.279  1.00  0.00     0.030 A 
BRANCH  24  29
HETATM   29  C   UNL     1       6.522  25.733  53.430  1.00  0.00    -0.024 A 
HETATM   30  C   UNL     1       6.625  24.911  54.569  1.00  0.00     0.012 A 
HETATM   31  C   UNL     1       7.411  23.755  54.561  1.00  0.00     0.001 A 
HETATM   32  C   UNL     1       8.108  23.395  53.412  1.00  0.00     0.000 A 
HETATM   33  C   UNL     1       8.017  24.187  52.272  1.00  0.00     0.001 A 
HETATM   34  C   UNL     1       7.230  25.341  52.281  1.00  0.00     0.012 A 
ENDBRANCH  24  29
ENDBRANCH  20  23
ENDBRANCH   1  19
TORSDOF 7
ENDMDL
MODEL 9
REMARK VINA RESULT:      -8.6      5.558      9.547
REMARK  7 active torsions:
REMARK  status: ('A' for Active; 'I' for Inactive)
REMARK    1  A    between atoms: C_2  and  O_3 
REMARK    2  A    between atoms: O_3  and  C_4 
REMARK    3  A    between atoms: C_5  and  N_6 
REMARK    4  A    between atoms: N_9  and  C_11 
REMARK    5  A    between atoms: C_11  and  C_12 
REMARK       I    between atoms: C_12  and  N_13 
REMARK    6  A    between atoms: N_13  and  C_14 
REMARK    7  A    between atoms: C_15  and  C_16 
ROOT
HETATM    1  C   UNL     1       4.403  30.348  57.796  1.00  0.00     0.275 C 
HETATM    2  C   UNL     1       3.134  30.401  56.945  1.00  0.00     0.050 C 
ENDROOT
BRANCH   1   3
HETATM    3  N   UNL     1       5.038  28.939  57.639  1.00  0.00    -0.056 N 
HETATM    4  C   UNL     1       4.543  28.126  56.427  1.00  0.00     0.255 C 
HETATM    5  C   UNL     1       5.164  26.707  56.455  1.00  0.00     0.150 C 
HETATM    6  N   UNL     1       6.641  26.800  56.511  1.00  0.00    -0.375 N 
HETATM    7  C   UNL     1       7.168  27.589  57.635  1.00  0.00     0.150 C 
HETATM    8  C   UNL     1       6.565  29.004  57.613  1.00  0.00     0.255 C 
HETATM    9  H   UNL     1       4.780  28.402  58.473  1.00  0.00     0.281 HD
BRANCH   6  10
HETATM   10  C   UNL     1       7.330  25.623  56.147  1.00  0.00     0.064 A 
HETATM   11  C   UNL     1       7.414  25.200  54.791  1.00  0.00     0.095 A 
HETATM   12  C   UNL     1       8.142  24.048  54.454  1.00  0.00     0.039 A 
HETATM   13  C   UNL     1       8.795  23.303  55.435  1.00  0.00     0.003 A 
HETATM   14  C   UNL     1       8.727  23.702  56.761  1.00  0.00     0.002 A 
HETATM   15  C   UNL     1       8.006  24.846  57.110  1.00  0.00     0.032 A 
BRANCH  11  16
HETATM   16  O   UNL     1       6.799  26.003  53.854  1.00  0.00    -0.349 OA
BRANCH  16  17
HETATM   17  C   UNL     1       6.363  25.382  52.644  1.00  0.00     0.171 C 
HETATM   18  C   UNL     1       4.915  24.959  52.824  1.00  0.00     0.034 C 
ENDBRANCH  16  17
ENDBRANCH  11  16
ENDBRANCH   6  10
ENDBRANCH   1   3
BRANCH   1  19
HETATM   19  C   UNL     1       5.371  31.491  57.419  1.00  0.00     0.253 C 
HETATM   20  N   UNL     1       5.649  32.504  58.298  1.00  0.00    -0.325 N 
HETATM   21  H   UNL     1       6.533  32.960  58.087  1.00  0.00     0.169 HD
HETATM   22  O   UNL     1       6.064  31.403  56.400  1.00  0.00    -0.271 OA
BRANCH  20  23
HETATM   23  C   UNL     1       5.035  32.844  59.518  1.00  0.00     0.045 A 
HETATM   24  C   UNL     1       5.683  32.842  60.777  1.00  0.00     0.001 A 
HETATM   25  C   UNL     1       4.946  33.314  61.885  1.00  0.00     0.014 A 
HETATM   26  C   UNL     1       3.618  33.726  61.765  1.00  0.00     0.001 A 
HETATM   27  C   UNL     1       2.975  33.637  60.538  1.00  0.00     0.002 A 
HETATM   28  C   UNL     1       3.674  33.177  59.425  1.00  0.00     0.030 A 
BRANCH  24  29
HETATM   29  C   UNL     1       7.019  32.249  61.025  1.00  0.00    -0.024 A 
HETATM   30  C   UNL     1       8.130  32.584  60.227  1.00  0.00     0.012 A 
HETATM   31  C   UNL     1       9.399  32.061  60.495  1.00  0.00     0.001 A 
HETATM   32  C   UNL     1       9.583  31.195  61.568  1.00  0.00     0.000 A 
HETATM   33  C   UNL     1       8.502  30.855  62.375  1.00  0.00     0.001 A 
HETATM   34  C   UNL     1       7.236  31.380  62.108  1.00  0.00     0.012 A 
ENDBRANCH  24  29
ENDBRANCH  20  23
ENDBRANCH   1  19
TORSDOF 7
ENDMDL
MODEL 10
REMARK VINA RESULT:      -8.5      5.492      9.401
REMARK  7 active torsions:
REMARK  status: ('A' for Active; 'I' for Inactive)
REMARK    1  A    between atoms: C_2  and  O_3 
REMARK    2  A    between atoms: O_3  and  C_4 
REMARK    3  A    between atoms: C_5  and  N_6 
REMARK    4  A    between atoms: N_9  and  C_11 
REMARK    5  A    between atoms: C_11  and  C_12 
REMARK       I    between atoms: C_12  and  N_13 
REMARK    6  A    between atoms: N_13  and  C_14 
REMARK    7  A    between atoms: C_15  and  C_16 
ROOT
HETATM    1  C   UNL     1       6.813  29.151  55.887  1.00  0.00     0.275 C 
HETATM    2  C   UNL     1       5.917  28.019  56.390  1.00  0.00     0.050 C 
ENDROOT
BRANCH   1   3
HETATM    3  N   UNL     1       7.160  30.070  57.090  1.00  0.00    -0.056 N 
HETATM    4  C   UNL     1       6.027  31.006  57.551  1.00  0.00     0.255 C 
HETATM    5  C   UNL     1       6.541  31.942  58.674  1.00  0.00     0.150 C 
HETATM    6  N   UNL     1       7.103  31.142  59.785  1.00  0.00    -0.375 N 
HETATM    7  C   UNL     1       8.172  30.210  59.396  1.00  0.00     0.150 C 
HETATM    8  C   UNL     1       7.671  29.268  58.287  1.00  0.00     0.255 C 
HETATM    9  H   UNL     1       7.932  30.674  56.790  1.00  0.00     0.281 HD
BRANCH   6  10
HETATM   10  C   UNL     1       7.238  31.828  61.011  1.00  0.00     0.064 A 
HETATM   11  C   UNL     1       6.176  32.609  61.546  1.00  0.00     0.095 A 
HETATM   12  C   UNL     1       6.324  33.248  62.788  1.00  0.00     0.039 A 
HETATM   13  C   UNL     1       7.505  33.126  63.517  1.00  0.00     0.003 A 
HETATM   14  C   UNL     1       8.550  32.366  63.014  1.00  0.00     0.002 A 
HETATM   15  C   UNL     1       8.416  31.726  61.779  1.00  0.00     0.032 A 
BRANCH  11  16
HETATM   16  O   UNL     1       5.009  32.651  60.812  1.00  0.00    -0.349 OA
BRANCH  16  17
HETATM   17  C   UNL     1       4.079  33.692  61.118  1.00  0.00     0.171 C 
HETATM   18  C   UNL     1       2.785  33.403  60.377  1.00  0.00     0.034 C 
ENDBRANCH  16  17
ENDBRANCH  11  16
ENDBRANCH   6  10
ENDBRANCH   1   3
BRANCH   1  19
HETATM   19  C   UNL     1       8.063  28.594  55.172  1.00  0.00     0.253 C 
HETATM   20  N   UNL     1       7.955  27.883  54.006  1.00  0.00    -0.325 N 
HETATM   21  H   UNL     1       8.820  27.895  53.470  1.00  0.00     0.169 HD
HETATM   22  O   UNL     1       9.190  28.952  55.530  1.00  0.00    -0.271 OA
BRANCH  20  23
HETATM   23  C   UNL     1       6.820  27.352  53.365  1.00  0.00     0.045 A 
HETATM   24  C   UNL     1       6.403  26.002  53.448  1.00  0.00     0.001 A 
HETATM   25  C   UNL     1       5.179  25.663  52.829  1.00  0.00     0.014 A 
HETATM   26  C   UNL     1       4.426  26.603  52.123  1.00  0.00     0.001 A 
HETATM   27  C   UNL     1       4.898  27.900  51.981  1.00  0.00     0.002 A 
HETATM   28  C   UNL     1       6.100  28.267  52.581  1.00  0.00     0.030 A 
BRANCH  24  29
HETATM   29  C   UNL     1       7.229  24.908  54.013  1.00  0.00    -0.024 A 
HETATM   30  C   UNL     1       7.792  23.913  53.190  1.00  0.00     0.012 A 
HETATM   31  C   UNL     1       8.612  22.912  53.719  1.00  0.00     0.001 A 
HETATM   32  C   UNL     1       8.888  22.887  55.083  1.00  0.00     0.000 A 
HETATM   33  C   UNL     1       8.349  23.863  55.915  1.00  0.00     0.001 A 
HETATM   34  C   UNL     1       7.532  24.863  55.385  1.00  0.00     0.012 A 
ENDBRANCH  24  29
ENDBRANCH  20  23
ENDBRANCH   1  19
TORSDOF 7
ENDMDL
