MODEL 1
REMARK VINA RESULT:     -11.7      0.000      0.000
REMARK  6 active torsions:
REMARK  status: ('A' for Active; 'I' for Inactive)
REMARK    1  A    between atoms: C_11  and  N_12 
REMARK       I    between atoms: N_12  and  C_13 
REMARK    2  A    between atoms: C_13  and  C_14 
REMARK    3  A    between atoms: N_15  and  C_17 
REMARK    4  A    between atoms: C_17  and  C_18 
REMARK    5  A    between atoms: C_26  and  S_27 
REMARK    6  A    between atoms: S_27  and  C_28 
ROOT
HETATM    1  C   UNL     1       7.698  30.573  58.056  1.00  0.00     0.281 C 
HETATM    2  N   UNL     1       6.767  31.727  58.553  1.00  0.00    -0.053 N 
HETATM    3  H   UNL     1       7.123  32.588  58.113  1.00  0.00     0.281 HD
HETATM    4  C   UNL     1       6.984  31.859  60.047  1.00  0.00     0.252 C 
HETATM    5  C   UNL     1       8.394  31.335  60.256  1.00  0.00     0.083 C 
HETATM    6  C   UNL     1       8.421  30.125  59.332  1.00  0.00     0.060 C 
ENDROOT
BRANCH   1   7
HETATM    7  C   UNL     1       7.027  29.396  57.298  1.00  0.00     0.253 C 
HETATM    8  N   UNL     1       7.639  29.044  56.105  1.00  0.00    -0.325 N 
HETATM    9  H   UNL     1       8.413  29.599  55.759  1.00  0.00     0.169 HD
HETATM   10  O   UNL     1       6.007  28.878  57.742  1.00  0.00    -0.271 OA
BRANCH   8  11
HETATM   11  C   UNL     1       7.339  27.916  55.300  1.00  0.00     0.036 A 
HETATM   12  C   UNL     1       7.413  26.592  55.740  1.00  0.00     0.059 A 
HETATM   13  C   UNL     1       7.176  25.496  54.882  1.00  0.00     0.041 A 
HETATM   14  N   UNL     1       7.341  24.212  55.429  1.00  0.00    -0.355 N 
HETATM   15  C   UNL     1       6.878  25.754  53.542  1.00  0.00    -0.031 A 
HETATM   16  C   UNL     1       7.619  22.938  54.901  1.00  0.00     0.039 A 
HETATM   17  H   UNL     1       7.237  24.200  56.438  1.00  0.00     0.166 HD
HETATM   18  C   UNL     1       7.877  22.660  53.551  1.00  0.00    -0.031 A 
HETATM   19  C   UNL     1       7.678  21.869  55.822  1.00  0.00     0.030 A 
HETATM   20  C   UNL     1       8.234  21.347  53.170  1.00  0.00     0.009 A 
HETATM   21  C   UNL     1       7.843  23.707  52.466  1.00  0.00     0.045 C 
HETATM   22  C   UNL     1       8.299  20.313  54.100  1.00  0.00     0.001 A 
HETATM   23  C   UNL     1       8.011  20.572  55.429  1.00  0.00     0.002 A 
HETATM   24  C   UNL     1       6.641  24.640  52.557  1.00  0.00     0.045 C 
HETATM   25  C   UNL     1       6.763  27.084  53.102  1.00  0.00     0.012 A 
HETATM   26  C   UNL     1       6.990  28.153  53.972  1.00  0.00     0.030 A 
ENDBRANCH   8  11
ENDBRANCH   1   7
BRANCH   2  27
HETATM   27  C   UNL     1       5.304  31.703  58.163  1.00  0.00     0.277 C 
BRANCH  27  28
HETATM   28  C   UNL     1       4.550  32.919  58.629  1.00  0.00     0.006 A 
HETATM   29  C   UNL     1       3.688  32.818  59.724  1.00  0.00     0.124 A 
HETATM   30  F   UNL     1       3.523  31.622  60.311  1.00  0.00    -0.206 F 
HETATM   31  C   UNL     1       2.967  33.912  60.188  1.00  0.00     0.043 A 
HETATM   32  C   UNL     1       3.102  35.139  59.545  1.00  0.00     0.003 A 
HETATM   33  C   UNL     1       3.955  35.262  58.445  1.00  0.00     0.001 A 
HETATM   34  C   UNL     1       4.680  34.158  57.989  1.00  0.00     0.012 A 
ENDBRANCH  27  28
ENDBRANCH   2  27
BRANCH   5  35
HETATM   35  S   UNL     1       8.746  30.824  61.963  1.00  0.00    -0.084 SA
BRANCH  35  36
HETATM   36  C   UNL     1       7.590  31.841  62.847  1.00  0.00     0.188 A 
HETATM   37  N   UNL     1       6.281  31.549  62.749  1.00  0.00    -0.235 NA
HETATM   38  C   UNL     1       5.447  32.344  63.453  1.00  0.00     0.121 A 
HETATM   39  C   UNL     1       5.875  33.371  64.261  1.00  0.00     0.038 A 
HETATM   40  C   UNL     1       7.235  33.557  64.310  1.00  0.00     0.121 A 
HETATM   41  N   UNL     1       8.110  32.801  63.622  1.00  0.00    -0.235 NA
ENDBRANCH  35  36
ENDBRANCH   5  35
TORSDOF 6
ENDMDL
MODEL 2
REMARK VINA RESULT:     -11.6      1.810      2.295
REMARK  6 active torsions:
REMARK  status: ('A' for Active; 'I' for Inactive)
REMARK    1  A    between atoms: C_11  and  N_12 
REMARK       I    between atoms: N_12  and  C_13 
REMARK    2  A    between atoms: C_13  and  C_14 
REMARK    3  A    between atoms: N_15  and  C_17 
REMARK    4  A    between atoms: C_17  and  C_18 
REMARK    5  A    between atoms: C_26  and  S_27 
REMARK    6  A    between atoms: S_27  and  C_28 
ROOT
HETATM    1  C   UNL     1       7.904  30.272  57.802  1.00  0.00     0.281 C 
HETATM    2  N   UNL     1       6.688  31.219  58.067  1.00  0.00    -0.053 N 
HETATM    3  H   UNL     1       6.815  32.026  57.438  1.00  0.00     0.281 HD
HETATM    4  C   UNL     1       6.822  31.727  59.489  1.00  0.00     0.252 C 
HETATM    5  C   UNL     1       8.315  31.653  59.759  1.00  0.00     0.083 C 
HETATM    6  C   UNL     1       8.686  30.322  59.121  1.00  0.00     0.060 C 
ENDROOT
BRANCH   1   7
HETATM    7  C   UNL     1       7.589  28.825  57.341  1.00  0.00     0.253 C 
HETATM    8  N   UNL     1       7.258  28.696  56.001  1.00  0.00    -0.325 N 
HETATM    9  H   UNL     1       7.162  29.527  55.430  1.00  0.00     0.169 HD
HETATM   10  O   UNL     1       7.604  27.902  58.152  1.00  0.00    -0.271 OA
BRANCH   8  11
HETATM   11  C   UNL     1       7.084  27.484  55.285  1.00  0.00     0.036 A 
HETATM   12  C   UNL     1       7.277  26.213  55.829  1.00  0.00     0.059 A 
HETATM   13  C   UNL     1       7.165  25.035  55.058  1.00  0.00     0.041 A 
HETATM   14  N   UNL     1       7.443  23.820  55.707  1.00  0.00    -0.355 N 
HETATM   15  C   UNL     1       6.871  25.158  53.698  1.00  0.00    -0.031 A 
HETATM   16  C   UNL     1       7.854  22.542  55.285  1.00  0.00     0.039 A 
HETATM   17  H   UNL     1       7.320  23.876  56.712  1.00  0.00     0.166 HD
HETATM   18  C   UNL     1       8.165  22.187  53.964  1.00  0.00    -0.031 A 
HETATM   19  C   UNL     1       7.998  21.559  56.289  1.00  0.00     0.030 A 
HETATM   20  C   UNL     1       8.656  20.890  53.694  1.00  0.00     0.009 A 
HETATM   21  C   UNL     1       8.052  23.138  52.800  1.00  0.00     0.045 C 
HETATM   22  C   UNL     1       8.802  19.942  54.703  1.00  0.00     0.001 A 
HETATM   23  C   UNL     1       8.463  20.274  56.004  1.00  0.00     0.002 A 
HETATM   24  C   UNL     1       6.764  23.953  52.802  1.00  0.00     0.045 C 
HETATM   25  C   UNL     1       6.636  26.432  53.152  1.00  0.00     0.012 A 
HETATM   26  C   UNL     1       6.741  27.582  53.937  1.00  0.00     0.030 A 
ENDBRANCH   8  11
ENDBRANCH   1   7
BRANCH   2  27
HETATM   27  C   UNL     1       5.294  30.725  57.740  1.00  0.00     0.277 C 
BRANCH  27  28
HETATM   28  C   UNL     1       4.812  31.174  56.388  1.00  0.00     0.006 A 
HETATM   29  C   UNL     1       4.170  30.260  55.547  1.00  0.00     0.124 A 
HETATM   30  F   UNL     1       4.035  28.989  55.953  1.00  0.00    -0.206 F 
HETATM   31  C   UNL     1       3.712  30.627  54.287  1.00  0.00     0.043 A 
HETATM   32  C   UNL     1       3.899  31.935  53.847  1.00  0.00     0.003 A 
HETATM   33  C   UNL     1       4.542  32.863  54.670  1.00  0.00     0.001 A 
HETATM   34  C   UNL     1       4.995  32.488  55.937  1.00  0.00     0.012 A 
ENDBRANCH  27  28
ENDBRANCH   2  27
BRANCH   5  35
HETATM   35  S   UNL     1       8.745  31.640  61.523  1.00  0.00    -0.084 SA
BRANCH  35  36
HETATM   36  C   UNL     1       7.252  32.300  62.223  1.00  0.00     0.188 A 
HETATM   37  N   UNL     1       6.364  31.441  62.751  1.00  0.00    -0.235 NA
HETATM   38  C   UNL     1       5.253  31.997  63.283  1.00  0.00     0.121 A 
HETATM   39  C   UNL     1       5.030  33.353  63.334  1.00  0.00     0.038 A 
HETATM   40  C   UNL     1       6.021  34.136  62.793  1.00  0.00     0.121 A 
HETATM   41  N   UNL     1       7.142  33.634  62.243  1.00  0.00    -0.235 NA
ENDBRANCH  35  36
ENDBRANCH   5  35
TORSDOF 6
ENDMDL
MODEL 3
REMARK VINA RESULT:     -11.5      5.211      9.442
REMARK  6 active torsions:
REMARK  status: ('A' for Active; 'I' for Inactive)
REMARK    1  A    between atoms: C_11  and  N_12 
REMARK       I    between atoms: N_12  and  C_13 
REMARK    2  A    between atoms: C_13  and  C_14 
REMARK    3  A    between atoms: N_15  and  C_17 
REMARK    4  A    between atoms: C_17  and  C_18 
REMARK    5  A    between atoms: C_26  and  S_27 
REMARK    6  A    between atoms: S_27  and  C_28 
ROOT
HETATM    1  C   UNL     1       5.377  26.055  55.284  1.00  0.00     0.281 C 
HETATM    2  N   UNL     1       6.886  25.751  55.561  1.00  0.00    -0.053 N 
HETATM    3  H   UNL     1       6.899  24.973  56.236  1.00  0.00     0.281 HD
HETATM    4  C   UNL     1       7.462  26.968  56.258  1.00  0.00     0.252 C 
HETATM    5  C   UNL     1       6.260  27.594  56.944  1.00  0.00     0.083 C 
HETATM    6  C   UNL     1       5.181  27.455  55.879  1.00  0.00     0.060 C 
ENDROOT
BRANCH   1   7
HETATM    7  C   UNL     1       4.890  25.950  53.814  1.00  0.00     0.253 C 
HETATM    8  N   UNL     1       4.837  27.154  53.128  1.00  0.00    -0.325 N 
HETATM    9  H   UNL     1       5.032  28.017  53.620  1.00  0.00     0.169 HD
HETATM   10  O   UNL     1       4.547  24.865  53.353  1.00  0.00    -0.271 OA
BRANCH   8  11
HETATM   11  C   UNL     1       4.586  27.328  51.743  1.00  0.00     0.036 A 
HETATM   12  C   UNL     1       3.683  28.255  51.217  1.00  0.00     0.059 A 
HETATM   13  C   UNL     1       3.410  28.343  49.834  1.00  0.00     0.041 A 
HETATM   14  N   UNL     1       2.436  29.274  49.435  1.00  0.00    -0.355 N 
HETATM   15  C   UNL     1       4.057  27.455  48.972  1.00  0.00    -0.031 A 
HETATM   16  C   UNL     1       1.588  29.405  48.320  1.00  0.00     0.039 A 
HETATM   17  H   UNL     1       2.315  30.026  50.106  1.00  0.00     0.166 HD
HETATM   18  C   UNL     1       1.487  28.484  47.268  1.00  0.00    -0.031 A 
HETATM   19  C   UNL     1       0.748  30.541  48.293  1.00  0.00     0.030 A 
HETATM   20  C   UNL     1       0.524  28.694  46.255  1.00  0.00     0.009 A 
HETATM   21  C   UNL     1       2.326  27.235  47.173  1.00  0.00     0.045 C 
HETATM   22  C   UNL     1      -0.302  29.814  46.257  1.00  0.00     0.001 A 
HETATM   23  C   UNL     1      -0.184  30.746  47.275  1.00  0.00     0.002 A 
HETATM   24  C   UNL     1       3.799  27.466  47.489  1.00  0.00     0.045 C 
HETATM   25  C   UNL     1       4.998  26.547  49.490  1.00  0.00     0.012 A 
HETATM   26  C   UNL     1       5.260  26.486  50.861  1.00  0.00     0.030 A 
ENDBRANCH   8  11
ENDBRANCH   1   7
BRANCH   2  27
HETATM   27  C   UNL     1       7.750  25.253  54.421  1.00  0.00     0.277 C 
BRANCH  27  28
HETATM   28  C   UNL     1       7.812  23.752  54.342  1.00  0.00     0.006 A 
HETATM   29  C   UNL     1       7.869  23.129  53.092  1.00  0.00     0.124 A 
HETATM   30  F   UNL     1       7.826  23.889  51.988  1.00  0.00    -0.206 F 
HETATM   31  C   UNL     1       7.922  21.746  52.969  1.00  0.00     0.043 A 
HETATM   32  C   UNL     1       7.916  20.958  54.117  1.00  0.00     0.003 A 
HETATM   33  C   UNL     1       7.855  21.560  55.377  1.00  0.00     0.001 A 
HETATM   34  C   UNL     1       7.806  22.951  55.492  1.00  0.00     0.012 A 
ENDBRANCH  27  28
ENDBRANCH   2  27
BRANCH   5  35
HETATM   35  S   UNL     1       6.487  29.343  57.377  1.00  0.00    -0.084 SA
BRANCH  35  36
HETATM   36  C   UNL     1       8.236  29.514  57.118  1.00  0.00     0.188 A 
HETATM   37  N   UNL     1       8.700  29.461  55.858  1.00  0.00    -0.235 NA
HETATM   38  C   UNL     1      10.035  29.612  55.716  1.00  0.00     0.121 A 
HETATM   39  C   UNL     1      10.890  29.845  56.767  1.00  0.00     0.038 A 
HETATM   40  C   UNL     1      10.300  29.912  58.006  1.00  0.00     0.121 A 
HETATM   41  N   UNL     1       8.978  29.760  58.204  1.00  0.00    -0.235 NA
ENDBRANCH  35  36
ENDBRANCH   5  35
TORSDOF 6
ENDMDL
MODEL 4
REMARK VINA RESULT:     -11.5      4.202     11.299
REMARK  6 active torsions:
REMARK  status: ('A' for Active; 'I' for Inactive)
REMARK    1  A    between atoms: C_11  and  N_12 
REMARK       I    between atoms: N_12  and  C_13 
REMARK    2  A    between atoms: C_13  and  C_14 
REMARK    3  A    between atoms: N_15  and  C_17 
REMARK    4  A    between atoms: C_17  and  C_18 
REMARK    5  A    between atoms: C_26  and  S_27 
REMARK    6  A    between atoms: S_27  and  C_28 
ROOT
HETATM    1  C   UNL     1       6.432  27.877  52.953  1.00  0.00     0.281 C 
HETATM    2  N   UNL     1       5.771  26.552  52.450  1.00  0.00    -0.053 N 
HETATM    3  H   UNL     1       6.484  26.081  51.874  1.00  0.00     0.281 HD
HETATM    4  C   UNL     1       4.632  26.946  51.531  1.00  0.00     0.252 C 
HETATM    5  C   UNL     1       5.049  28.308  51.002  1.00  0.00     0.083 C 
HETATM    6  C   UNL     1       5.617  28.970  52.249  1.00  0.00     0.060 C 
ENDROOT
BRANCH   1   7
HETATM    7  C   UNL     1       6.523  28.087  54.488  1.00  0.00     0.253 C 
HETATM    8  N   UNL     1       7.670  28.733  54.923  1.00  0.00    -0.325 N 
HETATM    9  H   UNL     1       8.400  28.956  54.257  1.00  0.00     0.169 HD
HETATM   10  O   UNL     1       5.639  27.656  55.224  1.00  0.00    -0.271 OA
BRANCH   8  11
HETATM   11  C   UNL     1       7.935  29.194  56.238  1.00  0.00     0.036 A 
HETATM   12  C   UNL     1       6.992  29.816  57.059  1.00  0.00     0.059 A 
HETATM   13  C   UNL     1       7.320  30.326  58.335  1.00  0.00     0.041 A 
HETATM   14  N   UNL     1       6.298  30.985  59.039  1.00  0.00    -0.355 N 
HETATM   15  C   UNL     1       8.642  30.218  58.774  1.00  0.00    -0.031 A 
HETATM   16  C   UNL     1       6.263  31.951  60.062  1.00  0.00     0.039 A 
HETATM   17  H   UNL     1       5.371  30.699  58.743  1.00  0.00     0.166 HD
HETATM   18  C   UNL     1       7.385  32.579  60.621  1.00  0.00    -0.031 A 
HETATM   19  C   UNL     1       4.985  32.339  60.523  1.00  0.00     0.030 A 
HETATM   20  C   UNL     1       7.200  33.602  61.578  1.00  0.00     0.009 A 
HETATM   21  C   UNL     1       8.803  32.256  60.222  1.00  0.00     0.045 C 
HETATM   22  C   UNL     1       5.930  33.976  62.007  1.00  0.00     0.001 A 
HETATM   23  C   UNL     1       4.818  33.337  61.484  1.00  0.00     0.002 A 
HETATM   24  C   UNL     1       9.078  30.761  60.108  1.00  0.00     0.045 C 
HETATM   25  C   UNL     1       9.587  29.556  57.969  1.00  0.00     0.012 A 
HETATM   26  C   UNL     1       9.236  29.050  56.715  1.00  0.00     0.030 A 
ENDBRANCH   8  11
ENDBRANCH   1   7
BRANCH   2  27
HETATM   27  C   UNL     1       5.379  25.501  53.468  1.00  0.00     0.277 C 
BRANCH  27  28
HETATM   28  C   UNL     1       6.452  24.472  53.694  1.00  0.00     0.006 A 
HETATM   29  C   UNL     1       6.738  24.049  54.995  1.00  0.00     0.124 A 
HETATM   30  F   UNL     1       6.072  24.604  56.019  1.00  0.00    -0.206 F 
HETATM   31  C   UNL     1       7.724  23.103  55.255  1.00  0.00     0.043 A 
HETATM   32  C   UNL     1       8.448  22.566  54.194  1.00  0.00     0.003 A 
HETATM   33  C   UNL     1       8.181  22.977  52.886  1.00  0.00     0.001 A 
HETATM   34  C   UNL     1       7.186  23.925  52.634  1.00  0.00     0.012 A 
ENDBRANCH  27  28
ENDBRANCH   2  27
BRANCH   5  35
HETATM   35  S   UNL     1       3.674  29.295  50.343  1.00  0.00    -0.084 SA
BRANCH  35  36
HETATM   36  C   UNL     1       3.073  28.203  49.078  1.00  0.00     0.188 A 
HETATM   37  N   UNL     1       1.746  28.007  48.985  1.00  0.00    -0.235 NA
HETATM   38  C   UNL     1       1.342  27.179  47.997  1.00  0.00     0.121 A 
HETATM   39  C   UNL     1       2.201  26.590  47.099  1.00  0.00     0.038 A 
HETATM   40  C   UNL     1       3.531  26.888  47.269  1.00  0.00     0.121 A 
HETATM   41  N   UNL     1       3.988  27.697  48.242  1.00  0.00    -0.235 NA
ENDBRANCH  35  36
ENDBRANCH   5  35
TORSDOF 6
ENDMDL
MODEL 5
REMARK VINA RESULT:     -11.4      2.673      4.303
REMARK  6 active torsions:
REMARK  status: ('A' for Active; 'I' for Inactive)
REMARK    1  A    between atoms: C_11  and  N_12 
REMARK       I    between atoms: N_12  and  C_13 
REMARK    2  A    between atoms: C_13  and  C_14 
REMARK    3  A    between atoms: N_15  and  C_17 
REMARK    4  A    between atoms: C_17  and  C_18 
REMARK    5  A    between atoms: C_26  and  S_27 
REMARK    6  A    between atoms: S_27  and  C_28 
ROOT
HETATM    1  C   UNL     1       4.326  30.986  57.934  1.00  0.00     0.281 C 
HETATM    2  N   UNL     1       5.409  31.628  58.861  1.00  0.00    -0.053 N 
HETATM    3  H   UNL     1       5.210  31.282  59.811  1.00  0.00     0.281 HD
HETATM    4  C   UNL     1       5.161  33.124  58.862  1.00  0.00     0.252 C 
HETATM    5  C   UNL     1       3.679  33.245  58.554  1.00  0.00     0.083 C 
HETATM    6  C   UNL     1       3.494  32.190  57.472  1.00  0.00     0.060 C 
ENDROOT
BRANCH   1   7
HETATM    7  C   UNL     1       4.828  30.112  56.755  1.00  0.00     0.253 C 
HETATM    8  N   UNL     1       4.597  28.752  56.894  1.00  0.00    -0.325 N 
HETATM    9  H   UNL     1       4.200  28.400  57.757  1.00  0.00     0.169 HD
HETATM   10  O   UNL     1       5.420  30.630  55.811  1.00  0.00    -0.271 OA
BRANCH   8  11
HETATM   11  C   UNL     1       4.802  27.753  55.908  1.00  0.00     0.036 A 
HETATM   12  C   UNL     1       5.396  26.513  56.156  1.00  0.00     0.059 A 
HETATM   13  C   UNL     1       5.648  25.577  55.129  1.00  0.00     0.041 A 
HETATM   14  N   UNL     1       6.306  24.391  55.496  1.00  0.00    -0.355 N 
HETATM   15  C   UNL     1       5.308  25.921  53.819  1.00  0.00    -0.031 A 
HETATM   16  C   UNL     1       7.092  23.442  54.816  1.00  0.00     0.039 A 
HETATM   17  H   UNL     1       6.189  24.166  56.478  1.00  0.00     0.166 HD
HETATM   18  C   UNL     1       7.477  23.525  53.470  1.00  0.00    -0.031 A 
HETATM   19  C   UNL     1       7.555  22.344  55.574  1.00  0.00     0.030 A 
HETATM   20  C   UNL     1       8.347  22.548  52.938  1.00  0.00     0.009 A 
HETATM   21  C   UNL     1       7.050  24.642  52.551  1.00  0.00     0.045 C 
HETATM   22  C   UNL     1       8.802  21.481  53.709  1.00  0.00     0.001 A 
HETATM   23  C   UNL     1       8.397  21.373  55.029  1.00  0.00     0.002 A 
HETATM   24  C   UNL     1       5.571  24.991  52.664  1.00  0.00     0.045 C 
HETATM   25  C   UNL     1       4.673  27.151  53.568  1.00  0.00     0.012 A 
HETATM   26  C   UNL     1       4.423  28.056  54.602  1.00  0.00     0.030 A 
ENDBRANCH   8  11
ENDBRANCH   1   7
BRANCH   2  27
HETATM   27  C   UNL     1       6.863  31.265  58.643  1.00  0.00     0.277 C 
BRANCH  27  28
HETATM   28  C   UNL     1       7.718  31.505  59.858  1.00  0.00     0.006 A 
HETATM   29  C   UNL     1       9.072  31.810  59.698  1.00  0.00     0.124 A 
HETATM   30  F   UNL     1       9.588  31.842  58.460  1.00  0.00    -0.206 F 
HETATM   31  C   UNL     1       9.903  32.035  60.790  1.00  0.00     0.043 A 
HETATM   32  C   UNL     1       9.376  31.951  62.076  1.00  0.00     0.003 A 
HETATM   33  C   UNL     1       8.025  31.644  62.259  1.00  0.00     0.001 A 
HETATM   34  C   UNL     1       7.196  31.424  61.156  1.00  0.00     0.012 A 
ENDBRANCH  27  28
ENDBRANCH   2  27
BRANCH   5  35
HETATM   35  S   UNL     1       3.188  34.876  57.924  1.00  0.00    -0.084 SA
BRANCH  35  36
HETATM   36  C   UNL     1       3.427  35.867  59.378  1.00  0.00     0.188 A 
HETATM   37  N   UNL     1       4.090  37.030  59.254  1.00  0.00    -0.235 NA
HETATM   38  C   UNL     1       4.230  37.750  60.387  1.00  0.00     0.121 A 
HETATM   39  C   UNL     1       3.708  37.370  61.601  1.00  0.00     0.038 A 
HETATM   40  C   UNL     1       3.021  36.180  61.603  1.00  0.00     0.121 A 
HETATM   41  N   UNL     1       2.860  35.419  60.505  1.00  0.00    -0.235 NA
ENDBRANCH  35  36
ENDBRANCH   5  35
TORSDOF 6
ENDMDL
MODEL 6
REMARK VINA RESULT:     -11.3      2.670     10.685
REMARK  6 active torsions:
REMARK  status: ('A' for Active; 'I' for Inactive)
REMARK    1  A    between atoms: C_11  and  N_12 
REMARK       I    between atoms: N_12  and  C_13 
REMARK    2  A    between atoms: C_13  and  C_14 
REMARK    3  A    between atoms: N_15  and  C_17 
REMARK    4  A    between atoms: C_17  and  C_18 
REMARK    5  A    between atoms: C_26  and  S_27 
REMARK    6  A    between atoms: S_27  and  C_28 
ROOT
HETATM    1  C   UNL     1       6.116  29.683  55.805  1.00  0.00     0.281 C 
HETATM    2  N   UNL     1       7.322  28.699  55.948  1.00  0.00    -0.053 N 
HETATM    3  H   UNL     1       8.110  29.143  55.454  1.00  0.00     0.281 HD
HETATM    4  C   UNL     1       6.960  27.440  55.184  1.00  0.00     0.252 C 
HETATM    5  C   UNL     1       5.977  27.926  54.133  1.00  0.00     0.083 C 
HETATM    6  C   UNL     1       5.126  28.908  54.925  1.00  0.00     0.060 C 
ENDROOT
BRANCH   1   7
HETATM    7  C   UNL     1       5.472  30.213  57.114  1.00  0.00     0.253 C 
HETATM    8  N   UNL     1       5.938  31.448  57.538  1.00  0.00    -0.325 N 
HETATM    9  H   UNL     1       6.701  31.890  57.040  1.00  0.00     0.169 HD
HETATM   10  O   UNL     1       4.647  29.530  57.716  1.00  0.00    -0.271 OA
BRANCH   8  11
HETATM   11  C   UNL     1       5.416  32.231  58.598  1.00  0.00     0.036 A 
HETATM   12  C   UNL     1       6.087  32.480  59.798  1.00  0.00     0.059 A 
HETATM   13  C   UNL     1       5.499  33.205  60.857  1.00  0.00     0.041 A 
HETATM   14  N   UNL     1       6.253  33.336  62.036  1.00  0.00    -0.355 N 
HETATM   15  C   UNL     1       4.190  33.668  60.698  1.00  0.00    -0.031 A 
HETATM   16  C   UNL     1       5.945  33.571  63.389  1.00  0.00     0.039 A 
HETATM   17  H   UNL     1       7.249  33.238  61.876  1.00  0.00     0.166 HD
HETATM   18  C   UNL     1       4.650  33.682  63.916  1.00  0.00    -0.031 A 
HETATM   19  C   UNL     1       7.036  33.661  64.280  1.00  0.00     0.030 A 
HETATM   20  C   UNL     1       4.482  33.825  65.312  1.00  0.00     0.009 A 
HETATM   21  C   UNL     1       3.401  33.607  63.076  1.00  0.00     0.045 C 
HETATM   22  C   UNL     1       5.574  33.898  66.173  1.00  0.00     0.001 A 
HETATM   23  C   UNL     1       6.856  33.825  65.655  1.00  0.00     0.002 A 
HETATM   24  C   UNL     1       3.482  34.423  61.791  1.00  0.00     0.045 C 
HETATM   25  C   UNL     1       3.524  33.456  59.478  1.00  0.00     0.012 A 
HETATM   26  C   UNL     1       4.131  32.746  58.440  1.00  0.00     0.030 A 
ENDBRANCH   8  11
ENDBRANCH   1   7
BRANCH   2  27
HETATM   27  C   UNL     1       7.875  28.419  57.329  1.00  0.00     0.277 C 
BRANCH  27  28
HETATM   28  C   UNL     1       8.795  29.501  57.826  1.00  0.00     0.006 A 
HETATM   29  C   UNL     1       9.872  29.908  57.033  1.00  0.00     0.124 A 
HETATM   30  F   UNL     1      10.082  29.293  55.860  1.00  0.00    -0.206 F 
HETATM   31  C   UNL     1      10.751  30.900  57.451  1.00  0.00     0.043 A 
HETATM   32  C   UNL     1      10.559  31.502  58.692  1.00  0.00     0.003 A 
HETATM   33  C   UNL     1       9.492  31.107  59.503  1.00  0.00     0.001 A 
HETATM   34  C   UNL     1       8.610  30.112  59.073  1.00  0.00     0.012 A 
ENDBRANCH  27  28
ENDBRANCH   2  27
BRANCH   5  35
HETATM   35  S   UNL     1       4.931  26.613  53.439  1.00  0.00    -0.084 SA
BRANCH  35  36
HETATM   36  C   UNL     1       6.138  25.331  53.207  1.00  0.00     0.188 A 
HETATM   37  N   UNL     1       7.049  25.484  52.231  1.00  0.00    -0.235 NA
HETATM   38  C   UNL     1       7.952  24.487  52.109  1.00  0.00     0.121 A 
HETATM   39  C   UNL     1       7.992  23.390  52.937  1.00  0.00     0.038 A 
HETATM   40  C   UNL     1       7.033  23.355  53.920  1.00  0.00     0.121 A 
HETATM   41  N   UNL     1       6.105  24.316  54.080  1.00  0.00    -0.235 NA
ENDBRANCH  35  36
ENDBRANCH   5  35
TORSDOF 6
ENDMDL
MODEL 7
REMARK VINA RESULT:     -11.1      3.543     10.580
REMARK  6 active torsions:
REMARK  status: ('A' for Active; 'I' for Inactive)
REMARK    1  A    between atoms: C_11  and  N_12 
REMARK       I    between atoms: N_12  and  C_13 
REMARK    2  A    between atoms: C_13  and  C_14 
REMARK    3  A    between atoms: N_15  and  C_17 
REMARK    4  A    between atoms: C_17  and  C_18 
REMARK    5  A    between atoms: C_26  and  S_27 
REMARK    6  A    between atoms: S_27  and  C_28 
ROOT
HETATM    1  C   UNL     1       5.694  26.412  54.137  1.00  0.00     0.281 C 
HETATM    2  N   UNL     1       5.363  26.371  52.609  1.00  0.00    -0.053 N 
HETATM    3  H   UNL     1       4.403  26.004  52.537  1.00  0.00     0.281 HD
HETATM    4  C   UNL     1       6.288  25.346  51.983  1.00  0.00     0.252 C 
HETATM    5  C   UNL     1       6.605  24.398  53.127  1.00  0.00     0.083 C 
HETATM    6  C   UNL     1       6.801  25.361  54.289  1.00  0.00     0.060 C 
ENDROOT
BRANCH   1   7
HETATM    7  C   UNL     1       6.079  27.787  54.743  1.00  0.00     0.253 C 
HETATM    8  N   UNL     1       5.100  28.376  55.529  1.00  0.00    -0.325 N 
HETATM    9  H   UNL     1       4.190  27.938  55.601  1.00  0.00     0.169 HD
HETATM   10  O   UNL     1       7.167  28.294  54.482  1.00  0.00    -0.271 OA
BRANCH   8  11
HETATM   11  C   UNL     1       5.242  29.540  56.327  1.00  0.00     0.036 A 
HETATM   12  C   UNL     1       6.207  29.699  57.323  1.00  0.00     0.059 A 
HETATM   13  C   UNL     1       6.265  30.846  58.145  1.00  0.00     0.041 A 
HETATM   14  N   UNL     1       7.245  30.860  59.152  1.00  0.00    -0.355 N 
HETATM   15  C   UNL     1       5.303  31.843  57.960  1.00  0.00    -0.031 A 
HETATM   16  C   UNL     1       7.393  31.528  60.381  1.00  0.00     0.039 A 
HETATM   17  H   UNL     1       8.026  30.247  58.946  1.00  0.00     0.166 HD
HETATM   18  C   UNL     1       6.443  32.385  60.956  1.00  0.00    -0.031 A 
HETATM   19  C   UNL     1       8.581  31.274  61.102  1.00  0.00     0.030 A 
HETATM   20  C   UNL     1       6.681  32.918  62.243  1.00  0.00     0.009 A 
HETATM   21  C   UNL     1       5.137  32.743  60.293  1.00  0.00     0.045 C 
HETATM   22  C   UNL     1       7.854  32.641  62.939  1.00  0.00     0.001 A 
HETATM   23  C   UNL     1       8.812  31.824  62.363  1.00  0.00     0.002 A 
HETATM   24  C   UNL     1       5.278  33.083  58.814  1.00  0.00     0.045 C 
HETATM   25  C   UNL     1       4.353  31.707  56.932  1.00  0.00     0.012 A 
HETATM   26  C   UNL     1       4.324  30.569  56.124  1.00  0.00     0.030 A 
ENDBRANCH   8  11
ENDBRANCH   1   7
BRANCH   2  27
HETATM   27  C   UNL     1       5.310  27.674  51.839  1.00  0.00     0.277 C 
BRANCH  27  28
HETATM   28  C   UNL     1       5.084  27.478  50.365  1.00  0.00     0.006 A 
HETATM   29  C   UNL     1       5.530  28.449  49.464  1.00  0.00     0.124 A 
HETATM   30  F   UNL     1       6.116  29.557  49.943  1.00  0.00    -0.206 F 
HETATM   31  C   UNL     1       5.340  28.315  48.094  1.00  0.00     0.043 A 
HETATM   32  C   UNL     1       4.687  27.187  47.604  1.00  0.00     0.003 A 
HETATM   33  C   UNL     1       4.229  26.206  48.487  1.00  0.00     0.001 A 
HETATM   34  C   UNL     1       4.428  26.347  49.862  1.00  0.00     0.012 A 
ENDBRANCH  27  28
ENDBRANCH   2  27
BRANCH   5  35
HETATM   35  S   UNL     1       8.109  23.413  52.873  1.00  0.00    -0.084 SA
BRANCH  35  36
HETATM   36  C   UNL     1       8.101  22.429  54.351  1.00  0.00     0.188 A 
HETATM   37  N   UNL     1       7.770  21.130  54.249  1.00  0.00    -0.235 NA
HETATM   38  C   UNL     1       7.795  20.425  55.401  1.00  0.00     0.121 A 
HETATM   39  C   UNL     1       8.169  20.958  56.612  1.00  0.00     0.038 A 
HETATM   40  C   UNL     1       8.520  22.286  56.591  1.00  0.00     0.121 A 
HETATM   41  N   UNL     1       8.503  23.037  55.474  1.00  0.00    -0.235 NA
ENDBRANCH  35  36
ENDBRANCH   5  35
TORSDOF 6
ENDMDL
MODEL 8
REMARK VINA RESULT:     -11.0      3.999      6.904
REMARK  6 active torsions:
REMARK  status: ('A' for Active; 'I' for Inactive)
REMARK    1  A    between atoms: C_11  and  N_12 
REMARK       I    between atoms: N_12  and  C_13 
REMARK    2  A    between atoms: C_13  and  C_14 
REMARK    3  A    between atoms: N_15  and  C_17 
REMARK    4  A    between atoms: C_17  and  C_18 
REMARK    5  A    between atoms: C_26  and  S_27 
REMARK    6  A    between atoms: S_27  and  C_28 
ROOT
HETATM    1  C   UNL     1       6.538  34.241  64.209  1.00  0.00     0.281 C 
HETATM    2  N   UNL     1       5.505  35.405  64.051  1.00  0.00    -0.053 N 
HETATM    3  H   UNL     1       6.058  36.274  64.031  1.00  0.00     0.281 HD
HETATM    4  C   UNL     1       4.668  35.429  65.315  1.00  0.00     0.252 C 
HETATM    5  C   UNL     1       5.583  34.824  66.366  1.00  0.00     0.083 C 
HETATM    6  C   UNL     1       6.228  33.677  65.601  1.00  0.00     0.060 C 
ENDROOT
BRANCH   1   7
HETATM    7  C   UNL     1       6.552  33.150  63.105  1.00  0.00     0.253 C 
HETATM    8  N   UNL     1       7.298  33.466  61.980  1.00  0.00    -0.325 N 
HETATM    9  H   UNL     1       7.714  34.386  61.900  1.00  0.00     0.169 HD
HETATM   10  O   UNL     1       5.900  32.119  63.248  1.00  0.00    -0.271 OA
BRANCH   8  11
HETATM   11  C   UNL     1       7.613  32.599  60.903  1.00  0.00     0.036 A 
HETATM   12  C   UNL     1       6.679  32.108  59.988  1.00  0.00     0.059 A 
HETATM   13  C   UNL     1       7.025  31.187  58.975  1.00  0.00     0.041 A 
HETATM   14  N   UNL     1       5.983  30.720  58.155  1.00  0.00    -0.355 N 
HETATM   15  C   UNL     1       8.348  30.742  58.905  1.00  0.00    -0.031 A 
HETATM   16  C   UNL     1       5.780  29.572  57.368  1.00  0.00     0.039 A 
HETATM   17  H   UNL     1       5.195  31.357  58.124  1.00  0.00     0.166 HD
HETATM   18  C   UNL     1       6.667  28.490  57.271  1.00  0.00    -0.031 A 
HETATM   19  C   UNL     1       4.563  29.500  56.655  1.00  0.00     0.030 A 
HETATM   20  C   UNL     1       6.295  27.356  56.515  1.00  0.00     0.009 A 
HETATM   21  C   UNL     1       7.999  28.441  57.976  1.00  0.00     0.045 C 
HETATM   22  C   UNL     1       5.083  27.303  55.832  1.00  0.00     0.001 A 
HETATM   23  C   UNL     1       4.217  28.382  55.894  1.00  0.00     0.002 A 
HETATM   24  C   UNL     1       8.790  29.740  57.873  1.00  0.00     0.045 C 
HETATM   25  C   UNL     1       9.301  31.264  59.798  1.00  0.00     0.012 A 
HETATM   26  C   UNL     1       8.938  32.182  60.784  1.00  0.00     0.030 A 
ENDBRANCH   8  11
ENDBRANCH   1   7
BRANCH   2  27
HETATM   27  C   UNL     1       4.675  35.477  62.786  1.00  0.00     0.277 C 
BRANCH  27  28
HETATM   28  C   UNL     1       5.016  36.663  61.926  1.00  0.00     0.006 A 
HETATM   29  C   UNL     1       4.255  36.929  60.785  1.00  0.00     0.124 A 
HETATM   30  F   UNL     1       3.257  36.092  60.462  1.00  0.00    -0.206 F 
HETATM   31  C   UNL     1       4.534  38.010  59.956  1.00  0.00     0.043 A 
HETATM   32  C   UNL     1       5.602  38.848  60.267  1.00  0.00     0.003 A 
HETATM   33  C   UNL     1       6.380  38.598  61.400  1.00  0.00     0.001 A 
HETATM   34  C   UNL     1       6.089  37.512  62.230  1.00  0.00     0.012 A 
ENDBRANCH  27  28
ENDBRANCH   2  27
BRANCH   5  35
HETATM   35  S   UNL     1       4.710  34.188  67.826  1.00  0.00    -0.084 SA
BRANCH  35  36
HETATM   36  C   UNL     1       6.045  34.126  68.996  1.00  0.00     0.188 A 
HETATM   37  N   UNL     1       7.119  34.904  68.777  1.00  0.00    -0.235 NA
HETATM   38  C   UNL     1       8.097  34.829  69.705  1.00  0.00     0.121 A 
HETATM   39  C   UNL     1       8.018  34.049  70.834  1.00  0.00     0.038 A 
HETATM   40  C   UNL     1       6.860  33.322  70.970  1.00  0.00     0.121 A 
HETATM   41  N   UNL     1       5.859  33.352  70.072  1.00  0.00    -0.235 NA
ENDBRANCH  35  36
ENDBRANCH   5  35
TORSDOF 6
ENDMDL
MODEL 9
REMARK VINA RESULT:     -10.8      1.876      2.368
REMARK  6 active torsions:
REMARK  status: ('A' for Active; 'I' for Inactive)
REMARK    1  A    between atoms: C_11  and  N_12 
REMARK       I    between atoms: N_12  and  C_13 
REMARK    2  A    between atoms: C_13  and  C_14 
REMARK    3  A    between atoms: N_15  and  C_17 
REMARK    4  A    between atoms: C_17  and  C_18 
REMARK    5  A    between atoms: C_26  and  S_27 
REMARK    6  A    between atoms: S_27  and  C_28 
ROOT
HETATM    1  C   UNL     1       7.419  31.577  58.853  1.00  0.00     0.281 C 
HETATM    2  N   UNL     1       6.057  32.337  58.964  1.00  0.00    -0.053 N 
HETATM    3  H   UNL     1       6.256  33.314  58.705  1.00  0.00     0.281 HD
HETATM    4  C   UNL     1       5.662  32.329  60.428  1.00  0.00     0.252 C 
HETATM    5  C   UNL     1       6.989  32.212  61.159  1.00  0.00     0.083 C 
HETATM    6  C   UNL     1       7.731  31.194  60.306  1.00  0.00     0.060 C 
ENDROOT
BRANCH   1   7
HETATM    7  C   UNL     1       7.480  30.367  57.884  1.00  0.00     0.253 C 
HETATM    8  N   UNL     1       6.465  29.436  58.044  1.00  0.00    -0.325 N 
HETATM    9  H   UNL     1       5.807  29.543  58.807  1.00  0.00     0.169 HD
HETATM   10  O   UNL     1       8.403  30.266  57.080  1.00  0.00    -0.271 OA
BRANCH   8  11
HETATM   11  C   UNL     1       6.187  28.332  57.199  1.00  0.00     0.036 A 
HETATM   12  C   UNL     1       6.941  27.157  57.165  1.00  0.00     0.059 A 
HETATM   13  C   UNL     1       6.672  26.112  56.255  1.00  0.00     0.041 A 
HETATM   14  N   UNL     1       7.541  25.007  56.278  1.00  0.00    -0.355 N 
HETATM   15  C   UNL     1       5.625  26.277  55.345  1.00  0.00    -0.031 A 
HETATM   16  C   UNL     1       7.906  24.013  55.351  1.00  0.00     0.039 A 
HETATM   17  H   UNL     1       8.015  24.901  57.169  1.00  0.00     0.166 HD
HETATM   18  C   UNL     1       7.463  23.944  54.022  1.00  0.00    -0.031 A 
HETATM   19  C   UNL     1       8.823  23.036  55.798  1.00  0.00     0.030 A 
HETATM   20  C   UNL     1       7.983  22.944  53.171  1.00  0.00     0.009 A 
HETATM   21  C   UNL     1       6.485  24.921  53.421  1.00  0.00     0.045 C 
HETATM   22  C   UNL     1       8.897  22.000  53.631  1.00  0.00     0.001 A 
HETATM   23  C   UNL     1       9.312  22.040  54.952  1.00  0.00     0.002 A 
HETATM   24  C   UNL     1       5.293  25.223  54.323  1.00  0.00     0.045 C 
HETATM   25  C   UNL     1       4.837  27.440  55.400  1.00  0.00     0.012 A 
HETATM   26  C   UNL     1       5.115  28.456  56.318  1.00  0.00     0.030 A 
ENDBRANCH   8  11
ENDBRANCH   1   7
BRANCH   2  27
HETATM   27  C   UNL     1       4.924  31.943  58.040  1.00  0.00     0.277 C 
BRANCH  27  28
HETATM   28  C   UNL     1       4.719  32.917  56.912  1.00  0.00     0.006 A 
HETATM   29  C   UNL     1       4.053  34.122  57.153  1.00  0.00     0.124 A 
HETATM   30  F   UNL     1       3.575  34.363  58.384  1.00  0.00    -0.206 F 
HETATM   31  C   UNL     1       3.835  35.050  56.142  1.00  0.00     0.043 A 
HETATM   32  C   UNL     1       4.288  34.774  54.854  1.00  0.00     0.003 A 
HETATM   33  C   UNL     1       4.952  33.574  54.590  1.00  0.00     0.001 A 
HETATM   34  C   UNL     1       5.171  32.648  55.613  1.00  0.00     0.012 A 
ENDBRANCH  27  28
ENDBRANCH   2  27
BRANCH   5  35
HETATM   35  S   UNL     1       6.840  31.606  62.865  1.00  0.00    -0.084 SA
BRANCH  35  36
HETATM   36  C   UNL     1       6.007  32.980  63.622  1.00  0.00     0.188 A 
HETATM   37  N   UNL     1       4.979  32.724  64.448  1.00  0.00    -0.235 NA
HETATM   38  C   UNL     1       4.392  33.804  65.008  1.00  0.00     0.121 A 
HETATM   39  C   UNL     1       4.817  35.095  64.801  1.00  0.00     0.038 A 
HETATM   40  C   UNL     1       5.897  35.234  63.964  1.00  0.00     0.121 A 
HETATM   41  N   UNL     1       6.513  34.194  63.373  1.00  0.00    -0.235 NA
ENDBRANCH  35  36
ENDBRANCH   5  35
TORSDOF 6
ENDMDL
MODEL 10
REMARK VINA RESULT:     -10.6      4.576      8.991
REMARK  6 active torsions:
REMARK  status: ('A' for Active; 'I' for Inactive)
REMARK    1  A    between atoms: C_11  and  N_12 
REMARK       I    between atoms: N_12  and  C_13 
REMARK    2  A    between atoms: C_13  and  C_14 
REMARK    3  A    between atoms: N_15  and  C_17 
REMARK    4  A    between atoms: C_17  and  C_18 
REMARK    5  A    between atoms: C_26  and  S_27 
REMARK    6  A    between atoms: S_27  and  C_28 
ROOT
HETATM    1  C   UNL     1       7.394  26.860  55.150  1.00  0.00     0.281 C 
HETATM    2  N   UNL     1       8.038  27.370  56.481  1.00  0.00    -0.053 N 
HETATM    3  H   UNL     1       8.974  27.720  56.227  1.00  0.00     0.281 HD
HETATM    4  C   UNL     1       8.234  26.159  57.371  1.00  0.00     0.252 C 
HETATM    5  C   UNL     1       8.357  25.006  56.391  1.00  0.00     0.083 C 
HETATM    6  C   UNL     1       7.283  25.345  55.367  1.00  0.00     0.060 C 
ENDROOT
BRANCH   1   7
HETATM    7  C   UNL     1       6.053  27.508  54.717  1.00  0.00     0.253 C 
HETATM    8  N   UNL     1       6.088  28.170  53.499  1.00  0.00    -0.325 N 
HETATM    9  H   UNL     1       6.970  28.265  53.010  1.00  0.00     0.169 HD
HETATM   10  O   UNL     1       5.072  27.447  55.454  1.00  0.00    -0.271 OA
BRANCH   8  11
HETATM   11  C   UNL     1       4.981  28.706  52.794  1.00  0.00     0.036 A 
HETATM   12  C   UNL     1       4.302  28.040  51.771  1.00  0.00     0.059 A 
HETATM   13  C   UNL     1       3.250  28.642  51.045  1.00  0.00     0.041 A 
HETATM   14  N   UNL     1       2.688  27.891  49.999  1.00  0.00    -0.355 N 
HETATM   15  C   UNL     1       2.898  29.958  51.355  1.00  0.00    -0.031 A 
HETATM   16  C   UNL     1       1.981  28.204  48.823  1.00  0.00     0.039 A 
HETATM   17  H   UNL     1       2.822  26.893  50.118  1.00  0.00     0.166 HD
HETATM   18  C   UNL     1       1.707  29.501  48.365  1.00  0.00    -0.031 A 
HETATM   19  C   UNL     1       1.555  27.115  48.031  1.00  0.00     0.030 A 
HETATM   20  C   UNL     1       1.068  29.673  47.117  1.00  0.00     0.009 A 
HETATM   21  C   UNL     1       2.102  30.748  49.114  1.00  0.00     0.045 C 
HETATM   22  C   UNL     1       0.669  28.583  46.347  1.00  0.00     0.001 A 
HETATM   23  C   UNL     1       0.905  27.299  46.810  1.00  0.00     0.002 A 
HETATM   24  C   UNL     1       1.808  30.680  50.608  1.00  0.00     0.045 C 
HETATM   25  C   UNL     1       3.551  30.620  52.410  1.00  0.00     0.012 A 
HETATM   26  C   UNL     1       4.580  30.000  53.122  1.00  0.00     0.030 A 
ENDBRANCH   8  11
ENDBRANCH   1   7
BRANCH   2  27
HETATM   27  C   UNL     1       7.399  28.541  57.199  1.00  0.00     0.277 C 
BRANCH  27  28
HETATM   28  C   UNL     1       8.397  29.574  57.645  1.00  0.00     0.006 A 
HETATM   29  C   UNL     1       7.995  30.590  58.516  1.00  0.00     0.124 A 
HETATM   30  F   UNL     1       6.711  30.642  58.902  1.00  0.00    -0.206 F 
HETATM   31  C   UNL     1       8.879  31.569  58.953  1.00  0.00     0.043 A 
HETATM   32  C   UNL     1      10.199  31.542  58.510  1.00  0.00     0.003 A 
HETATM   33  C   UNL     1      10.622  30.537  57.636  1.00  0.00     0.001 A 
HETATM   34  C   UNL     1       9.727  29.554  57.206  1.00  0.00     0.012 A 
ENDBRANCH  27  28
ENDBRANCH   2  27
BRANCH   5  35
HETATM   35  S   UNL     1       8.027  23.377  57.124  1.00  0.00    -0.084 SA
BRANCH  35  36
HETATM   36  C   UNL     1       8.217  22.339  55.695  1.00  0.00     0.188 A 
HETATM   37  N   UNL     1       8.989  22.779  54.687  1.00  0.00    -0.235 NA
HETATM   38  C   UNL     1       9.112  21.944  53.633  1.00  0.00     0.121 A 
HETATM   39  C   UNL     1       8.531  20.699  53.576  1.00  0.00     0.038 A 
HETATM   40  C   UNL     1       7.791  20.340  54.677  1.00  0.00     0.121 A 
HETATM   41  N   UNL     1       7.629  21.137  55.749  1.00  0.00    -0.235 NA
ENDBRANCH  35  36
ENDBRANCH   5  35
TORSDOF 6
ENDMDL
