MODEL 1
REMARK VINA RESULT:      -8.8      0.000      0.000
REMARK  8 active torsions:
REMARK  status: ('A' for Active; 'I' for Inactive)
REMARK    1  A    between atoms: C_2  and  O_3 
REMARK    2  A    between atoms: O_3  and  C_4 
REMARK    3  A    between atoms: C_8  and  C_9 
REMARK       I    between atoms: C_9  and  N_10 
REMARK    4  A    between atoms: N_10  and  C_11 
REMARK    5  A    between atoms: N_22  and  C_23 
REMARK    6  A    between atoms: C_23  and  C_24 
REMARK    7  A    between atoms: C_24  and  C_25 
REMARK    8  A    between atoms: C_25  and  O_26 
ROOT
HETATM    1  C   UNL     1       7.223  23.261  54.581  1.00  0.00     0.102 A 
HETATM    2  C   UNL     1       6.856  24.598  54.490  1.00  0.00     0.113 A 
HETATM    3  C   UNL     1       7.343  25.388  53.401  1.00  0.00     0.002 A 
HETATM    4  C   UNL     1       7.035  26.867  53.541  1.00  0.00     0.138 C 
HETATM    5  C   UNL     1       7.496  27.102  54.981  1.00  0.00     0.161 C 
HETATM    6  C   UNL     1       6.266  26.642  55.752  1.00  0.00     0.155 C 
HETATM    7  C   UNL     1       6.504  26.548  57.275  1.00  0.00     0.072 C 
HETATM    8  N   UNL     1       5.081  27.537  55.352  1.00  0.00    -0.325 N 
HETATM    9  C   UNL     1       4.888  27.905  53.996  1.00  0.00     0.172 C 
HETATM   10  S   UNL     1       3.472  28.334  53.217  1.00  0.00    -0.041 SA
HETATM   11  N   UNL     1       6.021  27.819  53.187  1.00  0.00    -0.357 N 
HETATM   12  O   UNL     1       6.011  25.201  55.428  1.00  0.00    -0.316 OA
HETATM   13  C   UNL     1       8.099  24.822  52.381  1.00  0.00     0.012 A 
HETATM   14  C   UNL     1       8.383  23.457  52.446  1.00  0.00     0.003 A 
HETATM   15  C   UNL     1       7.953  22.685  53.538  1.00  0.00     0.040 A 
HETATM   16  H   UNL     1       5.842  27.996  52.212  1.00  0.00     0.162 HD
ENDROOT
BRANCH   5  17
HETATM   17  C   UNL     1       8.023  28.464  55.425  1.00  0.00     0.233 C 
HETATM   18  N   UNL     1       8.611  28.328  56.685  1.00  0.00    -0.326 N 
HETATM   19  H   UNL     1       8.732  27.386  57.023  1.00  0.00     0.169 HD
HETATM   20  O   UNL     1       7.839  29.514  54.827  1.00  0.00    -0.273 OA
BRANCH  18  21
HETATM   21  C   UNL     1       8.770  29.319  57.668  1.00  0.00     0.040 A 
HETATM   22  C   UNL     1      10.008  29.997  57.734  1.00  0.00    -0.035 A 
HETATM   23  C   UNL     1      11.206  29.654  56.883  1.00  0.00     0.050 C 
HETATM   24  C   UNL     1      10.212  30.939  58.753  1.00  0.00     0.015 A 
HETATM   25  C   UNL     1       9.208  31.235  59.678  1.00  0.00    -0.061 A 
HETATM   26  C   UNL     1       9.454  32.255  60.749  1.00  0.00     0.048 C 
HETATM   27  C   UNL     1       7.971  30.595  59.566  1.00  0.00     0.009 A 
HETATM   28  C   UNL     1       7.759  29.627  58.579  1.00  0.00     0.030 A 
ENDBRANCH  18  21
ENDBRANCH   5  17
BRANCH   8  29
HETATM   29  C   UNL     1       4.330  28.192  56.460  1.00  0.00     0.130 C 
BRANCH  29  30
HETATM   30  C   UNL     1       4.472  29.697  56.747  1.00  0.00     0.046 C 
BRANCH  30  31
HETATM   31  C   UNL     1       3.152  30.442  56.564  1.00  0.00     0.168 C 
BRANCH  31  32
HETATM   32  O   UNL     1       3.145  31.561  57.454  1.00  0.00    -0.396 OA
HETATM   33  C   UNL     1       4.025  31.361  58.553  1.00  0.00     0.201 C 
ENDBRANCH  31  32
ENDBRANCH  30  31
ENDBRANCH  29  30
ENDBRANCH   8  29
BRANCH   1  34
HETATM   34  O   UNL     1       6.946  22.488  55.673  1.00  0.00    -0.349 OA
BRANCH  34  35
HETATM   35  C   UNL     1       8.132  21.844  56.167  1.00  0.00     0.171 C 
HETATM   36  C   UNL     1       7.971  20.332  56.190  1.00  0.00     0.034 C 
ENDBRANCH  34  35
ENDBRANCH   1  34
TORSDOF 8
ENDMDL
MODEL 2
REMARK VINA RESULT:      -8.2      2.388      7.046
REMARK  8 active torsions:
REMARK  status: ('A' for Active; 'I' for Inactive)
REMARK    1  A    between atoms: C_2  and  O_3 
REMARK    2  A    between atoms: O_3  and  C_4 
REMARK    3  A    between atoms: C_8  and  C_9 
REMARK       I    between atoms: C_9  and  N_10 
REMARK    4  A    between atoms: N_10  and  C_11 
REMARK    5  A    between atoms: N_22  and  C_23 
REMARK    6  A    between atoms: C_23  and  C_24 
REMARK    7  A    between atoms: C_24  and  C_25 
REMARK    8  A    between atoms: C_25  and  O_26 
ROOT
HETATM    1  C   UNL     1       3.723  30.375  53.423  1.00  0.00     0.102 A 
HETATM    2  C   UNL     1       4.832  29.694  53.913  1.00  0.00     0.113 A 
HETATM    3  C   UNL     1       5.647  28.939  53.012  1.00  0.00     0.002 A 
HETATM    4  C   UNL     1       6.690  28.086  53.711  1.00  0.00     0.138 C 
HETATM    5  C   UNL     1       5.818  27.412  54.772  1.00  0.00     0.161 C 
HETATM    6  C   UNL     1       5.794  28.490  55.848  1.00  0.00     0.155 C 
HETATM    7  C   UNL     1       4.791  28.193  56.983  1.00  0.00     0.072 C 
HETATM    8  N   UNL     1       7.237  28.729  56.324  1.00  0.00    -0.325 N 
HETATM    9  C   UNL     1       8.300  28.780  55.389  1.00  0.00     0.172 C 
HETATM   10  S   UNL     1       9.775  29.560  55.517  1.00  0.00    -0.041 SA
HETATM   11  N   UNL     1       8.049  28.161  54.164  1.00  0.00    -0.357 N 
HETATM   12  O   UNL     1       5.185  29.730  55.266  1.00  0.00    -0.316 OA
HETATM   13  C   UNL     1       5.408  28.948  51.643  1.00  0.00     0.012 A 
HETATM   14  C   UNL     1       4.343  29.710  51.161  1.00  0.00     0.003 A 
HETATM   15  C   UNL     1       3.506  30.413  52.043  1.00  0.00     0.040 A 
HETATM   16  H   UNL     1       8.781  28.287  53.483  1.00  0.00     0.162 HD
ENDROOT
BRANCH   5  17
HETATM   17  C   UNL     1       6.162  26.023  55.305  1.00  0.00     0.233 C 
HETATM   18  N   UNL     1       7.295  25.555  54.635  1.00  0.00    -0.326 N 
HETATM   19  H   UNL     1       7.777  26.220  54.052  1.00  0.00     0.169 HD
HETATM   20  O   UNL     1       5.477  25.386  56.091  1.00  0.00    -0.273 OA
BRANCH  18  21
HETATM   21  C   UNL     1       7.671  24.219  54.417  1.00  0.00     0.040 A 
HETATM   22  C   UNL     1       7.831  23.783  53.083  1.00  0.00    -0.035 A 
HETATM   23  C   UNL     1       7.523  24.630  51.874  1.00  0.00     0.050 C 
HETATM   24  C   UNL     1       8.137  22.434  52.842  1.00  0.00     0.015 A 
HETATM   25  C   UNL     1       8.313  21.532  53.894  1.00  0.00    -0.061 A 
HETATM   26  C   UNL     1       8.650  20.100  53.603  1.00  0.00     0.048 C 
HETATM   27  C   UNL     1       8.205  21.993  55.209  1.00  0.00     0.009 A 
HETATM   28  C   UNL     1       7.867  23.324  55.470  1.00  0.00     0.030 A 
ENDBRANCH  18  21
ENDBRANCH   5  17
BRANCH   8  29
HETATM   29  C   UNL     1       7.482  28.642  57.792  1.00  0.00     0.130 C 
BRANCH  29  30
HETATM   30  C   UNL     1       7.854  29.886  58.618  1.00  0.00     0.046 C 
BRANCH  30  31
HETATM   31  C   UNL     1       6.923  31.062  58.335  1.00  0.00     0.168 C 
BRANCH  31  32
HETATM   32  O   UNL     1       7.465  32.222  58.973  1.00  0.00    -0.396 OA
HETATM   33  C   UNL     1       7.478  32.083  60.387  1.00  0.00     0.201 C 
ENDBRANCH  31  32
ENDBRANCH  30  31
ENDBRANCH  29  30
ENDBRANCH   8  29
BRANCH   1  34
HETATM   34  O   UNL     1       2.801  30.973  54.235  1.00  0.00    -0.349 OA
BRANCH  34  35
HETATM   35  C   UNL     1       2.975  32.399  54.254  1.00  0.00     0.171 C 
HETATM   36  C   UNL     1       2.211  33.034  55.406  1.00  0.00     0.034 C 
ENDBRANCH  34  35
ENDBRANCH   1  34
TORSDOF 8
ENDMDL
MODEL 3
REMARK VINA RESULT:      -7.1      5.029      7.357
REMARK  8 active torsions:
REMARK  status: ('A' for Active; 'I' for Inactive)
REMARK    1  A    between atoms: C_2  and  O_3 
REMARK    2  A    between atoms: O_3  and  C_4 
REMARK    3  A    between atoms: C_8  and  C_9 
REMARK       I    between atoms: C_9  and  N_10 
REMARK    4  A    between atoms: N_10  and  C_11 
REMARK    5  A    between atoms: N_22  and  C_23 
REMARK    6  A    between atoms: C_23  and  C_24 
REMARK    7  A    between atoms: C_24  and  C_25 
REMARK    8  A    between atoms: C_25  and  O_26 
ROOT
HETATM    1  C   UNL     1       1.805  26.993  47.764  1.00  0.00     0.102 A 
HETATM    2  C   UNL     1       2.683  27.789  48.490  1.00  0.00     0.113 A 
HETATM    3  C   UNL     1       4.051  27.392  48.616  1.00  0.00     0.002 A 
HETATM    4  C   UNL     1       4.838  28.237  49.601  1.00  0.00     0.138 C 
HETATM    5  C   UNL     1       3.878  28.224  50.792  1.00  0.00     0.161 C 
HETATM    6  C   UNL     1       2.922  29.342  50.401  1.00  0.00     0.155 C 
HETATM    7  C   UNL     1       1.682  29.429  51.317  1.00  0.00     0.072 C 
HETATM    8  N   UNL     1       3.724  30.650  50.296  1.00  0.00    -0.325 N 
HETATM    9  C   UNL     1       5.004  30.657  49.687  1.00  0.00     0.172 C 
HETATM   10  S   UNL     1       5.803  31.923  48.939  1.00  0.00    -0.041 SA
HETATM   11  N   UNL     1       5.648  29.421  49.634  1.00  0.00    -0.357 N 
HETATM   12  O   UNL     1       2.272  28.980  49.099  1.00  0.00    -0.316 OA
HETATM   13  C   UNL     1       4.543  26.277  47.949  1.00  0.00     0.012 A 
HETATM   14  C   UNL     1       3.665  25.540  47.153  1.00  0.00     0.003 A 
HETATM   15  C   UNL     1       2.308  25.892  47.064  1.00  0.00     0.040 A 
HETATM   16  H   UNL     1       6.513  29.431  49.118  1.00  0.00     0.162 HD
ENDROOT
BRANCH   5  17
HETATM   17  C   UNL     1       4.400  28.337  52.223  1.00  0.00     0.233 C 
HETATM   18  N   UNL     1       5.577  27.591  52.330  1.00  0.00    -0.326 N 
HETATM   19  H   UNL     1       5.965  27.240  51.469  1.00  0.00     0.169 HD
HETATM   20  O   UNL     1       3.810  28.884  53.142  1.00  0.00    -0.273 OA
BRANCH  18  21
HETATM   21  C   UNL     1       6.117  27.004  53.487  1.00  0.00     0.040 A 
HETATM   22  C   UNL     1       5.791  25.657  53.762  1.00  0.00    -0.035 A 
HETATM   23  C   UNL     1       4.817  24.840  52.949  1.00  0.00     0.050 C 
HETATM   24  C   UNL     1       6.261  25.074  54.948  1.00  0.00     0.015 A 
HETATM   25  C   UNL     1       7.065  25.790  55.839  1.00  0.00    -0.061 A 
HETATM   26  C   UNL     1       7.561  25.134  57.093  1.00  0.00     0.048 C 
HETATM   27  C   UNL     1       7.423  27.103  55.524  1.00  0.00     0.009 A 
HETATM   28  C   UNL     1       6.936  27.714  54.365  1.00  0.00     0.030 A 
ENDBRANCH  18  21
ENDBRANCH   5  17
BRANCH   8  29
HETATM   29  C   UNL     1       3.218  31.812  51.079  1.00  0.00     0.130 C 
BRANCH  29  30
HETATM   30  C   UNL     1       3.904  32.265  52.380  1.00  0.00     0.046 C 
BRANCH  30  31
HETATM   31  C   UNL     1       2.929  32.317  53.553  1.00  0.00     0.168 C 
BRANCH  31  32
HETATM   32  O   UNL     1       3.612  31.849  54.720  1.00  0.00    -0.396 OA
HETATM   33  C   UNL     1       2.700  31.435  55.728  1.00  0.00     0.201 C 
ENDBRANCH  31  32
ENDBRANCH  30  31
ENDBRANCH  29  30
ENDBRANCH   8  29
BRANCH   1  34
HETATM   34  O   UNL     1       0.456  27.206  47.739  1.00  0.00    -0.349 OA
BRANCH  34  35
HETATM   35  C   UNL     1       0.011  27.558  46.419  1.00  0.00     0.171 C 
HETATM   36  C   UNL     1       0.063  29.062  46.200  1.00  0.00     0.034 C 
ENDBRANCH  34  35
ENDBRANCH   1  34
TORSDOF 8
ENDMDL
MODEL 4
REMARK VINA RESULT:      -7.0      5.604      9.194
REMARK  8 active torsions:
REMARK  status: ('A' for Active; 'I' for Inactive)
REMARK    1  A    between atoms: C_2  and  O_3 
REMARK    2  A    between atoms: O_3  and  C_4 
REMARK    3  A    between atoms: C_8  and  C_9 
REMARK       I    between atoms: C_9  and  N_10 
REMARK    4  A    between atoms: N_10  and  C_11 
REMARK    5  A    between atoms: N_22  and  C_23 
REMARK    6  A    between atoms: C_23  and  C_24 
REMARK    7  A    between atoms: C_24  and  C_25 
REMARK    8  A    between atoms: C_25  and  O_26 
ROOT
HETATM    1  C   UNL     1       6.281  33.398  49.383  1.00  0.00     0.102 A 
HETATM    2  C   UNL     1       5.324  32.498  49.837  1.00  0.00     0.113 A 
HETATM    3  C   UNL     1       4.677  32.733  51.090  1.00  0.00     0.002 A 
HETATM    4  C   UNL     1       3.816  31.572  51.554  1.00  0.00     0.138 C 
HETATM    5  C   UNL     1       4.796  30.414  51.352  1.00  0.00     0.161 C 
HETATM    6  C   UNL     1       4.602  30.132  49.869  1.00  0.00     0.155 C 
HETATM    7  C   UNL     1       5.637  29.137  49.300  1.00  0.00     0.072 C 
HETATM    8  N   UNL     1       3.138  29.720  49.642  1.00  0.00    -0.325 N 
HETATM    9  C   UNL     1       2.091  30.407  50.306  1.00  0.00     0.172 C 
HETATM   10  S   UNL     1       0.492  30.579  49.845  1.00  0.00    -0.041 SA
HETATM   11  N   UNL     1       2.465  31.097  51.459  1.00  0.00    -0.357 N 
HETATM   12  O   UNL     1       4.961  31.366  49.098  1.00  0.00    -0.316 OA
HETATM   13  C   UNL     1       4.917  33.891  51.820  1.00  0.00     0.012 A 
HETATM   14  C   UNL     1       5.816  34.825  51.304  1.00  0.00     0.003 A 
HETATM   15  C   UNL     1       6.495  34.579  50.099  1.00  0.00     0.040 A 
HETATM   16  H   UNL     1       1.727  31.650  51.863  1.00  0.00     0.162 HD
ENDROOT
BRANCH   5  17
HETATM   17  C   UNL     1       4.726  29.166  52.228  1.00  0.00     0.233 C 
HETATM   18  N   UNL     1       6.026  28.706  52.457  1.00  0.00    -0.326 N 
HETATM   19  H   UNL     1       6.773  29.314  52.162  1.00  0.00     0.169 HD
HETATM   20  O   UNL     1       3.695  28.599  52.558  1.00  0.00    -0.273 OA
BRANCH  18  21
HETATM   21  C   UNL     1       6.431  27.394  52.754  1.00  0.00     0.040 A 
HETATM   22  C   UNL     1       7.028  27.151  54.011  1.00  0.00    -0.035 A 
HETATM   23  C   UNL     1       7.351  28.230  55.015  1.00  0.00     0.050 C 
HETATM   24  C   UNL     1       7.504  25.864  54.299  1.00  0.00     0.015 A 
HETATM   25  C   UNL     1       7.372  24.820  53.380  1.00  0.00    -0.061 A 
HETATM   26  C   UNL     1       7.882  23.452  53.722  1.00  0.00     0.048 C 
HETATM   27  C   UNL     1       6.731  25.064  52.163  1.00  0.00     0.009 A 
HETATM   28  C   UNL     1       6.280  26.348  51.842  1.00  0.00     0.030 A 
ENDBRANCH  18  21
ENDBRANCH   5  17
BRANCH   8  29
HETATM   29  C   UNL     1       2.906  28.437  48.920  1.00  0.00     0.130 C 
BRANCH  29  30
HETATM   30  C   UNL     1       2.535  28.412  47.426  1.00  0.00     0.046 C 
BRANCH  30  31
HETATM   31  C   UNL     1       1.960  27.064  47.002  1.00  0.00     0.168 C 
BRANCH  31  32
HETATM   32  O   UNL     1       3.052  26.178  46.738  1.00  0.00    -0.396 OA
HETATM   33  C   UNL     1       3.010  25.032  47.578  1.00  0.00     0.201 C 
ENDBRANCH  31  32
ENDBRANCH  30  31
ENDBRANCH  29  30
ENDBRANCH   8  29
BRANCH   1  34
HETATM   34  O   UNL     1       7.064  33.159  48.289  1.00  0.00    -0.349 OA
BRANCH  34  35
HETATM   35  C   UNL     1       6.580  33.873  47.140  1.00  0.00     0.171 C 
HETATM   36  C   UNL     1       7.719  34.266  46.212  1.00  0.00     0.034 C 
ENDBRANCH  34  35
ENDBRANCH   1  34
TORSDOF 8
ENDMDL
MODEL 5
REMARK VINA RESULT:      -6.8      5.576      7.831
REMARK  8 active torsions:
REMARK  status: ('A' for Active; 'I' for Inactive)
REMARK    1  A    between atoms: C_2  and  O_3 
REMARK    2  A    between atoms: O_3  and  C_4 
REMARK    3  A    between atoms: C_8  and  C_9 
REMARK       I    between atoms: C_9  and  N_10 
REMARK    4  A    between atoms: N_10  and  C_11 
REMARK    5  A    between atoms: N_22  and  C_23 
REMARK    6  A    between atoms: C_23  and  C_24 
REMARK    7  A    between atoms: C_24  and  C_25 
REMARK    8  A    between atoms: C_25  and  O_26 
ROOT
HETATM    1  C   UNL     1       1.866  27.053  47.829  1.00  0.00     0.102 A 
HETATM    2  C   UNL     1       2.752  27.857  48.537  1.00  0.00     0.113 A 
HETATM    3  C   UNL     1       4.126  27.470  48.636  1.00  0.00     0.002 A 
HETATM    4  C   UNL     1       4.925  28.324  49.604  1.00  0.00     0.138 C 
HETATM    5  C   UNL     1       3.989  28.306  50.814  1.00  0.00     0.161 C 
HETATM    6  C   UNL     1       3.018  29.416  50.439  1.00  0.00     0.155 C 
HETATM    7  C   UNL     1       1.795  29.497  51.379  1.00  0.00     0.072 C 
HETATM    8  N   UNL     1       3.808  30.729  50.316  1.00  0.00    -0.325 N 
HETATM    9  C   UNL     1       5.076  30.745  49.681  1.00  0.00     0.172 C 
HETATM   10  S   UNL     1       5.851  32.014  48.915  1.00  0.00    -0.041 SA
HETATM   11  N   UNL     1       5.727  29.513  49.618  1.00  0.00    -0.357 N 
HETATM   12  O   UNL     1       2.345  29.046  49.151  1.00  0.00    -0.316 OA
HETATM   13  C   UNL     1       4.612  26.357  47.962  1.00  0.00     0.012 A 
HETATM   14  C   UNL     1       3.724  25.613  47.185  1.00  0.00     0.003 A 
HETATM   15  C   UNL     1       2.363  25.954  47.122  1.00  0.00     0.040 A 
HETATM   16  H   UNL     1       6.582  29.528  49.085  1.00  0.00     0.162 HD
ENDROOT
BRANCH   5  17
HETATM   17  C   UNL     1       4.539  28.426  52.233  1.00  0.00     0.233 C 
HETATM   18  N   UNL     1       5.656  27.595  52.353  1.00  0.00    -0.326 N 
HETATM   19  H   UNL     1       6.004  27.187  51.500  1.00  0.00     0.169 HD
HETATM   20  O   UNL     1       4.005  29.048  53.140  1.00  0.00    -0.273 OA
BRANCH  18  21
HETATM   21  C   UNL     1       6.166  27.007  53.523  1.00  0.00     0.040 A 
HETATM   22  C   UNL     1       5.774  25.684  53.825  1.00  0.00    -0.035 A 
HETATM   23  C   UNL     1       4.762  24.898  53.028  1.00  0.00     0.050 C 
HETATM   24  C   UNL     1       6.214  25.103  55.025  1.00  0.00     0.015 A 
HETATM   25  C   UNL     1       7.051  25.798  55.901  1.00  0.00    -0.061 A 
HETATM   26  C   UNL     1       7.513  25.145  57.170  1.00  0.00     0.048 C 
HETATM   27  C   UNL     1       7.473  27.085  55.560  1.00  0.00     0.009 A 
HETATM   28  C   UNL     1       7.018  27.695  54.387  1.00  0.00     0.030 A 
ENDBRANCH  18  21
ENDBRANCH   5  17
BRANCH   8  29
HETATM   29  C   UNL     1       3.309  31.890  51.106  1.00  0.00     0.130 C 
BRANCH  29  30
HETATM   30  C   UNL     1       2.552  33.051  50.436  1.00  0.00     0.046 C 
BRANCH  30  31
HETATM   31  C   UNL     1       2.015  32.666  49.060  1.00  0.00     0.168 C 
BRANCH  31  32
HETATM   32  O   UNL     1       0.718  32.088  49.235  1.00  0.00    -0.396 OA
HETATM   33  C   UNL     1      -0.087  32.249  48.074  1.00  0.00     0.201 C 
ENDBRANCH  31  32
ENDBRANCH  30  31
ENDBRANCH  29  30
ENDBRANCH   8  29
BRANCH   1  34
HETATM   34  O   UNL     1       0.515  27.257  47.831  1.00  0.00    -0.349 OA
BRANCH  34  35
HETATM   35  C   UNL     1       0.031  27.534  46.507  1.00  0.00     0.171 C 
HETATM   36  C   UNL     1       0.108  29.019  46.190  1.00  0.00     0.034 C 
ENDBRANCH  34  35
ENDBRANCH   1  34
TORSDOF 8
ENDMDL
MODEL 6
REMARK VINA RESULT:      -6.4      6.020      8.324
REMARK  8 active torsions:
REMARK  status: ('A' for Active; 'I' for Inactive)
REMARK    1  A    between atoms: C_2  and  O_3 
REMARK    2  A    between atoms: O_3  and  C_4 
REMARK    3  A    between atoms: C_8  and  C_9 
REMARK       I    between atoms: C_9  and  N_10 
REMARK    4  A    between atoms: N_10  and  C_11 
REMARK    5  A    between atoms: N_22  and  C_23 
REMARK    6  A    between atoms: C_23  and  C_24 
REMARK    7  A    between atoms: C_24  and  C_25 
REMARK    8  A    between atoms: C_25  and  O_26 
ROOT
HETATM    1  C   UNL     1       4.769  27.621  53.995  1.00  0.00     0.102 A 
HETATM    2  C   UNL     1       4.649  27.729  52.615  1.00  0.00     0.113 A 
HETATM    3  C   UNL     1       5.738  27.323  51.781  1.00  0.00     0.002 A 
HETATM    4  C   UNL     1       5.549  27.690  50.320  1.00  0.00     0.138 C 
HETATM    5  C   UNL     1       5.141  29.158  50.462  1.00  0.00     0.161 C 
HETATM    6  C   UNL     1       3.653  29.013  50.749  1.00  0.00     0.155 C 
HETATM    7  C   UNL     1       2.983  30.340  51.168  1.00  0.00     0.072 C 
HETATM    8  N   UNL     1       2.992  28.324  49.543  1.00  0.00    -0.325 N 
HETATM    9  C   UNL     1       3.631  27.232  48.905  1.00  0.00     0.172 C 
HETATM   10  S   UNL     1       2.948  25.986  48.022  1.00  0.00    -0.041 SA
HETATM   11  N   UNL     1       5.008  27.143  49.109  1.00  0.00    -0.357 N 
HETATM   12  O   UNL     1       3.486  28.217  52.008  1.00  0.00    -0.316 OA
HETATM   13  C   UNL     1       6.877  26.735  52.317  1.00  0.00     0.012 A 
HETATM   14  C   UNL     1       6.941  26.554  53.699  1.00  0.00     0.003 A 
HETATM   15  C   UNL     1       5.899  26.996  54.531  1.00  0.00     0.040 A 
HETATM   16  H   UNL     1       5.427  26.312  48.723  1.00  0.00     0.162 HD
ENDROOT
BRANCH   5  17
HETATM   17  C   UNL     1       5.458  30.170  49.364  1.00  0.00     0.233 C 
HETATM   18  N   UNL     1       6.172  31.232  49.926  1.00  0.00    -0.326 N 
HETATM   19  H   UNL     1       6.487  31.106  50.875  1.00  0.00     0.169 HD
HETATM   20  O   UNL     1       5.038  30.113  48.217  1.00  0.00    -0.273 OA
BRANCH  18  21
HETATM   21  C   UNL     1       6.241  32.557  49.466  1.00  0.00     0.040 A 
HETATM   22  C   UNL     1       5.745  33.579  50.306  1.00  0.00    -0.035 A 
HETATM   23  C   UNL     1       5.051  33.328  51.622  1.00  0.00     0.050 C 
HETATM   24  C   UNL     1       5.739  34.901  49.836  1.00  0.00     0.015 A 
HETATM   25  C   UNL     1       6.241  35.223  48.573  1.00  0.00    -0.061 A 
HETATM   26  C   UNL     1       6.230  36.647  48.105  1.00  0.00     0.048 C 
HETATM   27  C   UNL     1       6.777  34.208  47.776  1.00  0.00     0.009 A 
HETATM   28  C   UNL     1       6.761  32.879  48.211  1.00  0.00     0.030 A 
ENDBRANCH  18  21
ENDBRANCH   5  17
BRANCH   8  29
HETATM   29  C   UNL     1       1.816  29.011  48.940  1.00  0.00     0.130 C 
BRANCH  29  30
HETATM   30  C   UNL     1       1.807  29.438  47.461  1.00  0.00     0.046 C 
BRANCH  30  31
HETATM   31  C   UNL     1       0.436  29.249  46.818  1.00  0.00     0.168 C 
BRANCH  31  32
HETATM   32  O   UNL     1       0.161  27.846  46.762  1.00  0.00    -0.396 OA
HETATM   33  C   UNL     1      -0.370  27.468  45.498  1.00  0.00     0.201 C 
ENDBRANCH  31  32
ENDBRANCH  30  31
ENDBRANCH  29  30
ENDBRANCH   8  29
BRANCH   1  34
HETATM   34  O   UNL     1       3.852  28.143  54.863  1.00  0.00    -0.349 OA
BRANCH  34  35
HETATM   35  C   UNL     1       4.369  29.311  55.522  1.00  0.00     0.171 C 
HETATM   36  C   UNL     1       3.935  30.584  54.812  1.00  0.00     0.034 C 
ENDBRANCH  34  35
ENDBRANCH   1  34
TORSDOF 8
ENDMDL
MODEL 7
REMARK VINA RESULT:      -6.4      6.035      9.167
REMARK  8 active torsions:
REMARK  status: ('A' for Active; 'I' for Inactive)
REMARK    1  A    between atoms: C_2  and  O_3 
REMARK    2  A    between atoms: O_3  and  C_4 
REMARK    3  A    between atoms: C_8  and  C_9 
REMARK       I    between atoms: C_9  and  N_10 
REMARK    4  A    between atoms: N_10  and  C_11 
REMARK    5  A    between atoms: N_22  and  C_23 
REMARK    6  A    between atoms: C_23  and  C_24 
REMARK    7  A    between atoms: C_24  and  C_25 
REMARK    8  A    between atoms: C_25  and  O_26 
ROOT
HETATM    1  C   UNL     1       4.078  31.297  45.849  1.00  0.00     0.102 A 
HETATM    2  C   UNL     1       3.681  30.262  46.689  1.00  0.00     0.113 A 
HETATM    3  C   UNL     1       2.290  29.958  46.820  1.00  0.00     0.002 A 
HETATM    4  C   UNL     1       1.992  28.954  47.919  1.00  0.00     0.138 C 
HETATM    5  C   UNL     1       2.799  29.565  49.066  1.00  0.00     0.161 C 
HETATM    6  C   UNL     1       4.186  29.014  48.764  1.00  0.00     0.155 C 
HETATM    7  C   UNL     1       5.293  29.642  49.638  1.00  0.00     0.072 C 
HETATM    8  N   UNL     1       4.122  27.479  48.831  1.00  0.00    -0.325 N 
HETATM    9  C   UNL     1       3.020  26.784  48.272  1.00  0.00     0.172 C 
HETATM   10  S   UNL     1       2.951  25.215  47.696  1.00  0.00    -0.041 SA
HETATM   11  N   UNL     1       1.858  27.538  48.109  1.00  0.00    -0.357 N 
HETATM   12  O   UNL     1       4.605  29.497  47.408  1.00  0.00    -0.316 OA
HETATM   13  C   UNL     1       1.333  30.612  46.054  1.00  0.00     0.012 A 
HETATM   14  C   UNL     1       1.760  31.587  45.151  1.00  0.00     0.003 A 
HETATM   15  C   UNL     1       3.118  31.929  45.052  1.00  0.00     0.040 A 
HETATM   16  H   UNL     1       1.118  27.052  47.629  1.00  0.00     0.162 HD
ENDROOT
BRANCH   5  17
HETATM   17  C   UNL     1       2.367  29.374  50.518  1.00  0.00     0.233 C 
HETATM   18  N   UNL     1       3.212  30.126  51.339  1.00  0.00    -0.326 N 
HETATM   19  H   UNL     1       3.839  30.763  50.872  1.00  0.00     0.169 HD
HETATM   20  O   UNL     1       1.509  28.590  50.896  1.00  0.00    -0.273 OA
BRANCH  18  21
HETATM   21  C   UNL     1       3.524  29.895  52.689  1.00  0.00     0.040 A 
HETATM   22  C   UNL     1       3.261  30.927  53.618  1.00  0.00    -0.035 A 
HETATM   23  C   UNL     1       2.761  32.299  53.238  1.00  0.00     0.050 C 
HETATM   24  C   UNL     1       3.631  30.743  54.959  1.00  0.00     0.015 A 
HETATM   25  C   UNL     1       4.224  29.554  55.391  1.00  0.00    -0.061 A 
HETATM   26  C   UNL     1       4.597  29.386  56.833  1.00  0.00     0.048 C 
HETATM   27  C   UNL     1       4.428  28.524  54.469  1.00  0.00     0.009 A 
HETATM   28  C   UNL     1       4.098  28.699  53.122  1.00  0.00     0.030 A 
ENDBRANCH  18  21
ENDBRANCH   5  17
BRANCH   8  29
HETATM   29  C   UNL     1       5.112  26.804  49.716  1.00  0.00     0.130 C 
BRANCH  29  30
HETATM   30  C   UNL     1       4.668  25.823  50.816  1.00  0.00     0.046 C 
BRANCH  30  31
HETATM   31  C   UNL     1       5.762  25.597  51.857  1.00  0.00     0.168 C 
BRANCH  31  32
HETATM   32  O   UNL     1       5.185  24.897  52.963  1.00  0.00    -0.396 OA
HETATM   33  C   UNL     1       5.964  25.050  54.142  1.00  0.00     0.201 C 
ENDBRANCH  31  32
ENDBRANCH  30  31
ENDBRANCH  29  30
ENDBRANCH   8  29
BRANCH   1  34
HETATM   34  O   UNL     1       5.361  31.762  45.799  1.00  0.00    -0.349 OA
BRANCH  34  35
HETATM   35  C   UNL     1       5.468  33.054  46.421  1.00  0.00     0.171 C 
HETATM   36  C   UNL     1       5.907  32.934  47.872  1.00  0.00     0.034 C 
ENDBRANCH  34  35
ENDBRANCH   1  34
TORSDOF 8
ENDMDL
MODEL 8
REMARK VINA RESULT:      -6.3      6.057      9.701
REMARK  8 active torsions:
REMARK  status: ('A' for Active; 'I' for Inactive)
REMARK    1  A    between atoms: C_2  and  O_3 
REMARK    2  A    between atoms: O_3  and  C_4 
REMARK    3  A    between atoms: C_8  and  C_9 
REMARK       I    between atoms: C_9  and  N_10 
REMARK    4  A    between atoms: N_10  and  C_11 
REMARK    5  A    between atoms: N_22  and  C_23 
REMARK    6  A    between atoms: C_23  and  C_24 
REMARK    7  A    between atoms: C_24  and  C_25 
REMARK    8  A    between atoms: C_25  and  O_26 
ROOT
HETATM    1  C   UNL     1       6.075  27.633  53.184  1.00  0.00     0.102 A 
HETATM    2  C   UNL     1       5.543  28.747  52.546  1.00  0.00     0.113 A 
HETATM    3  C   UNL     1       4.439  29.436  53.139  1.00  0.00     0.002 A 
HETATM    4  C   UNL     1       3.833  30.496  52.238  1.00  0.00     0.138 C 
HETATM    5  C   UNL     1       3.687  29.696  50.942  1.00  0.00     0.161 C 
HETATM    6  C   UNL     1       5.090  29.827  50.367  1.00  0.00     0.155 C 
HETATM    7  C   UNL     1       5.331  28.922  49.139  1.00  0.00     0.072 C 
HETATM    8  N   UNL     1       5.374  31.318  50.118  1.00  0.00    -0.325 N 
HETATM    9  C   UNL     1       4.978  32.290  51.071  1.00  0.00     0.172 C 
HETATM   10  S   UNL     1       5.625  33.807  51.354  1.00  0.00    -0.041 SA
HETATM   11  N   UNL     1       3.963  31.895  51.942  1.00  0.00    -0.357 N 
HETATM   12  O   UNL     1       6.062  29.228  51.339  1.00  0.00    -0.316 OA
HETATM   13  C   UNL     1       3.946  29.070  54.386  1.00  0.00     0.012 A 
HETATM   14  C   UNL     1       4.552  28.003  55.051  1.00  0.00     0.003 A 
HETATM   15  C   UNL     1       5.603  27.288  54.454  1.00  0.00     0.040 A 
HETATM   16  H   UNL     1       3.760  32.564  52.667  1.00  0.00     0.162 HD
ENDROOT
BRANCH   5  17
HETATM   17  C   UNL     1       2.581  30.020  49.940  1.00  0.00     0.233 C 
HETATM   18  N   UNL     1       1.951  28.829  49.570  1.00  0.00    -0.326 N 
HETATM   19  H   UNL     1       2.197  28.008  50.100  1.00  0.00     0.169 HD
HETATM   20  O   UNL     1       2.379  31.122  49.453  1.00  0.00    -0.273 OA
BRANCH  18  21
HETATM   21  C   UNL     1       1.264  28.558  48.374  1.00  0.00     0.040 A 
HETATM   22  C   UNL     1       1.525  27.333  47.721  1.00  0.00    -0.035 A 
HETATM   23  C   UNL     1       2.570  26.341  48.171  1.00  0.00     0.050 C 
HETATM   24  C   UNL     1       0.904  27.075  46.490  1.00  0.00     0.015 A 
HETATM   25  C   UNL     1       0.016  27.990  45.919  1.00  0.00    -0.061 A 
HETATM   26  C   UNL     1      -0.639  27.679  44.607  1.00  0.00     0.048 C 
HETATM   27  C   UNL     1      -0.272  29.173  46.605  1.00  0.00     0.009 A 
HETATM   28  C   UNL     1       0.363  29.466  47.816  1.00  0.00     0.030 A 
ENDBRANCH  18  21
ENDBRANCH   5  17
BRANCH   8  29
HETATM   29  C   UNL     1       5.831  31.696  48.752  1.00  0.00     0.130 C 
BRANCH  29  30
HETATM   30  C   UNL     1       4.974  32.588  47.836  1.00  0.00     0.046 C 
BRANCH  30  31
HETATM   31  C   UNL     1       5.399  32.484  46.374  1.00  0.00     0.168 C 
BRANCH  31  32
HETATM   32  O   UNL     1       4.917  31.239  45.858  1.00  0.00    -0.396 OA
HETATM   33  C   UNL     1       3.515  31.102  46.049  1.00  0.00     0.201 C 
ENDBRANCH  31  32
ENDBRANCH  30  31
ENDBRANCH  29  30
ENDBRANCH   8  29
BRANCH   1  34
HETATM   34  O   UNL     1       7.010  26.822  52.604  1.00  0.00    -0.349 OA
BRANCH  34  35
HETATM   35  C   UNL     1       7.395  25.759  53.492  1.00  0.00     0.171 C 
HETATM   36  C   UNL     1       7.986  24.586  52.726  1.00  0.00     0.034 C 
ENDBRANCH  34  35
ENDBRANCH   1  34
TORSDOF 8
ENDMDL
MODEL 9
REMARK VINA RESULT:      -6.1      7.441      9.504
REMARK  8 active torsions:
REMARK  status: ('A' for Active; 'I' for Inactive)
REMARK    1  A    between atoms: C_2  and  O_3 
REMARK    2  A    between atoms: O_3  and  C_4 
REMARK    3  A    between atoms: C_8  and  C_9 
REMARK       I    between atoms: C_9  and  N_10 
REMARK    4  A    between atoms: N_10  and  C_11 
REMARK    5  A    between atoms: N_22  and  C_23 
REMARK    6  A    between atoms: C_23  and  C_24 
REMARK    7  A    between atoms: C_24  and  C_25 
REMARK    8  A    between atoms: C_25  and  O_26 
ROOT
HETATM    1  C   UNL     1       4.476  27.210  49.502  1.00  0.00     0.102 A 
HETATM    2  C   UNL     1       3.790  28.399  49.282  1.00  0.00     0.113 A 
HETATM    3  C   UNL     1       2.919  28.509  48.152  1.00  0.00     0.002 A 
HETATM    4  C   UNL     1       2.404  29.918  47.921  1.00  0.00     0.138 C 
HETATM    5  C   UNL     1       3.715  30.701  48.014  1.00  0.00     0.161 C 
HETATM    6  C   UNL     1       3.847  30.860  49.522  1.00  0.00     0.155 C 
HETATM    7  C   UNL     1       5.214  31.432  49.955  1.00  0.00     0.072 C 
HETATM    8  N   UNL     1       2.636  31.660  50.032  1.00  0.00    -0.325 N 
HETATM    9  C   UNL     1       1.339  31.395  49.526  1.00  0.00     0.172 C 
HETATM   10  S   UNL     1      -0.145  31.655  50.254  1.00  0.00    -0.041 SA
HETATM   11  N   UNL     1       1.300  30.759  48.285  1.00  0.00    -0.357 N 
HETATM   12  O   UNL     1       3.915  29.496  50.140  1.00  0.00    -0.316 OA
HETATM   13  C   UNL     1       2.673  27.421  47.323  1.00  0.00     0.012 A 
HETATM   14  C   UNL     1       3.303  26.211  47.612  1.00  0.00     0.003 A 
HETATM   15  C   UNL     1       4.199  26.107  48.688  1.00  0.00     0.040 A 
HETATM   16  H   UNL     1       0.374  30.499  47.987  1.00  0.00     0.162 HD
ENDROOT
BRANCH   5  17
HETATM   17  C   UNL     1       3.906  32.005  47.241  1.00  0.00     0.233 C 
HETATM   18  N   UNL     1       5.154  31.974  46.613  1.00  0.00    -0.326 N 
HETATM   19  H   UNL     1       5.642  31.093  46.632  1.00  0.00     0.169 HD
HETATM   20  O   UNL     1       3.145  32.960  47.281  1.00  0.00    -0.273 OA
BRANCH  18  21
HETATM   21  C   UNL     1       5.951  33.067  46.235  1.00  0.00     0.040 A 
HETATM   22  C   UNL     1       5.799  33.578  44.927  1.00  0.00    -0.035 A 
HETATM   23  C   UNL     1       4.911  32.960  43.875  1.00  0.00     0.050 C 
HETATM   24  C   UNL     1       6.635  34.623  44.505  1.00  0.00     0.015 A 
HETATM   25  C   UNL     1       7.586  35.182  45.363  1.00  0.00    -0.061 A 
HETATM   26  C   UNL     1       8.456  36.305  44.886  1.00  0.00     0.048 C 
HETATM   27  C   UNL     1       7.685  34.700  46.671  1.00  0.00     0.009 A 
HETATM   28  C   UNL     1       6.886  33.636  47.100  1.00  0.00     0.030 A 
ENDBRANCH  18  21
ENDBRANCH   5  17
BRANCH   8  29
HETATM   29  C   UNL     1       2.928  32.864  50.859  1.00  0.00     0.130 C 
BRANCH  29  30
HETATM   30  C   UNL     1       2.639  32.889  52.371  1.00  0.00     0.046 C 
BRANCH  30  31
HETATM   31  C   UNL     1       3.713  32.156  53.171  1.00  0.00     0.168 C 
BRANCH  31  32
HETATM   32  O   UNL     1       3.098  31.041  53.824  1.00  0.00    -0.396 OA
HETATM   33  C   UNL     1       3.829  29.841  53.608  1.00  0.00     0.201 C 
ENDBRANCH  31  32
ENDBRANCH  30  31
ENDBRANCH  29  30
ENDBRANCH   8  29
BRANCH   1  34
HETATM   34  O   UNL     1       5.451  27.080  50.450  1.00  0.00    -0.349 OA
BRANCH  34  35
HETATM   35  C   UNL     1       5.305  25.848  51.177  1.00  0.00     0.171 C 
HETATM   36  C   UNL     1       4.900  26.103  52.620  1.00  0.00     0.034 C 
ENDBRANCH  34  35
ENDBRANCH   1  34
TORSDOF 8
ENDMDL
MODEL 10
REMARK VINA RESULT:      -6.0      5.017      9.606
REMARK  8 active torsions:
REMARK  status: ('A' for Active; 'I' for Inactive)
REMARK    1  A    between atoms: C_2  and  O_3 
REMARK    2  A    between atoms: O_3  and  C_4 
REMARK    3  A    between atoms: C_8  and  C_9 
REMARK       I    between atoms: C_9  and  N_10 
REMARK    4  A    between atoms: N_10  and  C_11 
REMARK    5  A    between atoms: N_22  and  C_23 
REMARK    6  A    between atoms: C_23  and  C_24 
REMARK    7  A    between atoms: C_24  and  C_25 
REMARK    8  A    between atoms: C_25  and  O_26 
ROOT
HETATM    1  C   UNL     1      -1.238  33.360  54.658  1.00  0.00     0.102 A 
HETATM    2  C   UNL     1       0.112  33.500  54.358  1.00  0.00     0.113 A 
HETATM    3  C   UNL     1       0.500  33.925  53.049  1.00  0.00     0.002 A 
HETATM    4  C   UNL     1       1.995  33.833  52.802  1.00  0.00     0.138 C 
HETATM    5  C   UNL     1       2.263  32.413  53.305  1.00  0.00     0.161 C 
HETATM    6  C   UNL     1       2.397  32.662  54.801  1.00  0.00     0.155 C 
HETATM    7  C   UNL     1       2.454  31.360  55.631  1.00  0.00     0.072 C 
HETATM    8  N   UNL     1       3.586  33.610  55.029  1.00  0.00    -0.325 N 
HETATM    9  C   UNL     1       3.789  34.722  54.174  1.00  0.00     0.172 C 
HETATM   10  S   UNL     1       4.574  36.163  54.494  1.00  0.00    -0.041 SA
HETATM   11  N   UNL     1       3.181  34.631  52.921  1.00  0.00    -0.357 N 
HETATM   12  O   UNL     1       1.111  33.247  55.304  1.00  0.00    -0.316 OA
HETATM   13  C   UNL     1      -0.446  34.291  52.099  1.00  0.00     0.012 A 
HETATM   14  C   UNL     1      -1.795  34.228  52.449  1.00  0.00     0.003 A 
HETATM   15  C   UNL     1      -2.188  33.763  53.715  1.00  0.00     0.040 A 
HETATM   16  H   UNL     1       3.262  35.467  52.365  1.00  0.00     0.162 HD
ENDROOT
BRANCH   5  17
HETATM   17  C   UNL     1       3.396  31.573  52.720  1.00  0.00     0.233 C 
HETATM   18  N   UNL     1       2.914  30.286  52.466  1.00  0.00    -0.326 N 
HETATM   19  H   UNL     1       1.919  30.156  52.554  1.00  0.00     0.169 HD
HETATM   20  O   UNL     1       4.557  31.939  52.618  1.00  0.00    -0.273 OA
BRANCH  18  21
HETATM   21  C   UNL     1       3.651  29.091  52.412  1.00  0.00     0.040 A 
HETATM   22  C   UNL     1       4.080  28.633  51.147  1.00  0.00    -0.035 A 
HETATM   23  C   UNL     1       3.711  29.290  49.839  1.00  0.00     0.050 C 
HETATM   24  C   UNL     1       4.755  27.405  51.062  1.00  0.00     0.015 A 
HETATM   25  C   UNL     1       5.032  26.651  52.205  1.00  0.00    -0.061 A 
HETATM   26  C   UNL     1       5.764  25.348  52.082  1.00  0.00     0.048 C 
HETATM   27  C   UNL     1       4.647  27.145  53.454  1.00  0.00     0.009 A 
HETATM   28  C   UNL     1       3.944  28.349  53.557  1.00  0.00     0.030 A 
ENDBRANCH  18  21
ENDBRANCH   5  17
BRANCH   8  29
HETATM   29  C   UNL     1       4.625  33.162  55.999  1.00  0.00     0.130 C 
BRANCH  29  30
HETATM   30  C   UNL     1       4.774  33.826  57.379  1.00  0.00     0.046 C 
BRANCH  30  31
HETATM   31  C   UNL     1       3.426  34.234  57.967  1.00  0.00     0.168 C 
BRANCH  31  32
HETATM   32  O   UNL     1       2.885  33.107  58.662  1.00  0.00    -0.396 OA
HETATM   33  C   UNL     1       3.255  33.111  60.034  1.00  0.00     0.201 C 
ENDBRANCH  31  32
ENDBRANCH  30  31
ENDBRANCH  29  30
ENDBRANCH   8  29
BRANCH   1  34
HETATM   34  O   UNL     1      -1.686  32.798  55.820  1.00  0.00    -0.349 OA
BRANCH  34  35
HETATM   35  C   UNL     1      -3.119  32.688  55.824  1.00  0.00     0.171 C 
HETATM   36  C   UNL     1      -3.722  33.372  57.041  1.00  0.00     0.034 C 
ENDBRANCH  34  35
ENDBRANCH   1  34
TORSDOF 8
ENDMDL
