MODEL 1
REMARK VINA RESULT:      -9.8      0.000      0.000
REMARK  11 active torsions:
REMARK  status: ('A' for Active; 'I' for Inactive)
REMARK    1  A    between atoms: N_13  and  C_14 
REMARK    2  A    between atoms: C_14  and  C_15 
REMARK    3  A    between atoms: N_20  and  C_21 
REMARK    4  A    between atoms: C_21  and  C_22 
REMARK    5  A    between atoms: C_22  and  O_23 
REMARK    6  A    between atoms: C_22  and  C_24 
REMARK    7  A    between atoms: C_24  and  N_25 
REMARK    8  A    between atoms: N_25  and  C_27 
REMARK    9  A    between atoms: N_25  and  C_34 
REMARK   10  A    between atoms: C_27  and  C_28 
REMARK   11  A    between atoms: C_34  and  C_35 
ROOT
HETATM    1  C   UNL     1       4.611  33.090  54.503  1.00  0.00     0.163 C 
HETATM    2  N   UNL     1       4.492  31.642  54.552  1.00  0.00    -0.285 N 
HETATM    3  C   UNL     1       3.879  30.946  53.507  1.00  0.00     0.332 A 
HETATM    4  O   UNL     1       3.416  31.529  52.524  1.00  0.00    -0.246 OA
HETATM    5  N   UNL     1       3.819  29.542  53.624  1.00  0.00    -0.269 N 
HETATM    6  C   UNL     1       3.189  28.794  52.551  1.00  0.00     0.164 C 
HETATM    7  C   UNL     1       4.319  28.796  54.692  1.00  0.00     0.282 A 
HETATM    8  O   UNL     1       4.281  27.570  54.762  1.00  0.00    -0.265 OA
HETATM    9  C   UNL     1       4.916  29.591  55.706  1.00  0.00     0.166 A 
HETATM   10  C   UNL     1       4.987  30.946  55.628  1.00  0.00     0.186 A 
HETATM   11  N   UNL     1       5.610  31.480  56.710  1.00  0.00    -0.044 NA
HETATM   12  C   UNL     1       5.917  30.458  57.478  1.00  0.00     0.705 A 
HETATM   13  N   UNL     1       6.537  30.501  58.670  1.00  0.00    -0.218 N 
HETATM   14  N   UNL     1       5.548  29.267  56.881  1.00  0.00    -0.170 N 
HETATM   15  H   UNL     1       6.463  29.750  59.350  1.00  0.00     0.178 HD
ENDROOT
BRANCH  14  16
HETATM   16  C   UNL     1       5.855  27.922  57.348  1.00  0.00     0.181 C 
BRANCH  16  17
HETATM   17  C   UNL     1       7.310  27.521  57.060  1.00  0.00     0.163 C 
BRANCH  17  18
HETATM   18  O   UNL     1       8.209  28.278  57.884  1.00  0.00    -0.392 OA
HETATM   19  H   UNL     1       8.376  27.810  58.726  1.00  0.00     0.210 HD
ENDBRANCH  17  18
BRANCH  17  20
HETATM   20  C   UNL     1       7.628  26.042  57.377  1.00  0.00     0.268 C 
BRANCH  20  21
HETATM   21  N   UNL     1       7.832  25.102  56.206  1.00  0.00    -0.061 N 
HETATM   22  H   UNL     1       8.277  25.637  55.454  1.00  0.00     0.280 HD
BRANCH  21  23
HETATM   23  C   UNL     1       8.739  23.913  56.471  1.00  0.00     0.273 C 
BRANCH  23  24
HETATM   24  C   UNL     1       8.532  22.703  55.600  1.00  0.00    -0.033 A 
HETATM   25  C   UNL     1       7.969  21.528  56.125  1.00  0.00     0.009 A 
HETATM   26  C   UNL     1       7.794  20.402  55.320  1.00  0.00     0.001 A 
HETATM   27  C   UNL     1       8.168  20.436  53.980  1.00  0.00     0.000 A 
HETATM   28  C   UNL     1       8.706  21.599  53.439  1.00  0.00     0.001 A 
HETATM   29  C   UNL     1       8.883  22.728  54.241  1.00  0.00     0.009 A 
ENDBRANCH  23  24
ENDBRANCH  21  23
BRANCH  21  30
HETATM   30  C   UNL     1       6.501  24.654  55.618  1.00  0.00     0.273 C 
BRANCH  30  31
HETATM   31  C   UNL     1       6.295  25.076  54.187  1.00  0.00    -0.033 A 
HETATM   32  C   UNL     1       7.190  25.954  53.555  1.00  0.00     0.009 A 
HETATM   33  C   UNL     1       6.969  26.354  52.236  1.00  0.00     0.001 A 
HETATM   34  C   UNL     1       5.860  25.882  51.536  1.00  0.00     0.000 A 
HETATM   35  C   UNL     1       4.970  25.005  52.149  1.00  0.00     0.001 A 
HETATM   36  C   UNL     1       5.186  24.602  53.467  1.00  0.00     0.009 A 
ENDBRANCH  30  31
ENDBRANCH  21  30
ENDBRANCH  20  21
ENDBRANCH  17  20
ENDBRANCH  16  17
ENDBRANCH  14  16
BRANCH  13  37
HETATM   37  C   UNL     1       6.620  31.789  59.358  1.00  0.00     0.203 C 
BRANCH  37  38
HETATM   38  C   UNL     1       7.674  31.827  60.419  1.00  0.00     0.070 A 
HETATM   39  O   UNL     1       7.330  31.354  61.659  1.00  0.00    -0.325 OA
HETATM   40  C   UNL     1       8.420  31.501  62.455  1.00  0.00     0.142 A 
HETATM   41  C   UNL     1       9.457  32.067  61.752  1.00  0.00     0.027 A 
HETATM   42  C   UNL     1       8.978  32.278  60.437  1.00  0.00     0.036 A 
ENDBRANCH  37  38
ENDBRANCH  13  37
TORSDOF 11
ENDMDL
MODEL 2
REMARK VINA RESULT:      -9.7      2.937      5.347
REMARK  11 active torsions:
REMARK  status: ('A' for Active; 'I' for Inactive)
REMARK    1  A    between atoms: N_13  and  C_14 
REMARK    2  A    between atoms: C_14  and  C_15 
REMARK    3  A    between atoms: N_20  and  C_21 
REMARK    4  A    between atoms: C_21  and  C_22 
REMARK    5  A    between atoms: C_22  and  O_23 
REMARK    6  A    between atoms: C_22  and  C_24 
REMARK    7  A    between atoms: C_24  and  N_25 
REMARK    8  A    between atoms: N_25  and  C_27 
REMARK    9  A    between atoms: N_25  and  C_34 
REMARK   10  A    between atoms: C_27  and  C_28 
REMARK   11  A    between atoms: C_34  and  C_35 
ROOT
HETATM    1  C   UNL     1       0.837  30.825  49.684  1.00  0.00     0.163 C 
HETATM    2  N   UNL     1       1.641  29.647  49.397  1.00  0.00    -0.285 N 
HETATM    3  C   UNL     1       1.369  28.862  48.275  1.00  0.00     0.332 A 
HETATM    4  O   UNL     1       0.443  29.129  47.504  1.00  0.00    -0.246 OA
HETATM    5  N   UNL     1       2.205  27.747  48.058  1.00  0.00    -0.269 N 
HETATM    6  C   UNL     1       1.945  26.914  46.897  1.00  0.00     0.164 C 
HETATM    7  C   UNL     1       3.277  27.369  48.868  1.00  0.00     0.282 A 
HETATM    8  O   UNL     1       4.011  26.409  48.647  1.00  0.00    -0.265 OA
HETATM    9  C   UNL     1       3.470  28.224  49.985  1.00  0.00     0.166 A 
HETATM   10  C   UNL     1       2.680  29.303  50.227  1.00  0.00     0.186 A 
HETATM   11  N   UNL     1       3.066  29.969  51.345  1.00  0.00    -0.044 NA
HETATM   12  C   UNL     1       4.093  29.296  51.817  1.00  0.00     0.705 A 
HETATM   13  N   UNL     1       4.802  29.574  52.925  1.00  0.00    -0.218 N 
HETATM   14  N   UNL     1       4.407  28.235  50.988  1.00  0.00    -0.170 N 
HETATM   15  H   UNL     1       5.353  28.873  53.410  1.00  0.00     0.178 HD
ENDROOT
BRANCH  14  16
HETATM   16  C   UNL     1       5.565  27.357  51.091  1.00  0.00     0.181 C 
BRANCH  16  17
HETATM   17  C   UNL     1       5.291  26.131  51.975  1.00  0.00     0.163 C 
BRANCH  17  18
HETATM   18  O   UNL     1       4.512  25.161  51.258  1.00  0.00    -0.392 OA
HETATM   19  H   UNL     1       3.741  24.883  51.791  1.00  0.00     0.210 HD
ENDBRANCH  17  18
BRANCH  17  20
HETATM   20  C   UNL     1       6.567  25.374  52.411  1.00  0.00     0.268 C 
BRANCH  20  21
HETATM   21  N   UNL     1       6.601  24.806  53.814  1.00  0.00    -0.061 N 
HETATM   22  H   UNL     1       5.995  23.981  53.829  1.00  0.00     0.280 HD
BRANCH  21  23
HETATM   23  C   UNL     1       7.962  24.338  54.300  1.00  0.00     0.273 C 
BRANCH  23  24
HETATM   24  C   UNL     1       8.159  22.851  54.417  1.00  0.00    -0.033 A 
HETATM   25  C   UNL     1       8.130  22.031  53.277  1.00  0.00     0.009 A 
HETATM   26  C   UNL     1       8.295  20.650  53.390  1.00  0.00     0.001 A 
HETATM   27  C   UNL     1       8.501  20.071  54.639  1.00  0.00     0.000 A 
HETATM   28  C   UNL     1       8.555  20.872  55.775  1.00  0.00     0.001 A 
HETATM   29  C   UNL     1       8.390  22.254  55.666  1.00  0.00     0.009 A 
ENDBRANCH  23  24
ENDBRANCH  21  23
BRANCH  21  30
HETATM   30  C   UNL     1       5.964  25.763  54.814  1.00  0.00     0.273 C 
BRANCH  30  31
HETATM   31  C   UNL     1       6.935  26.736  55.429  1.00  0.00    -0.033 A 
HETATM   32  C   UNL     1       7.375  26.581  56.753  1.00  0.00     0.009 A 
HETATM   33  C   UNL     1       8.255  27.508  57.314  1.00  0.00     0.001 A 
HETATM   34  C   UNL     1       8.706  28.591  56.564  1.00  0.00     0.000 A 
HETATM   35  C   UNL     1       8.283  28.751  55.247  1.00  0.00     0.001 A 
HETATM   36  C   UNL     1       7.404  27.829  54.681  1.00  0.00     0.009 A 
ENDBRANCH  30  31
ENDBRANCH  21  30
ENDBRANCH  20  21
ENDBRANCH  17  20
ENDBRANCH  16  17
ENDBRANCH  14  16
BRANCH  13  37
HETATM   37  C   UNL     1       4.231  30.514  53.891  1.00  0.00     0.203 C 
BRANCH  37  38
HETATM   38  C   UNL     1       4.596  30.201  55.308  1.00  0.00     0.070 A 
HETATM   39  O   UNL     1       5.454  31.066  55.936  1.00  0.00    -0.325 OA
HETATM   40  C   UNL     1       5.656  30.582  57.188  1.00  0.00     0.142 A 
HETATM   41  C   UNL     1       4.951  29.416  57.374  1.00  0.00     0.027 A 
HETATM   42  C   UNL     1       4.266  29.169  56.161  1.00  0.00     0.036 A 
ENDBRANCH  37  38
ENDBRANCH  13  37
TORSDOF 11
ENDMDL
MODEL 3
REMARK VINA RESULT:      -9.7      2.104      4.796
REMARK  11 active torsions:
REMARK  status: ('A' for Active; 'I' for Inactive)
REMARK    1  A    between atoms: N_13  and  C_14 
REMARK    2  A    between atoms: C_14  and  C_15 
REMARK    3  A    between atoms: N_20  and  C_21 
REMARK    4  A    between atoms: C_21  and  C_22 
REMARK    5  A    between atoms: C_22  and  O_23 
REMARK    6  A    between atoms: C_22  and  C_24 
REMARK    7  A    between atoms: C_24  and  N_25 
REMARK    8  A    between atoms: N_25  and  C_27 
REMARK    9  A    between atoms: N_25  and  C_34 
REMARK   10  A    between atoms: C_27  and  C_28 
REMARK   11  A    between atoms: C_34  and  C_35 
ROOT
HETATM    1  C   UNL     1       7.676  32.357  59.671  1.00  0.00     0.163 C 
HETATM    2  N   UNL     1       8.114  31.349  58.719  1.00  0.00    -0.285 N 
HETATM    3  C   UNL     1       9.475  31.145  58.480  1.00  0.00     0.332 A 
HETATM    4  O   UNL     1      10.341  31.810  59.054  1.00  0.00    -0.246 OA
HETATM    5  N   UNL     1       9.817  30.137  57.554  1.00  0.00    -0.269 N 
HETATM    6  C   UNL     1      11.225  29.904  57.289  1.00  0.00     0.164 C 
HETATM    7  C   UNL     1       8.911  29.333  56.862  1.00  0.00     0.282 A 
HETATM    8  O   UNL     1       9.230  28.441  56.079  1.00  0.00    -0.265 OA
HETATM    9  C   UNL     1       7.554  29.619  57.166  1.00  0.00     0.166 A 
HETATM   10  C   UNL     1       7.189  30.586  58.049  1.00  0.00     0.186 A 
HETATM   11  N   UNL     1       5.840  30.665  58.180  1.00  0.00    -0.044 NA
HETATM   12  C   UNL     1       5.355  29.755  57.363  1.00  0.00     0.705 A 
HETATM   13  N   UNL     1       4.058  29.475  57.144  1.00  0.00    -0.218 N 
HETATM   14  N   UNL     1       6.375  29.054  56.747  1.00  0.00    -0.170 N 
HETATM   15  H   UNL     1       3.736  29.012  56.300  1.00  0.00     0.178 HD
ENDROOT
BRANCH  14  16
HETATM   16  C   UNL     1       6.241  27.878  55.899  1.00  0.00     0.181 C 
BRANCH  16  17
HETATM   17  C   UNL     1       5.836  26.627  56.693  1.00  0.00     0.163 C 
BRANCH  17  18
HETATM   18  O   UNL     1       4.431  26.654  56.986  1.00  0.00    -0.392 OA
HETATM   19  H   UNL     1       3.933  27.034  56.234  1.00  0.00     0.210 HD
ENDBRANCH  17  18
BRANCH  17  20
HETATM   20  C   UNL     1       6.059  25.300  55.931  1.00  0.00     0.268 C 
BRANCH  20  21
HETATM   21  N   UNL     1       6.540  25.387  54.498  1.00  0.00    -0.061 N 
HETATM   22  H   UNL     1       6.661  26.378  54.272  1.00  0.00     0.280 HD
BRANCH  21  23
HETATM   23  C   UNL     1       7.878  24.725  54.214  1.00  0.00     0.273 C 
BRANCH  23  24
HETATM   24  C   UNL     1       7.892  23.221  54.189  1.00  0.00    -0.033 A 
HETATM   25  C   UNL     1       7.927  22.523  52.971  1.00  0.00     0.009 A 
HETATM   26  C   UNL     1       7.922  21.127  52.950  1.00  0.00     0.001 A 
HETATM   27  C   UNL     1       7.891  20.412  54.142  1.00  0.00     0.000 A 
HETATM   28  C   UNL     1       7.879  21.087  55.358  1.00  0.00     0.001 A 
HETATM   29  C   UNL     1       7.884  22.483  55.383  1.00  0.00     0.009 A 
ENDBRANCH  23  24
ENDBRANCH  21  23
BRANCH  21  30
HETATM   30  C   UNL     1       5.474  24.902  53.526  1.00  0.00     0.273 C 
BRANCH  30  31
HETATM   31  C   UNL     1       5.086  25.923  52.488  1.00  0.00    -0.033 A 
HETATM   32  C   UNL     1       5.291  25.680  51.121  1.00  0.00     0.009 A 
HETATM   33  C   UNL     1       4.949  26.648  50.176  1.00  0.00     0.001 A 
HETATM   34  C   UNL     1       4.399  27.862  50.582  1.00  0.00     0.000 A 
HETATM   35  C   UNL     1       4.184  28.112  51.935  1.00  0.00     0.001 A 
HETATM   36  C   UNL     1       4.523  27.148  52.884  1.00  0.00     0.009 A 
ENDBRANCH  30  31
ENDBRANCH  21  30
ENDBRANCH  20  21
ENDBRANCH  17  20
ENDBRANCH  16  17
ENDBRANCH  14  16
BRANCH  13  37
HETATM   37  C   UNL     1       3.058  30.443  57.594  1.00  0.00     0.203 C 
BRANCH  37  38
HETATM   38  C   UNL     1       2.868  31.582  56.643  1.00  0.00     0.070 A 
HETATM   39  O   UNL     1       3.039  32.847  57.142  1.00  0.00    -0.325 OA
HETATM   40  C   UNL     1       2.801  33.710  56.121  1.00  0.00     0.142 A 
HETATM   41  C   UNL     1       2.472  33.024  54.976  1.00  0.00     0.027 A 
HETATM   42  C   UNL     1       2.514  31.650  55.311  1.00  0.00     0.036 A 
ENDBRANCH  37  38
ENDBRANCH  13  37
TORSDOF 11
ENDMDL
MODEL 4
REMARK VINA RESULT:      -9.6      1.435      5.118
REMARK  11 active torsions:
REMARK  status: ('A' for Active; 'I' for Inactive)
REMARK    1  A    between atoms: N_13  and  C_14 
REMARK    2  A    between atoms: C_14  and  C_15 
REMARK    3  A    between atoms: N_20  and  C_21 
REMARK    4  A    between atoms: C_21  and  C_22 
REMARK    5  A    between atoms: C_22  and  O_23 
REMARK    6  A    between atoms: C_22  and  C_24 
REMARK    7  A    between atoms: C_24  and  N_25 
REMARK    8  A    between atoms: N_25  and  C_27 
REMARK    9  A    between atoms: N_25  and  C_34 
REMARK   10  A    between atoms: C_27  and  C_28 
REMARK   11  A    between atoms: C_34  and  C_35 
ROOT
HETATM    1  C   UNL     1       5.050  33.246  59.361  1.00  0.00     0.163 C 
HETATM    2  N   UNL     1       5.952  32.132  59.116  1.00  0.00    -0.285 N 
HETATM    3  C   UNL     1       7.048  31.913  59.953  1.00  0.00     0.332 A 
HETATM    4  O   UNL     1       7.292  32.651  60.910  1.00  0.00    -0.246 OA
HETATM    5  N   UNL     1       7.865  30.801  59.657  1.00  0.00    -0.269 N 
HETATM    6  C   UNL     1       9.011  30.549  60.512  1.00  0.00     0.164 C 
HETATM    7  C   UNL     1       7.667  29.909  58.603  1.00  0.00     0.282 A 
HETATM    8  O   UNL     1       8.375  28.930  58.377  1.00  0.00    -0.265 OA
HETATM    9  C   UNL     1       6.533  30.218  57.806  1.00  0.00     0.166 A 
HETATM   10  C   UNL     1       5.728  31.284  58.059  1.00  0.00     0.186 A 
HETATM   11  N   UNL     1       4.707  31.366  57.169  1.00  0.00    -0.044 NA
HETATM   12  C   UNL     1       4.880  30.358  56.342  1.00  0.00     0.705 A 
HETATM   13  N   UNL     1       4.116  30.041  55.282  1.00  0.00    -0.218 N 
HETATM   14  N   UNL     1       5.970  29.595  56.720  1.00  0.00    -0.170 N 
HETATM   15  H   UNL     1       4.460  29.474  54.513  1.00  0.00     0.178 HD
ENDROOT
BRANCH  14  16
HETATM   16  C   UNL     1       6.387  28.322  56.149  1.00  0.00     0.181 C 
BRANCH  16  17
HETATM   17  C   UNL     1       5.733  27.123  56.853  1.00  0.00     0.163 C 
BRANCH  17  18
HETATM   18  O   UNL     1       4.312  27.140  56.651  1.00  0.00    -0.392 OA
HETATM   19  H   UNL     1       3.908  26.322  57.001  1.00  0.00     0.210 HD
ENDBRANCH  17  18
BRANCH  17  20
HETATM   20  C   UNL     1       6.196  25.750  56.315  1.00  0.00     0.268 C 
BRANCH  20  21
HETATM   21  N   UNL     1       6.619  25.672  54.863  1.00  0.00    -0.061 N 
HETATM   22  H   UNL     1       6.739  26.631  54.524  1.00  0.00     0.280 HD
BRANCH  21  23
HETATM   23  C   UNL     1       7.937  24.964  54.600  1.00  0.00     0.273 C 
BRANCH  23  24
HETATM   24  C   UNL     1       7.877  23.468  54.447  1.00  0.00    -0.033 A 
HETATM   25  C   UNL     1       7.682  22.640  55.565  1.00  0.00     0.009 A 
HETATM   26  C   UNL     1       7.644  21.252  55.423  1.00  0.00     0.001 A 
HETATM   27  C   UNL     1       7.790  20.674  54.167  1.00  0.00     0.000 A 
HETATM   28  C   UNL     1       7.962  21.481  53.047  1.00  0.00     0.001 A 
HETATM   29  C   UNL     1       8.000  22.870  53.184  1.00  0.00     0.009 A 
ENDBRANCH  23  24
ENDBRANCH  21  23
BRANCH  21  30
HETATM   30  C   UNL     1       5.508  25.099  53.993  1.00  0.00     0.273 C 
BRANCH  30  31
HETATM   31  C   UNL     1       5.163  25.955  52.803  1.00  0.00    -0.033 A 
HETATM   32  C   UNL     1       4.626  27.242  52.968  1.00  0.00     0.009 A 
HETATM   33  C   UNL     1       4.289  28.011  51.854  1.00  0.00     0.001 A 
HETATM   34  C   UNL     1       4.485  27.510  50.569  1.00  0.00     0.000 A 
HETATM   35  C   UNL     1       5.023  26.238  50.392  1.00  0.00     0.001 A 
HETATM   36  C   UNL     1       5.363  25.465  51.502  1.00  0.00     0.009 A 
ENDBRANCH  30  31
ENDBRANCH  21  30
ENDBRANCH  20  21
ENDBRANCH  17  20
ENDBRANCH  16  17
ENDBRANCH  14  16
BRANCH  13  37
HETATM   37  C   UNL     1       3.181  31.048  54.780  1.00  0.00     0.203 C 
BRANCH  37  38
HETATM   38  C   UNL     1       3.768  31.921  53.716  1.00  0.00     0.070 A 
HETATM   39  O   UNL     1       3.902  31.375  52.466  1.00  0.00    -0.325 OA
HETATM   40  C   UNL     1       4.465  32.328  51.678  1.00  0.00     0.142 A 
HETATM   41  C   UNL     1       4.702  33.473  52.400  1.00  0.00     0.027 A 
HETATM   42  C   UNL     1       4.252  33.213  53.716  1.00  0.00     0.036 A 
ENDBRANCH  37  38
ENDBRANCH  13  37
TORSDOF 11
ENDMDL
MODEL 5
REMARK VINA RESULT:      -9.5      1.545      5.362
REMARK  11 active torsions:
REMARK  status: ('A' for Active; 'I' for Inactive)
REMARK    1  A    between atoms: N_13  and  C_14 
REMARK    2  A    between atoms: C_14  and  C_15 
REMARK    3  A    between atoms: N_20  and  C_21 
REMARK    4  A    between atoms: C_21  and  C_22 
REMARK    5  A    between atoms: C_22  and  O_23 
REMARK    6  A    between atoms: C_22  and  C_24 
REMARK    7  A    between atoms: C_24  and  N_25 
REMARK    8  A    between atoms: N_25  and  C_27 
REMARK    9  A    between atoms: N_25  and  C_34 
REMARK   10  A    between atoms: C_27  and  C_28 
REMARK   11  A    between atoms: C_34  and  C_35 
ROOT
HETATM    1  C   UNL     1       3.727  32.879  56.628  1.00  0.00     0.163 C 
HETATM    2  N   UNL     1       4.789  31.963  57.014  1.00  0.00    -0.285 N 
HETATM    3  C   UNL     1       5.660  32.290  58.055  1.00  0.00     0.332 A 
HETATM    4  O   UNL     1       5.568  33.355  58.669  1.00  0.00    -0.246 OA
HETATM    5  N   UNL     1       6.652  31.340  58.379  1.00  0.00    -0.269 N 
HETATM    6  C   UNL     1       7.571  31.654  59.459  1.00  0.00     0.164 C 
HETATM    7  C   UNL     1       6.831  30.109  57.747  1.00  0.00     0.282 A 
HETATM    8  O   UNL     1       7.685  29.283  58.062  1.00  0.00    -0.265 OA
HETATM    9  C   UNL     1       5.903  29.871  56.699  1.00  0.00     0.166 A 
HETATM   10  C   UNL     1       4.938  30.766  56.358  1.00  0.00     0.186 A 
HETATM   11  N   UNL     1       4.169  30.311  55.336  1.00  0.00    -0.044 NA
HETATM   12  C   UNL     1       4.662  29.133  55.023  1.00  0.00     0.705 A 
HETATM   13  N   UNL     1       4.229  28.306  54.055  1.00  0.00    -0.218 N 
HETATM   14  N   UNL     1       5.707  28.799  55.866  1.00  0.00    -0.170 N 
HETATM   15  H   UNL     1       4.819  27.586  53.650  1.00  0.00     0.178 HD
ENDROOT
BRANCH  14  16
HETATM   16  C   UNL     1       6.403  27.521  55.932  1.00  0.00     0.181 C 
BRANCH  16  17
HETATM   17  C   UNL     1       5.926  26.657  57.110  1.00  0.00     0.163 C 
BRANCH  17  18
HETATM   18  O   UNL     1       4.582  26.205  56.885  1.00  0.00    -0.392 OA
HETATM   19  H   UNL     1       4.476  25.282  57.192  1.00  0.00     0.210 HD
ENDBRANCH  17  18
BRANCH  17  20
HETATM   20  C   UNL     1       6.752  25.366  57.315  1.00  0.00     0.268 C 
BRANCH  20  21
HETATM   21  N   UNL     1       7.435  24.770  56.102  1.00  0.00    -0.061 N 
HETATM   22  H   UNL     1       7.760  25.545  55.518  1.00  0.00     0.280 HD
BRANCH  21  23
HETATM   23  C   UNL     1       8.660  23.919  56.391  1.00  0.00     0.273 C 
BRANCH  23  24
HETATM   24  C   UNL     1       8.675  22.538  55.794  1.00  0.00    -0.033 A 
HETATM   25  C   UNL     1       9.078  22.335  54.464  1.00  0.00     0.009 A 
HETATM   26  C   UNL     1       9.075  21.055  53.907  1.00  0.00     0.001 A 
HETATM   27  C   UNL     1       8.679  19.963  54.671  1.00  0.00     0.000 A 
HETATM   28  C   UNL     1       8.297  20.143  55.997  1.00  0.00     0.001 A 
HETATM   29  C   UNL     1       8.300  21.422  56.558  1.00  0.00     0.009 A 
ENDBRANCH  23  24
ENDBRANCH  21  23
BRANCH  21  30
HETATM   30  C   UNL     1       6.444  24.020  55.222  1.00  0.00     0.273 C 
BRANCH  30  31
HETATM   31  C   UNL     1       6.269  24.622  53.853  1.00  0.00    -0.033 A 
HETATM   32  C   UNL     1       4.991  24.840  53.315  1.00  0.00     0.009 A 
HETATM   33  C   UNL     1       4.849  25.376  52.035  1.00  0.00     0.001 A 
HETATM   34  C   UNL     1       5.974  25.701  51.281  1.00  0.00     0.000 A 
HETATM   35  C   UNL     1       7.247  25.497  51.806  1.00  0.00     0.001 A 
HETATM   36  C   UNL     1       7.396  24.962  53.085  1.00  0.00     0.009 A 
ENDBRANCH  30  31
ENDBRANCH  21  30
ENDBRANCH  20  21
ENDBRANCH  17  20
ENDBRANCH  16  17
ENDBRANCH  14  16
BRANCH  13  37
HETATM   37  C   UNL     1       3.335  28.851  53.033  1.00  0.00     0.203 C 
BRANCH  37  38
HETATM   38  C   UNL     1       3.940  28.867  51.664  1.00  0.00     0.070 A 
HETATM   39  O   UNL     1       5.247  29.268  51.564  1.00  0.00    -0.325 OA
HETATM   40  C   UNL     1       5.574  29.222  50.247  1.00  0.00     0.142 A 
HETATM   41  C   UNL     1       4.500  28.806  49.497  1.00  0.00     0.027 A 
HETATM   42  C   UNL     1       3.444  28.576  50.411  1.00  0.00     0.036 A 
ENDBRANCH  37  38
ENDBRANCH  13  37
TORSDOF 11
ENDMDL
MODEL 6
REMARK VINA RESULT:      -9.4      2.314      6.189
REMARK  11 active torsions:
REMARK  status: ('A' for Active; 'I' for Inactive)
REMARK    1  A    between atoms: N_13  and  C_14 
REMARK    2  A    between atoms: C_14  and  C_15 
REMARK    3  A    between atoms: N_20  and  C_21 
REMARK    4  A    between atoms: C_21  and  C_22 
REMARK    5  A    between atoms: C_22  and  O_23 
REMARK    6  A    between atoms: C_22  and  C_24 
REMARK    7  A    between atoms: C_24  and  N_25 
REMARK    8  A    between atoms: N_25  and  C_27 
REMARK    9  A    between atoms: N_25  and  C_34 
REMARK   10  A    between atoms: C_27  and  C_28 
REMARK   11  A    between atoms: C_34  and  C_35 
ROOT
HETATM    1  C   UNL     1       9.421  30.543  61.667  1.00  0.00     0.163 C 
HETATM    2  N   UNL     1       8.267  31.183  61.055  1.00  0.00    -0.285 N 
HETATM    3  C   UNL     1       7.597  32.213  61.718  1.00  0.00     0.332 A 
HETATM    4  O   UNL     1       7.948  32.604  62.833  1.00  0.00    -0.246 OA
HETATM    5  N   UNL     1       6.498  32.793  61.049  1.00  0.00    -0.269 N 
HETATM    6  C   UNL     1       5.784  33.868  61.715  1.00  0.00     0.164 C 
HETATM    7  C   UNL     1       6.031  32.423  59.787  1.00  0.00     0.282 A 
HETATM    8  O   UNL     1       5.088  32.960  59.210  1.00  0.00    -0.265 OA
HETATM    9  C   UNL     1       6.772  31.365  59.198  1.00  0.00     0.166 A 
HETATM   10  C   UNL     1       7.833  30.780  59.816  1.00  0.00     0.186 A 
HETATM   11  N   UNL     1       8.383  29.802  59.052  1.00  0.00    -0.044 NA
HETATM   12  C   UNL     1       7.656  29.761  57.957  1.00  0.00     0.705 A 
HETATM   13  N   UNL     1       7.818  28.934  56.910  1.00  0.00    -0.218 N 
HETATM   14  N   UNL     1       6.676  30.736  57.982  1.00  0.00    -0.170 N 
HETATM   15  H   UNL     1       7.067  28.724  56.260  1.00  0.00     0.178 HD
ENDROOT
BRANCH  14  16
HETATM   16  C   UNL     1       5.778  31.102  56.895  1.00  0.00     0.181 C 
BRANCH  16  17
HETATM   17  C   UNL     1       4.801  29.972  56.538  1.00  0.00     0.163 C 
BRANCH  17  18
HETATM   18  O   UNL     1       3.676  29.984  57.431  1.00  0.00    -0.392 OA
HETATM   19  H   UNL     1       3.156  30.804  57.313  1.00  0.00     0.210 HD
ENDBRANCH  17  18
BRANCH  17  20
HETATM   20  C   UNL     1       4.189  30.095  55.123  1.00  0.00     0.268 C 
BRANCH  20  21
HETATM   21  N   UNL     1       4.554  29.034  54.107  1.00  0.00    -0.061 N 
HETATM   22  H   UNL     1       5.490  29.254  53.752  1.00  0.00     0.280 HD
BRANCH  21  23
HETATM   23  C   UNL     1       4.630  27.613  54.640  1.00  0.00     0.273 C 
BRANCH  23  24
HETATM   24  C   UNL     1       5.581  26.682  53.938  1.00  0.00    -0.033 A 
HETATM   25  C   UNL     1       5.200  25.366  53.629  1.00  0.00     0.009 A 
HETATM   26  C   UNL     1       6.090  24.498  52.993  1.00  0.00     0.001 A 
HETATM   27  C   UNL     1       7.365  24.935  52.650  1.00  0.00     0.000 A 
HETATM   28  C   UNL     1       7.750  26.242  52.930  1.00  0.00     0.001 A 
HETATM   29  C   UNL     1       6.863  27.113  53.565  1.00  0.00     0.009 A 
ENDBRANCH  23  24
ENDBRANCH  21  23
BRANCH  21  30
HETATM   30  C   UNL     1       3.656  29.110  52.880  1.00  0.00     0.273 C 
BRANCH  30  31
HETATM   31  C   UNL     1       4.401  29.026  51.573  1.00  0.00    -0.033 A 
HETATM   32  C   UNL     1       5.100  30.133  51.066  1.00  0.00     0.009 A 
HETATM   33  C   UNL     1       5.764  30.044  49.842  1.00  0.00     0.001 A 
HETATM   34  C   UNL     1       5.740  28.856  49.115  1.00  0.00     0.000 A 
HETATM   35  C   UNL     1       5.057  27.749  49.611  1.00  0.00     0.001 A 
HETATM   36  C   UNL     1       4.392  27.831  50.834  1.00  0.00     0.009 A 
ENDBRANCH  30  31
ENDBRANCH  21  30
ENDBRANCH  20  21
ENDBRANCH  17  20
ENDBRANCH  16  17
ENDBRANCH  14  16
BRANCH  13  37
HETATM   37  C   UNL     1       8.667  27.755  57.088  1.00  0.00     0.203 C 
BRANCH  37  38
HETATM   38  C   UNL     1       7.918  26.464  56.976  1.00  0.00     0.070 A 
HETATM   39  O   UNL     1       6.603  26.471  57.360  1.00  0.00    -0.325 OA
HETATM   40  C   UNL     1       6.136  25.206  57.194  1.00  0.00     0.142 A 
HETATM   41  C   UNL     1       7.130  24.384  56.718  1.00  0.00     0.027 A 
HETATM   42  C   UNL     1       8.282  25.195  56.577  1.00  0.00     0.036 A 
ENDBRANCH  37  38
ENDBRANCH  13  37
TORSDOF 11
ENDMDL
MODEL 7
REMARK VINA RESULT:      -9.4      2.409      3.834
REMARK  11 active torsions:
REMARK  status: ('A' for Active; 'I' for Inactive)
REMARK    1  A    between atoms: N_13  and  C_14 
REMARK    2  A    between atoms: C_14  and  C_15 
REMARK    3  A    between atoms: N_20  and  C_21 
REMARK    4  A    between atoms: C_21  and  C_22 
REMARK    5  A    between atoms: C_22  and  O_23 
REMARK    6  A    between atoms: C_22  and  C_24 
REMARK    7  A    between atoms: C_24  and  N_25 
REMARK    8  A    between atoms: N_25  and  C_27 
REMARK    9  A    between atoms: N_25  and  C_34 
REMARK   10  A    between atoms: C_27  and  C_28 
REMARK   11  A    between atoms: C_34  and  C_35 
ROOT
HETATM    1  C   UNL     1       4.928  32.926  58.403  1.00  0.00     0.163 C 
HETATM    2  N   UNL     1       4.353  32.363  57.191  1.00  0.00    -0.285 N 
HETATM    3  C   UNL     1       3.216  32.935  56.616  1.00  0.00     0.332 A 
HETATM    4  O   UNL     1       2.662  33.918  57.114  1.00  0.00    -0.246 OA
HETATM    5  N   UNL     1       2.731  32.340  55.433  1.00  0.00    -0.269 N 
HETATM    6  C   UNL     1       1.551  32.917  54.813  1.00  0.00     0.164 C 
HETATM    7  C   UNL     1       3.292  31.234  54.794  1.00  0.00     0.282 A 
HETATM    8  O   UNL     1       2.870  30.746  53.748  1.00  0.00    -0.265 OA
HETATM    9  C   UNL     1       4.438  30.719  55.457  1.00  0.00     0.166 A 
HETATM   10  C   UNL     1       4.929  31.265  56.601  1.00  0.00     0.186 A 
HETATM   11  N   UNL     1       6.033  30.607  57.038  1.00  0.00    -0.044 NA
HETATM   12  C   UNL     1       6.227  29.634  56.174  1.00  0.00     0.705 A 
HETATM   13  N   UNL     1       7.202  28.709  56.204  1.00  0.00    -0.218 N 
HETATM   14  N   UNL     1       5.293  29.689  55.156  1.00  0.00    -0.170 N 
HETATM   15  H   UNL     1       7.123  27.818  55.723  1.00  0.00     0.178 HD
ENDROOT
BRANCH  14  16
HETATM   16  C   UNL     1       5.272  28.882  53.944  1.00  0.00     0.181 C 
BRANCH  16  17
HETATM   17  C   UNL     1       4.399  27.627  54.092  1.00  0.00     0.163 C 
BRANCH  17  18
HETATM   18  O   UNL     1       3.272  27.695  53.206  1.00  0.00    -0.392 OA
HETATM   19  H   UNL     1       2.437  27.689  53.715  1.00  0.00     0.210 HD
ENDBRANCH  17  18
BRANCH  17  20
HETATM   20  C   UNL     1       5.122  26.312  53.719  1.00  0.00     0.268 C 
BRANCH  20  21
HETATM   21  N   UNL     1       6.188  26.378  52.645  1.00  0.00    -0.061 N 
HETATM   22  H   UNL     1       6.308  27.362  52.389  1.00  0.00     0.280 HD
BRANCH  21  23
HETATM   23  C   UNL     1       7.563  25.879  53.055  1.00  0.00     0.273 C 
BRANCH  23  24
HETATM   24  C   UNL     1       7.646  24.455  53.533  1.00  0.00    -0.033 A 
HETATM   25  C   UNL     1       7.486  24.143  54.893  1.00  0.00     0.009 A 
HETATM   26  C   UNL     1       7.581  22.823  55.336  1.00  0.00     0.001 A 
HETATM   27  C   UNL     1       7.826  21.798  54.428  1.00  0.00     0.000 A 
HETATM   28  C   UNL     1       7.965  22.087  53.075  1.00  0.00     0.001 A 
HETATM   29  C   UNL     1       7.870  23.406  52.627  1.00  0.00     0.009 A 
ENDBRANCH  23  24
ENDBRANCH  21  23
BRANCH  21  30
HETATM   30  C   UNL     1       5.723  25.705  51.361  1.00  0.00     0.273 C 
BRANCH  30  31
HETATM   31  C   UNL     1       5.165  26.661  50.340  1.00  0.00    -0.033 A 
HETATM   32  C   UNL     1       4.334  26.210  49.302  1.00  0.00     0.009 A 
HETATM   33  C   UNL     1       3.847  27.107  48.350  1.00  0.00     0.001 A 
HETATM   34  C   UNL     1       4.179  28.458  48.424  1.00  0.00     0.000 A 
HETATM   35  C   UNL     1       4.996  28.919  49.453  1.00  0.00     0.001 A 
HETATM   36  C   UNL     1       5.485  28.027  50.408  1.00  0.00     0.009 A 
ENDBRANCH  30  31
ENDBRANCH  21  30
ENDBRANCH  20  21
ENDBRANCH  17  20
ENDBRANCH  16  17
ENDBRANCH  14  16
BRANCH  13  37
HETATM   37  C   UNL     1       7.951  28.537  57.449  1.00  0.00     0.203 C 
BRANCH  37  38
HETATM   38  C   UNL     1       9.194  29.367  57.511  1.00  0.00     0.070 A 
HETATM   39  O   UNL     1       9.153  30.496  58.287  1.00  0.00    -0.325 OA
HETATM   40  C   UNL     1      10.367  31.094  58.180  1.00  0.00     0.142 A 
HETATM   41  C   UNL     1      11.187  30.374  57.344  1.00  0.00     0.027 A 
HETATM   42  C   UNL     1      10.431  29.259  56.911  1.00  0.00     0.036 A 
ENDBRANCH  37  38
ENDBRANCH  13  37
TORSDOF 11
ENDMDL
MODEL 8
REMARK VINA RESULT:      -9.3      2.297      5.326
REMARK  11 active torsions:
REMARK  status: ('A' for Active; 'I' for Inactive)
REMARK    1  A    between atoms: N_13  and  C_14 
REMARK    2  A    between atoms: C_14  and  C_15 
REMARK    3  A    between atoms: N_20  and  C_21 
REMARK    4  A    between atoms: C_21  and  C_22 
REMARK    5  A    between atoms: C_22  and  O_23 
REMARK    6  A    between atoms: C_22  and  C_24 
REMARK    7  A    between atoms: C_24  and  N_25 
REMARK    8  A    between atoms: N_25  and  C_27 
REMARK    9  A    between atoms: N_25  and  C_34 
REMARK   10  A    between atoms: C_27  and  C_28 
REMARK   11  A    between atoms: C_34  and  C_35 
ROOT
HETATM    1  C   UNL     1       7.228  32.252  59.432  1.00  0.00     0.163 C 
HETATM    2  N   UNL     1       7.932  31.286  58.604  1.00  0.00    -0.285 N 
HETATM    3  C   UNL     1       9.328  31.255  58.585  1.00  0.00     0.332 A 
HETATM    4  O   UNL     1      10.004  32.041  59.254  1.00  0.00    -0.246 OA
HETATM    5  N   UNL     1       9.934  30.277  57.769  1.00  0.00    -0.269 N 
HETATM    6  C   UNL     1      11.384  30.222  57.732  1.00  0.00     0.164 C 
HETATM    7  C   UNL     1       9.255  29.345  56.984  1.00  0.00     0.282 A 
HETATM    8  O   UNL     1       9.802  28.483  56.299  1.00  0.00    -0.265 OA
HETATM    9  C   UNL     1       7.842  29.459  57.063  1.00  0.00     0.166 A 
HETATM   10  C   UNL     1       7.225  30.392  57.836  1.00  0.00     0.186 A 
HETATM   11  N   UNL     1       5.874  30.299  57.755  1.00  0.00    -0.044 NA
HETATM   12  C   UNL     1       5.640  29.313  56.916  1.00  0.00     0.705 A 
HETATM   13  N   UNL     1       4.439  28.861  56.515  1.00  0.00    -0.218 N 
HETATM   14  N   UNL     1       6.824  28.736  56.496  1.00  0.00    -0.170 N 
HETATM   15  H   UNL     1       4.314  28.339  55.653  1.00  0.00     0.178 HD
ENDROOT
BRANCH  14  16
HETATM   16  C   UNL     1       6.972  27.531  55.691  1.00  0.00     0.181 C 
BRANCH  16  17
HETATM   17  C   UNL     1       7.029  27.837  54.186  1.00  0.00     0.163 C 
BRANCH  17  18
HETATM   18  O   UNL     1       8.023  28.836  53.917  1.00  0.00    -0.392 OA
HETATM   19  H   UNL     1       7.600  29.670  53.629  1.00  0.00     0.210 HD
ENDBRANCH  17  18
BRANCH  17  20
HETATM   20  C   UNL     1       7.434  26.626  53.314  1.00  0.00     0.268 C 
BRANCH  20  21
HETATM   21  N   UNL     1       6.324  25.838  52.649  1.00  0.00    -0.061 N 
HETATM   22  H   UNL     1       6.672  25.521  51.740  1.00  0.00     0.280 HD
BRANCH  21  23
HETATM   23  C   UNL     1       5.873  24.589  53.387  1.00  0.00     0.273 C 
BRANCH  23  24
HETATM   24  C   UNL     1       6.959  23.704  53.937  1.00  0.00    -0.033 A 
HETATM   25  C   UNL     1       7.241  23.685  55.313  1.00  0.00     0.009 A 
HETATM   26  C   UNL     1       8.261  22.877  55.819  1.00  0.00     0.001 A 
HETATM   27  C   UNL     1       9.003  22.072  54.961  1.00  0.00     0.000 A 
HETATM   28  C   UNL     1       8.722  22.062  53.599  1.00  0.00     0.001 A 
HETATM   29  C   UNL     1       7.703  22.869  53.089  1.00  0.00     0.009 A 
ENDBRANCH  23  24
ENDBRANCH  21  23
BRANCH  21  30
HETATM   30  C   UNL     1       5.138  26.731  52.311  1.00  0.00     0.273 C 
BRANCH  30  31
HETATM   31  C   UNL     1       5.110  27.189  50.877  1.00  0.00    -0.033 A 
HETATM   32  C   UNL     1       4.727  26.317  49.845  1.00  0.00     0.009 A 
HETATM   33  C   UNL     1       4.732  26.753  48.519  1.00  0.00     0.001 A 
HETATM   34  C   UNL     1       5.114  28.056  48.209  1.00  0.00     0.000 A 
HETATM   35  C   UNL     1       5.489  28.932  49.225  1.00  0.00     0.001 A 
HETATM   36  C   UNL     1       5.485  28.503  50.552  1.00  0.00     0.009 A 
ENDBRANCH  30  31
ENDBRANCH  21  30
ENDBRANCH  20  21
ENDBRANCH  17  20
ENDBRANCH  16  17
ENDBRANCH  14  16
BRANCH  13  37
HETATM   37  C   UNL     1       3.268  29.702  56.763  1.00  0.00     0.203 C 
BRANCH  37  38
HETATM   38  C   UNL     1       3.048  30.737  55.705  1.00  0.00     0.070 A 
HETATM   39  O   UNL     1       3.376  30.394  54.419  1.00  0.00    -0.325 OA
HETATM   40  C   UNL     1       3.114  31.477  53.643  1.00  0.00     0.142 A 
HETATM   41  C   UNL     1       2.631  32.513  54.406  1.00  0.00     0.027 A 
HETATM   42  C   UNL     1       2.587  32.037  55.739  1.00  0.00     0.036 A 
ENDBRANCH  37  38
ENDBRANCH  13  37
TORSDOF 11
ENDMDL
MODEL 9
REMARK VINA RESULT:      -9.3      1.694      5.206
REMARK  11 active torsions:
REMARK  status: ('A' for Active; 'I' for Inactive)
REMARK    1  A    between atoms: N_13  and  C_14 
REMARK    2  A    between atoms: C_14  and  C_15 
REMARK    3  A    between atoms: N_20  and  C_21 
REMARK    4  A    between atoms: C_21  and  C_22 
REMARK    5  A    between atoms: C_22  and  O_23 
REMARK    6  A    between atoms: C_22  and  C_24 
REMARK    7  A    between atoms: C_24  and  N_25 
REMARK    8  A    between atoms: N_25  and  C_27 
REMARK    9  A    between atoms: N_25  and  C_34 
REMARK   10  A    between atoms: C_27  and  C_28 
REMARK   11  A    between atoms: C_34  and  C_35 
ROOT
HETATM    1  C   UNL     1       3.553  32.557  59.228  1.00  0.00     0.163 C 
HETATM    2  N   UNL     1       4.935  32.128  59.367  1.00  0.00    -0.285 N 
HETATM    3  C   UNL     1       5.790  32.778  60.260  1.00  0.00     0.332 A 
HETATM    4  O   UNL     1       5.411  33.730  60.946  1.00  0.00    -0.246 OA
HETATM    5  N   UNL     1       7.111  32.290  60.349  1.00  0.00    -0.269 N 
HETATM    6  C   UNL     1       8.020  32.946  61.271  1.00  0.00     0.164 C 
HETATM    7  C   UNL     1       7.629  31.218  59.620  1.00  0.00     0.282 A 
HETATM    8  O   UNL     1       8.776  30.792  59.731  1.00  0.00    -0.265 OA
HETATM    9  C   UNL     1       6.688  30.628  58.736  1.00  0.00     0.166 A 
HETATM   10  C   UNL     1       5.409  31.076  58.622  1.00  0.00     0.186 A 
HETATM   11  N   UNL     1       4.699  30.348  57.723  1.00  0.00    -0.044 NA
HETATM   12  C   UNL     1       5.540  29.450  57.257  1.00  0.00     0.705 A 
HETATM   13  N   UNL     1       5.287  28.510  56.329  1.00  0.00    -0.218 N 
HETATM   14  N   UNL     1       6.768  29.555  57.884  1.00  0.00    -0.170 N 
HETATM   15  H   UNL     1       6.023  28.070  55.784  1.00  0.00     0.178 HD
ENDROOT
BRANCH  14  16
HETATM   16  C   UNL     1       7.900  28.648  57.751  1.00  0.00     0.181 C 
BRANCH  16  17
HETATM   17  C   UNL     1       7.633  27.527  56.735  1.00  0.00     0.163 C 
BRANCH  17  18
HETATM   18  O   UNL     1       8.139  27.894  55.443  1.00  0.00    -0.392 OA
HETATM   19  H   UNL     1       8.194  28.867  55.362  1.00  0.00     0.210 HD
ENDBRANCH  17  18
BRANCH  17  20
HETATM   20  C   UNL     1       8.337  26.193  57.075  1.00  0.00     0.268 C 
BRANCH  20  21
HETATM   21  N   UNL     1       7.989  24.983  56.233  1.00  0.00    -0.061 N 
HETATM   22  H   UNL     1       8.517  25.052  55.358  1.00  0.00     0.280 HD
BRANCH  21  23
HETATM   23  C   UNL     1       8.352  23.637  56.838  1.00  0.00     0.273 C 
BRANCH  23  24
HETATM   24  C   UNL     1       8.420  22.470  55.889  1.00  0.00    -0.033 A 
HETATM   25  C   UNL     1       8.991  22.614  54.615  1.00  0.00     0.009 A 
HETATM   26  C   UNL     1       9.038  21.535  53.730  1.00  0.00     0.001 A 
HETATM   27  C   UNL     1       8.525  20.299  54.109  1.00  0.00     0.000 A 
HETATM   28  C   UNL     1       7.975  20.134  55.377  1.00  0.00     0.001 A 
HETATM   29  C   UNL     1       7.927  21.211  56.264  1.00  0.00     0.009 A 
ENDBRANCH  23  24
ENDBRANCH  21  23
BRANCH  21  30
HETATM   30  C   UNL     1       6.530  25.011  55.799  1.00  0.00     0.273 C 
BRANCH  30  31
HETATM   31  C   UNL     1       6.340  25.081  54.307  1.00  0.00    -0.033 A 
HETATM   32  C   UNL     1       7.427  25.308  53.448  1.00  0.00     0.009 A 
HETATM   33  C   UNL     1       7.227  25.394  52.069  1.00  0.00     0.001 A 
HETATM   34  C   UNL     1       5.949  25.254  51.535  1.00  0.00     0.000 A 
HETATM   35  C   UNL     1       4.864  25.021  52.376  1.00  0.00     0.001 A 
HETATM   36  C   UNL     1       5.057  24.932  53.754  1.00  0.00     0.009 A 
ENDBRANCH  30  31
ENDBRANCH  21  30
ENDBRANCH  20  21
ENDBRANCH  17  20
ENDBRANCH  16  17
ENDBRANCH  14  16
BRANCH  13  37
HETATM   37  C   UNL     1       4.082  28.655  55.512  1.00  0.00     0.203 C 
BRANCH  37  38
HETATM   38  C   UNL     1       4.358  28.635  54.041  1.00  0.00     0.070 A 
HETATM   39  O   UNL     1       5.670  28.693  53.652  1.00  0.00    -0.325 OA
HETATM   40  C   UNL     1       5.680  28.680  52.294  1.00  0.00     0.142 A 
HETATM   41  C   UNL     1       4.397  28.623  51.803  1.00  0.00     0.027 A 
HETATM   42  C   UNL     1       3.542  28.593  52.930  1.00  0.00     0.036 A 
ENDBRANCH  37  38
ENDBRANCH  13  37
TORSDOF 11
ENDMDL
MODEL 10
REMARK VINA RESULT:      -9.3      2.982      6.354
REMARK  11 active torsions:
REMARK  status: ('A' for Active; 'I' for Inactive)
REMARK    1  A    between atoms: N_13  and  C_14 
REMARK    2  A    between atoms: C_14  and  C_15 
REMARK    3  A    between atoms: N_20  and  C_21 
REMARK    4  A    between atoms: C_21  and  C_22 
REMARK    5  A    between atoms: C_22  and  O_23 
REMARK    6  A    between atoms: C_22  and  C_24 
REMARK    7  A    between atoms: C_24  and  N_25 
REMARK    8  A    between atoms: N_25  and  C_27 
REMARK    9  A    between atoms: N_25  and  C_34 
REMARK   10  A    between atoms: C_27  and  C_28 
REMARK   11  A    between atoms: C_34  and  C_35 
ROOT
HETATM    1  C   UNL     1       6.922  33.428  63.793  1.00  0.00     0.163 C 
HETATM    2  N   UNL     1       5.752  33.328  62.936  1.00  0.00    -0.285 N 
HETATM    3  C   UNL     1       4.497  33.724  63.403  1.00  0.00     0.332 A 
HETATM    4  O   UNL     1       4.337  34.157  64.547  1.00  0.00    -0.246 OA
HETATM    5  N   UNL     1       3.416  33.611  62.504  1.00  0.00    -0.269 N 
HETATM    6  C   UNL     1       2.100  34.017  62.963  1.00  0.00     0.164 C 
HETATM    7  C   UNL     1       3.499  33.139  61.193  1.00  0.00     0.282 A 
HETATM    8  O   UNL     1       2.550  33.073  60.416  1.00  0.00    -0.265 OA
HETATM    9  C   UNL     1       4.812  32.755  60.813  1.00  0.00     0.166 A 
HETATM   10  C   UNL     1       5.876  32.846  61.655  1.00  0.00     0.186 A 
HETATM   11  N   UNL     1       7.024  32.431  61.063  1.00  0.00    -0.044 NA
HETATM   12  C   UNL     1       6.679  32.062  59.849  1.00  0.00     0.705 A 
HETATM   13  N   UNL     1       7.486  31.566  58.894  1.00  0.00    -0.218 N 
HETATM   14  N   UNL     1       5.331  32.284  59.633  1.00  0.00    -0.170 N 
HETATM   15  H   UNL     1       7.136  31.011  58.119  1.00  0.00     0.178 HD
ENDROOT
BRANCH  14  16
HETATM   16  C   UNL     1       4.612  32.146  58.373  1.00  0.00     0.181 C 
BRANCH  16  17
HETATM   17  C   UNL     1       4.112  30.712  58.140  1.00  0.00     0.163 C 
BRANCH  17  18
HETATM   18  O   UNL     1       2.755  30.578  58.587  1.00  0.00    -0.392 OA
HETATM   19  H   UNL     1       2.310  31.448  58.592  1.00  0.00     0.210 HD
ENDBRANCH  17  18
BRANCH  17  20
HETATM   20  C   UNL     1       4.086  30.292  56.652  1.00  0.00     0.268 C 
BRANCH  20  21
HETATM   21  N   UNL     1       4.926  29.099  56.246  1.00  0.00    -0.061 N 
HETATM   22  H   UNL     1       4.289  28.318  56.064  1.00  0.00     0.280 HD
BRANCH  21  23
HETATM   23  C   UNL     1       5.746  29.276  54.979  1.00  0.00     0.273 C 
BRANCH  23  24
HETATM   24  C   UNL     1       6.012  28.034  54.172  1.00  0.00    -0.033 A 
HETATM   25  C   UNL     1       4.951  27.281  53.643  1.00  0.00     0.009 A 
HETATM   26  C   UNL     1       5.200  26.119  52.909  1.00  0.00     0.001 A 
HETATM   27  C   UNL     1       6.508  25.701  52.687  1.00  0.00     0.000 A 
HETATM   28  C   UNL     1       7.571  26.448  53.185  1.00  0.00     0.001 A 
HETATM   29  C   UNL     1       7.326  27.610  53.919  1.00  0.00     0.009 A 
ENDBRANCH  23  24
ENDBRANCH  21  23
BRANCH  21  30
HETATM   30  C   UNL     1       5.798  28.618  57.398  1.00  0.00     0.273 C 
BRANCH  30  31
HETATM   31  C   UNL     1       6.289  27.203  57.239  1.00  0.00    -0.033 A 
HETATM   32  C   UNL     1       7.650  26.888  57.388  1.00  0.00     0.009 A 
HETATM   33  C   UNL     1       8.090  25.575  57.212  1.00  0.00     0.001 A 
HETATM   34  C   UNL     1       7.183  24.567  56.891  1.00  0.00     0.000 A 
HETATM   35  C   UNL     1       5.831  24.866  56.749  1.00  0.00     0.001 A 
HETATM   36  C   UNL     1       5.385  26.176  56.924  1.00  0.00     0.009 A 
ENDBRANCH  30  31
ENDBRANCH  21  30
ENDBRANCH  20  21
ENDBRANCH  17  20
ENDBRANCH  16  17
ENDBRANCH  14  16
BRANCH  13  37
HETATM   37  C   UNL     1       8.810  31.087  59.292  1.00  0.00     0.203 C 
BRANCH  37  38
HETATM   38  C   UNL     1       9.598  30.514  58.156  1.00  0.00     0.070 A 
HETATM   39  O   UNL     1       8.890  29.923  57.142  1.00  0.00    -0.325 OA
HETATM   40  C   UNL     1       9.798  29.463  56.243  1.00  0.00     0.142 A 
HETATM   41  C   UNL     1      11.077  29.739  56.665  1.00  0.00     0.027 A 
HETATM   42  C   UNL     1      10.950  30.418  57.900  1.00  0.00     0.036 A 
ENDBRANCH  37  38
ENDBRANCH  13  37
TORSDOF 11
ENDMDL
