MODEL 1
REMARK VINA RESULT:      -9.8      0.000      0.000
REMARK  6 active torsions:
REMARK  status: ('A' for Active; 'I' for Inactive)
REMARK    1  A    between atoms: O_2  and  C_3 
REMARK    2  A    between atoms: C_6  and  N_7 
REMARK       I    between atoms: N_7  and  C_8 
REMARK    3  A    between atoms: C_8  and  C_9 
REMARK    4  A    between atoms: C_12  and  N_13 
REMARK       I    between atoms: N_13  and  C_14 
REMARK    5  A    between atoms: C_14  and  C_15 
REMARK       I    between atoms: N_18  and  C_19 
REMARK    6  A    between atoms: C_19  and  C_20 
ROOT
HETATM    1  C   UNL     1       6.683  27.862  56.386  1.00  0.00     0.032 A 
HETATM    2  C   UNL     1       5.663  28.745  56.757  1.00  0.00     0.019 A 
HETATM    3  C   UNL     1       5.929  29.805  57.632  1.00  0.00     0.030 A 
HETATM    4  C   UNL     1       7.209  29.993  58.155  1.00  0.00     0.034 A 
HETATM    5  C   UNL     1       8.230  29.111  57.775  1.00  0.00     0.030 A 
HETATM    6  C   UNL     1       7.969  28.049  56.903  1.00  0.00     0.019 A 
ENDROOT
BRANCH   4   7
HETATM    7  N   UNL     1       7.541  31.002  59.085  1.00  0.00    -0.327 N 
HETATM    8  C   UNL     1       8.342  30.878  60.208  1.00  0.00     0.226 C 
HETATM    9  O   UNL     1       8.812  29.832  60.642  1.00  0.00    -0.273 OA
HETATM   10  H   UNL     1       7.150  31.916  58.898  1.00  0.00     0.169 HD
BRANCH   8  11
HETATM   11  C   UNL     1       8.584  32.218  60.917  1.00  0.00     0.081 C 
HETATM   12  C   UNL     1       7.555  33.280  60.499  1.00  0.00     0.034 C 
HETATM   13  C   UNL     1       6.178  33.043  61.120  1.00  0.00     0.127 C 
HETATM   14  N   UNL     1       6.266  32.879  62.573  1.00  0.00    -0.347 N 
HETATM   15  C   UNL     1       5.147  33.106  63.402  1.00  0.00     0.260 C 
HETATM   16  C   UNL     1       7.197  31.848  63.014  1.00  0.00     0.127 C 
HETATM   17  O   UNL     1       4.971  32.426  64.414  1.00  0.00    -0.267 OA
HETATM   18  C   UNL     1       8.595  32.074  62.444  1.00  0.00     0.034 C 
BRANCH  15  19
HETATM   19  C   UNL     1       4.257  34.205  63.050  1.00  0.00     0.072 A 
HETATM   20  S   UNL     1       4.787  35.818  63.281  1.00  0.00    -0.097 SA
HETATM   21  C   UNL     1       3.327  36.459  62.662  1.00  0.00     0.050 A 
HETATM   22  C   UNL     1       2.458  35.470  62.260  1.00  0.00     0.009 A 
HETATM   23  C   UNL     1       3.000  34.168  62.469  1.00  0.00     0.025 A 
ENDBRANCH  15  19
ENDBRANCH   8  11
ENDBRANCH   4   7
BRANCH   1  24
HETATM   24  C   UNL     1       6.412  26.671  55.530  1.00  0.00     0.256 C 
HETATM   25  N   UNL     1       7.293  25.619  55.696  1.00  0.00    -0.323 N 
HETATM   26  H   UNL     1       7.896  25.643  56.509  1.00  0.00     0.169 HD
HETATM   27  O   UNL     1       5.450  26.707  54.774  1.00  0.00    -0.267 OA
BRANCH  25  28
HETATM   28  C   UNL     1       7.452  24.503  54.850  1.00  0.00     0.035 A 
HETATM   29  C   UNL     1       7.707  24.597  53.480  1.00  0.00     0.032 A 
HETATM   30  C   UNL     1       7.945  23.448  52.715  1.00  0.00     0.039 A 
HETATM   31  C   UNL     1       7.931  22.189  53.313  1.00  0.00     0.068 A 
HETATM   32  C   UNL     1       7.644  22.089  54.674  1.00  0.00     0.039 A 
HETATM   33  C   UNL     1       7.413  23.236  55.440  1.00  0.00     0.032 A 
BRANCH  31  34
HETATM   34  O   UNL     1       8.173  21.000  52.683  1.00  0.00    -0.356 OA
HETATM   35  C   UNL     1       8.818  19.996  53.458  1.00  0.00     0.210 C 
ENDBRANCH  31  34
ENDBRANCH  25  28
ENDBRANCH   1  24
TORSDOF 6
ENDMDL
MODEL 2
REMARK VINA RESULT:      -9.8      3.750     12.229
REMARK  6 active torsions:
REMARK  status: ('A' for Active; 'I' for Inactive)
REMARK    1  A    between atoms: O_2  and  C_3 
REMARK    2  A    between atoms: C_6  and  N_7 
REMARK       I    between atoms: N_7  and  C_8 
REMARK    3  A    between atoms: C_8  and  C_9 
REMARK    4  A    between atoms: C_12  and  N_13 
REMARK       I    between atoms: N_13  and  C_14 
REMARK    5  A    between atoms: C_14  and  C_15 
REMARK       I    between atoms: N_18  and  C_19 
REMARK    6  A    between atoms: C_19  and  C_20 
ROOT
HETATM    1  C   UNL     1       6.282  33.279  61.979  1.00  0.00     0.032 A 
HETATM    2  C   UNL     1       5.160  32.978  61.199  1.00  0.00     0.019 A 
HETATM    3  C   UNL     1       5.306  32.299  59.983  1.00  0.00     0.030 A 
HETATM    4  C   UNL     1       6.568  31.921  59.525  1.00  0.00     0.034 A 
HETATM    5  C   UNL     1       7.689  32.218  60.313  1.00  0.00     0.030 A 
HETATM    6  C   UNL     1       7.549  32.898  61.528  1.00  0.00     0.019 A 
ENDROOT
BRANCH   4   7
HETATM    7  N   UNL     1       6.800  31.287  58.286  1.00  0.00    -0.327 N 
HETATM    8  C   UNL     1       7.476  30.099  58.063  1.00  0.00     0.226 C 
HETATM    9  O   UNL     1       8.083  29.450  58.908  1.00  0.00    -0.273 OA
HETATM   10  H   UNL     1       6.421  31.759  57.474  1.00  0.00     0.169 HD
BRANCH   8  11
HETATM   11  C   UNL     1       7.423  29.650  56.597  1.00  0.00     0.081 C 
HETATM   12  C   UNL     1       8.441  28.538  56.301  1.00  0.00     0.034 C 
HETATM   13  C   UNL     1       8.019  27.185  56.875  1.00  0.00     0.127 C 
HETATM   14  N   UNL     1       6.658  26.830  56.467  1.00  0.00    -0.347 N 
HETATM   15  C   UNL     1       6.221  25.488  56.469  1.00  0.00     0.260 C 
HETATM   16  C   UNL     1       5.649  27.838  56.769  1.00  0.00     0.127 C 
HETATM   17  O   UNL     1       5.056  25.212  56.758  1.00  0.00    -0.267 OA
HETATM   18  C   UNL     1       6.018  29.196  56.178  1.00  0.00     0.034 C 
BRANCH  15  19
HETATM   19  C   UNL     1       7.176  24.466  56.062  1.00  0.00     0.072 A 
HETATM   20  S   UNL     1       7.548  24.285  54.399  1.00  0.00    -0.097 SA
HETATM   21  C   UNL     1       8.659  23.023  54.716  1.00  0.00     0.050 A 
HETATM   22  C   UNL     1       8.769  22.757  56.061  1.00  0.00     0.009 A 
HETATM   23  C   UNL     1       7.925  23.600  56.841  1.00  0.00     0.025 A 
ENDBRANCH  15  19
ENDBRANCH   8  11
ENDBRANCH   4   7
BRANCH   1  24
HETATM   24  C   UNL     1       6.170  34.081  63.232  1.00  0.00     0.256 C 
HETATM   25  N   UNL     1       6.260  33.352  64.403  1.00  0.00    -0.323 N 
HETATM   26  H   UNL     1       6.605  32.403  64.333  1.00  0.00     0.169 HD
HETATM   27  O   UNL     1       6.022  35.292  63.134  1.00  0.00    -0.267 OA
BRANCH  25  28
HETATM   28  C   UNL     1       5.919  33.785  65.701  1.00  0.00     0.035 A 
HETATM   29  C   UNL     1       4.607  33.882  66.167  1.00  0.00     0.032 A 
HETATM   30  C   UNL     1       4.344  34.232  67.498  1.00  0.00     0.039 A 
HETATM   31  C   UNL     1       5.393  34.490  68.379  1.00  0.00     0.068 A 
HETATM   32  C   UNL     1       6.704  34.426  67.907  1.00  0.00     0.039 A 
HETATM   33  C   UNL     1       6.968  34.070  66.580  1.00  0.00     0.032 A 
BRANCH  31  34
HETATM   34  O   UNL     1       5.268  34.814  69.701  1.00  0.00    -0.356 OA
HETATM   35  C   UNL     1       6.481  35.007  70.419  1.00  0.00     0.210 C 
ENDBRANCH  31  34
ENDBRANCH  25  28
ENDBRANCH   1  24
TORSDOF 6
ENDMDL
MODEL 3
REMARK VINA RESULT:      -9.8      3.632     11.923
REMARK  6 active torsions:
REMARK  status: ('A' for Active; 'I' for Inactive)
REMARK    1  A    between atoms: O_2  and  C_3 
REMARK    2  A    between atoms: C_6  and  N_7 
REMARK       I    between atoms: N_7  and  C_8 
REMARK    3  A    between atoms: C_8  and  C_9 
REMARK    4  A    between atoms: C_12  and  N_13 
REMARK       I    between atoms: N_13  and  C_14 
REMARK    5  A    between atoms: C_14  and  C_15 
REMARK       I    between atoms: N_18  and  C_19 
REMARK    6  A    between atoms: C_19  and  C_20 
ROOT
HETATM    1  C   UNL     1       7.516  30.776  58.600  1.00  0.00     0.032 A 
HETATM    2  C   UNL     1       8.322  29.668  58.317  1.00  0.00     0.019 A 
HETATM    3  C   UNL     1       8.020  28.832  57.235  1.00  0.00     0.030 A 
HETATM    4  C   UNL     1       6.908  29.083  56.430  1.00  0.00     0.034 A 
HETATM    5  C   UNL     1       6.108  30.198  56.713  1.00  0.00     0.030 A 
HETATM    6  C   UNL     1       6.404  31.035  57.794  1.00  0.00     0.019 A 
ENDROOT
BRANCH   4   7
HETATM    7  N   UNL     1       6.507  28.255  55.360  1.00  0.00    -0.327 N 
HETATM    8  C   UNL     1       7.242  27.922  54.234  1.00  0.00     0.226 C 
HETATM    9  O   UNL     1       8.337  28.384  53.930  1.00  0.00    -0.273 OA
HETATM   10  H   UNL     1       5.578  27.861  55.435  1.00  0.00     0.169 HD
BRANCH   8  11
HETATM   11  C   UNL     1       6.531  26.896  53.342  1.00  0.00     0.081 C 
HETATM   12  C   UNL     1       7.515  25.878  52.744  1.00  0.00     0.034 C 
HETATM   13  C   UNL     1       8.000  24.854  53.771  1.00  0.00     0.127 C 
HETATM   14  N   UNL     1       6.878  24.218  54.466  1.00  0.00    -0.347 N 
HETATM   15  C   UNL     1       7.025  22.963  55.095  1.00  0.00     0.260 C 
HETATM   16  C   UNL     1       5.942  25.146  55.088  1.00  0.00     0.127 C 
HETATM   17  O   UNL     1       6.416  22.711  56.135  1.00  0.00    -0.267 OA
HETATM   18  C   UNL     1       5.406  26.161  54.082  1.00  0.00     0.034 C 
BRANCH  15  19
HETATM   19  C   UNL     1       7.867  21.973  54.436  1.00  0.00     0.072 A 
HETATM   20  S   UNL     1       8.859  20.951  55.391  1.00  0.00    -0.097 SA
HETATM   21  C   UNL     1       9.456  20.131  54.014  1.00  0.00     0.050 A 
HETATM   22  C   UNL     1       8.896  20.602  52.848  1.00  0.00     0.009 A 
HETATM   23  C   UNL     1       7.967  21.655  53.092  1.00  0.00     0.025 A 
ENDBRANCH  15  19
ENDBRANCH   8  11
ENDBRANCH   4   7
BRANCH   1  24
HETATM   24  C   UNL     1       7.757  31.631  59.799  1.00  0.00     0.256 C 
HETATM   25  N   UNL     1       7.256  31.130  60.986  1.00  0.00    -0.323 N 
HETATM   26  H   UNL     1       6.973  30.159  60.995  1.00  0.00     0.169 HD
HETATM   27  O   UNL     1       8.373  32.679  59.649  1.00  0.00    -0.267 OA
BRANCH  25  28
HETATM   28  C   UNL     1       7.089  31.828  62.199  1.00  0.00     0.035 A 
HETATM   29  C   UNL     1       8.149  32.241  63.009  1.00  0.00     0.032 A 
HETATM   30  C   UNL     1       7.915  33.011  64.156  1.00  0.00     0.039 A 
HETATM   31  C   UNL     1       6.616  33.378  64.505  1.00  0.00     0.068 A 
HETATM   32  C   UNL     1       5.553  32.939  63.716  1.00  0.00     0.039 A 
HETATM   33  C   UNL     1       5.786  32.176  62.568  1.00  0.00     0.032 A 
BRANCH  31  34
HETATM   34  O   UNL     1       6.262  34.145  65.580  1.00  0.00    -0.356 OA
HETATM   35  C   UNL     1       4.937  33.971  66.068  1.00  0.00     0.210 C 
ENDBRANCH  31  34
ENDBRANCH  25  28
ENDBRANCH   1  24
TORSDOF 6
ENDMDL
MODEL 4
REMARK VINA RESULT:      -9.6      4.268     11.703
REMARK  6 active torsions:
REMARK  status: ('A' for Active; 'I' for Inactive)
REMARK    1  A    between atoms: O_2  and  C_3 
REMARK    2  A    between atoms: C_6  and  N_7 
REMARK       I    between atoms: N_7  and  C_8 
REMARK    3  A    between atoms: C_8  and  C_9 
REMARK    4  A    between atoms: C_12  and  N_13 
REMARK       I    between atoms: N_13  and  C_14 
REMARK    5  A    between atoms: C_14  and  C_15 
REMARK       I    between atoms: N_18  and  C_19 
REMARK    6  A    between atoms: C_19  and  C_20 
ROOT
HETATM    1  C   UNL     1       7.483  30.132  58.321  1.00  0.00     0.032 A 
HETATM    2  C   UNL     1       6.396  30.161  57.441  1.00  0.00     0.019 A 
HETATM    3  C   UNL     1       6.253  29.170  56.462  1.00  0.00     0.030 A 
HETATM    4  C   UNL     1       7.193  28.146  56.342  1.00  0.00     0.034 A 
HETATM    5  C   UNL     1       8.276  28.117  57.230  1.00  0.00     0.030 A 
HETATM    6  C   UNL     1       8.426  29.106  58.209  1.00  0.00     0.019 A 
ENDROOT
BRANCH   4   7
HETATM    7  N   UNL     1       7.148  27.147  55.346  1.00  0.00    -0.327 N 
HETATM    8  C   UNL     1       6.113  26.262  55.090  1.00  0.00     0.226 C 
HETATM    9  O   UNL     1       5.098  26.131  55.766  1.00  0.00    -0.273 OA
HETATM   10  H   UNL     1       7.965  27.081  54.753  1.00  0.00     0.169 HD
BRANCH   8  11
HETATM   11  C   UNL     1       6.362  25.398  53.847  1.00  0.00     0.081 C 
HETATM   12  C   UNL     1       5.063  25.115  53.076  1.00  0.00     0.034 C 
HETATM   13  C   UNL     1       4.562  26.333  52.300  1.00  0.00     0.127 C 
HETATM   14  N   UNL     1       5.614  26.898  51.451  1.00  0.00    -0.347 N 
HETATM   15  C   UNL     1       5.298  27.698  50.332  1.00  0.00     0.260 C 
HETATM   16  C   UNL     1       6.851  27.225  52.149  1.00  0.00     0.127 C 
HETATM   17  O   UNL     1       6.024  28.641  50.013  1.00  0.00    -0.267 OA
HETATM   18  C   UNL     1       7.403  26.020  52.906  1.00  0.00     0.034 C 
BRANCH  15  19
HETATM   19  C   UNL     1       4.128  27.328  49.545  1.00  0.00     0.072 A 
HETATM   20  S   UNL     1       2.784  28.390  49.496  1.00  0.00    -0.097 SA
HETATM   21  C   UNL     1       1.919  27.355  48.443  1.00  0.00     0.050 A 
HETATM   22  C   UNL     1       2.644  26.234  48.110  1.00  0.00     0.009 A 
HETATM   23  C   UNL     1       3.926  26.225  48.734  1.00  0.00     0.025 A 
ENDBRANCH  15  19
ENDBRANCH   8  11
ENDBRANCH   4   7
BRANCH   1  24
HETATM   24  C   UNL     1       7.714  31.222  59.313  1.00  0.00     0.256 C 
HETATM   25  N   UNL     1       7.291  30.943  60.599  1.00  0.00    -0.323 N 
HETATM   26  H   UNL     1       7.071  29.979  60.815  1.00  0.00     0.169 HD
HETATM   27  O   UNL     1       8.257  32.250  58.928  1.00  0.00    -0.267 OA
BRANCH  25  28
HETATM   28  C   UNL     1       7.127  31.860  61.656  1.00  0.00     0.035 A 
HETATM   29  C   UNL     1       6.005  32.676  61.809  1.00  0.00     0.032 A 
HETATM   30  C   UNL     1       5.866  33.500  62.934  1.00  0.00     0.039 A 
HETATM   31  C   UNL     1       6.850  33.516  63.921  1.00  0.00     0.068 A 
HETATM   32  C   UNL     1       7.988  32.727  63.755  1.00  0.00     0.039 A 
HETATM   33  C   UNL     1       8.124  31.899  62.635  1.00  0.00     0.032 A 
BRANCH  31  34
HETATM   34  O   UNL     1       6.819  34.252  65.072  1.00  0.00    -0.356 OA
HETATM   35  C   UNL     1       5.691  34.054  65.916  1.00  0.00     0.210 C 
ENDBRANCH  31  34
ENDBRANCH  25  28
ENDBRANCH   1  24
TORSDOF 6
ENDMDL
MODEL 5
REMARK VINA RESULT:      -9.3      2.316      3.158
REMARK  6 active torsions:
REMARK  status: ('A' for Active; 'I' for Inactive)
REMARK    1  A    between atoms: O_2  and  C_3 
REMARK    2  A    between atoms: C_6  and  N_7 
REMARK       I    between atoms: N_7  and  C_8 
REMARK    3  A    between atoms: C_8  and  C_9 
REMARK    4  A    between atoms: C_12  and  N_13 
REMARK       I    between atoms: N_13  and  C_14 
REMARK    5  A    between atoms: C_14  and  C_15 
REMARK       I    between atoms: N_18  and  C_19 
REMARK    6  A    between atoms: C_19  and  C_20 
ROOT
HETATM    1  C   UNL     1       5.939  28.365  55.766  1.00  0.00     0.032 A 
HETATM    2  C   UNL     1       4.599  28.717  55.573  1.00  0.00     0.019 A 
HETATM    3  C   UNL     1       3.945  29.542  56.497  1.00  0.00     0.030 A 
HETATM    4  C   UNL     1       4.613  30.017  57.626  1.00  0.00     0.034 A 
HETATM    5  C   UNL     1       5.957  29.668  57.812  1.00  0.00     0.030 A 
HETATM    6  C   UNL     1       6.615  28.842  56.893  1.00  0.00     0.019 A 
ENDROOT
BRANCH   4   7
HETATM    7  N   UNL     1       4.006  30.803  58.628  1.00  0.00    -0.327 N 
HETATM    8  C   UNL     1       4.214  32.149  58.882  1.00  0.00     0.226 C 
HETATM    9  O   UNL     1       5.051  32.860  58.337  1.00  0.00    -0.273 OA
HETATM   10  H   UNL     1       3.340  30.322  59.220  1.00  0.00     0.169 HD
BRANCH   8  11
HETATM   11  C   UNL     1       3.284  32.700  59.972  1.00  0.00     0.081 C 
HETATM   12  C   UNL     1       3.677  32.194  61.369  1.00  0.00     0.034 C 
HETATM   13  C   UNL     1       4.937  32.872  61.908  1.00  0.00     0.127 C 
HETATM   14  N   UNL     1       4.832  34.331  61.842  1.00  0.00    -0.347 N 
HETATM   15  C   UNL     1       5.622  35.159  62.668  1.00  0.00     0.260 C 
HETATM   16  C   UNL     1       4.506  34.859  60.522  1.00  0.00     0.127 C 
HETATM   17  O   UNL     1       6.034  36.243  62.254  1.00  0.00    -0.267 OA
HETATM   18  C   UNL     1       3.229  34.233  59.968  1.00  0.00     0.034 C 
BRANCH  15  19
HETATM   19  C   UNL     1       5.872  34.710  64.032  1.00  0.00     0.072 A 
HETATM   20  S   UNL     1       4.624  34.846  65.199  1.00  0.00    -0.097 SA
HETATM   21  C   UNL     1       5.598  34.148  66.420  1.00  0.00     0.050 A 
HETATM   22  C   UNL     1       6.841  33.791  65.949  1.00  0.00     0.009 A 
HETATM   23  C   UNL     1       6.995  34.101  64.566  1.00  0.00     0.025 A 
ENDBRANCH  15  19
ENDBRANCH   8  11
ENDBRANCH   4   7
BRANCH   1  24
HETATM   24  C   UNL     1       6.637  27.415  54.852  1.00  0.00     0.256 C 
HETATM   25  N   UNL     1       6.186  26.109  54.911  1.00  0.00    -0.323 N 
HETATM   26  H   UNL     1       5.306  25.944  55.382  1.00  0.00     0.169 HD
HETATM   27  O   UNL     1       7.524  27.851  54.130  1.00  0.00    -0.267 OA
BRANCH  25  28
HETATM   28  C   UNL     1       6.823  24.967  54.384  1.00  0.00     0.035 A 
HETATM   29  C   UNL     1       7.193  24.832  53.045  1.00  0.00     0.032 A 
HETATM   30  C   UNL     1       7.905  23.707  52.608  1.00  0.00     0.039 A 
HETATM   31  C   UNL     1       8.256  22.703  53.509  1.00  0.00     0.068 A 
HETATM   32  C   UNL     1       7.859  22.819  54.841  1.00  0.00     0.039 A 
HETATM   33  C   UNL     1       7.154  23.945  55.279  1.00  0.00     0.032 A 
BRANCH  31  34
HETATM   34  O   UNL     1       8.969  21.575  53.214  1.00  0.00    -0.356 OA
HETATM   35  C   UNL     1       8.354  20.336  53.545  1.00  0.00     0.210 C 
ENDBRANCH  31  34
ENDBRANCH  25  28
ENDBRANCH   1  24
TORSDOF 6
ENDMDL
MODEL 6
REMARK VINA RESULT:      -8.9      2.020      3.018
REMARK  6 active torsions:
REMARK  status: ('A' for Active; 'I' for Inactive)
REMARK    1  A    between atoms: O_2  and  C_3 
REMARK    2  A    between atoms: C_6  and  N_7 
REMARK       I    between atoms: N_7  and  C_8 
REMARK    3  A    between atoms: C_8  and  C_9 
REMARK    4  A    between atoms: C_12  and  N_13 
REMARK       I    between atoms: N_13  and  C_14 
REMARK    5  A    between atoms: C_14  and  C_15 
REMARK       I    between atoms: N_18  and  C_19 
REMARK    6  A    between atoms: C_19  and  C_20 
ROOT
HETATM    1  C   UNL     1       5.408  27.523  56.214  1.00  0.00     0.032 A 
HETATM    2  C   UNL     1       6.273  28.105  57.147  1.00  0.00     0.019 A 
HETATM    3  C   UNL     1       5.976  29.356  57.701  1.00  0.00     0.030 A 
HETATM    4  C   UNL     1       4.823  30.046  57.327  1.00  0.00     0.034 A 
HETATM    5  C   UNL     1       3.956  29.456  56.397  1.00  0.00     0.030 A 
HETATM    6  C   UNL     1       4.248  28.207  55.838  1.00  0.00     0.019 A 
ENDROOT
BRANCH   4   7
HETATM    7  N   UNL     1       4.486  31.333  57.797  1.00  0.00    -0.327 N 
HETATM    8  C   UNL     1       3.615  31.651  58.826  1.00  0.00     0.226 C 
HETATM    9  O   UNL     1       2.903  30.858  59.433  1.00  0.00    -0.273 OA
HETATM   10  H   UNL     1       4.943  32.105  57.327  1.00  0.00     0.169 HD
BRANCH   8  11
HETATM   11  C   UNL     1       3.591  33.152  59.144  1.00  0.00     0.081 C 
HETATM   12  C   UNL     1       2.869  33.445  60.468  1.00  0.00     0.034 C 
HETATM   13  C   UNL     1       3.702  33.058  61.691  1.00  0.00     0.127 C 
HETATM   14  N   UNL     1       5.043  33.644  61.635  1.00  0.00    -0.347 N 
HETATM   15  C   UNL     1       5.812  33.823  62.804  1.00  0.00     0.260 C 
HETATM   16  C   UNL     1       5.784  33.353  60.413  1.00  0.00     0.127 C 
HETATM   17  O   UNL     1       7.036  33.691  62.772  1.00  0.00    -0.267 OA
HETATM   18  C   UNL     1       4.998  33.763  59.170  1.00  0.00     0.034 C 
BRANCH  15  19
HETATM   19  C   UNL     1       5.113  34.225  64.018  1.00  0.00     0.072 A 
HETATM   20  S   UNL     1       4.300  35.733  64.054  1.00  0.00    -0.097 SA
HETATM   21  C   UNL     1       3.759  35.480  65.656  1.00  0.00     0.050 A 
HETATM   22  C   UNL     1       4.163  34.261  66.152  1.00  0.00     0.009 A 
HETATM   23  C   UNL     1       4.932  33.529  65.201  1.00  0.00     0.025 A 
ENDBRANCH  15  19
ENDBRANCH   8  11
ENDBRANCH   4   7
BRANCH   1  24
HETATM   24  C   UNL     1       5.741  26.236  55.536  1.00  0.00     0.256 C 
HETATM   25  N   UNL     1       6.855  25.585  56.033  1.00  0.00    -0.323 N 
HETATM   26  H   UNL     1       7.216  25.898  56.925  1.00  0.00     0.169 HD
HETATM   27  O   UNL     1       5.018  25.857  54.624  1.00  0.00    -0.267 OA
BRANCH  25  28
HETATM   28  C   UNL     1       7.556  24.522  55.428  1.00  0.00     0.035 A 
HETATM   29  C   UNL     1       8.173  23.493  56.142  1.00  0.00     0.032 A 
HETATM   30  C   UNL     1       8.775  22.418  55.474  1.00  0.00     0.039 A 
HETATM   31  C   UNL     1       8.766  22.362  54.081  1.00  0.00     0.068 A 
HETATM   32  C   UNL     1       8.180  23.405  53.364  1.00  0.00     0.039 A 
HETATM   33  C   UNL     1       7.573  24.474  54.031  1.00  0.00     0.032 A 
BRANCH  31  34
HETATM   34  O   UNL     1       9.293  21.358  53.317  1.00  0.00    -0.356 OA
HETATM   35  C   UNL     1       8.377  20.378  52.844  1.00  0.00     0.210 C 
ENDBRANCH  31  34
ENDBRANCH  25  28
ENDBRANCH   1  24
TORSDOF 6
ENDMDL
MODEL 7
REMARK VINA RESULT:      -8.7      2.935      3.591
REMARK  6 active torsions:
REMARK  status: ('A' for Active; 'I' for Inactive)
REMARK    1  A    between atoms: O_2  and  C_3 
REMARK    2  A    between atoms: C_6  and  N_7 
REMARK       I    between atoms: N_7  and  C_8 
REMARK    3  A    between atoms: C_8  and  C_9 
REMARK    4  A    between atoms: C_12  and  N_13 
REMARK       I    between atoms: N_13  and  C_14 
REMARK    5  A    between atoms: C_14  and  C_15 
REMARK       I    between atoms: N_18  and  C_19 
REMARK    6  A    between atoms: C_19  and  C_20 
ROOT
HETATM    1  C   UNL     1       7.908  28.981  55.999  1.00  0.00     0.032 A 
HETATM    2  C   UNL     1       9.204  29.161  56.494  1.00  0.00     0.019 A 
HETATM    3  C   UNL     1       9.404  29.586  57.813  1.00  0.00     0.030 A 
HETATM    4  C   UNL     1       8.318  29.845  58.650  1.00  0.00     0.034 A 
HETATM    5  C   UNL     1       7.022  29.657  58.152  1.00  0.00     0.030 A 
HETATM    6  C   UNL     1       6.817  29.234  56.834  1.00  0.00     0.019 A 
ENDROOT
BRANCH   4   7
HETATM    7  N   UNL     1       8.439  30.331  59.970  1.00  0.00    -0.327 N 
HETATM    8  C   UNL     1       8.673  31.637  60.367  1.00  0.00     0.226 C 
HETATM    9  O   UNL     1       8.924  32.578  59.623  1.00  0.00    -0.273 OA
HETATM   10  H   UNL     1       8.334  29.639  60.703  1.00  0.00     0.169 HD
BRANCH   8  11
HETATM   11  C   UNL     1       8.617  31.815  61.890  1.00  0.00     0.081 C 
HETATM   12  C   UNL     1       8.333  33.273  62.286  1.00  0.00     0.034 C 
HETATM   13  C   UNL     1       6.877  33.674  62.046  1.00  0.00     0.127 C 
HETATM   14  N   UNL     1       5.949  32.727  62.667  1.00  0.00    -0.347 N 
HETATM   15  C   UNL     1       4.625  33.101  62.982  1.00  0.00     0.260 C 
HETATM   16  C   UNL     1       6.153  31.335  62.284  1.00  0.00     0.127 C 
HETATM   17  O   UNL     1       3.707  32.286  62.888  1.00  0.00    -0.267 OA
HETATM   18  C   UNL     1       7.588  30.886  62.547  1.00  0.00     0.034 C 
BRANCH  15  19
HETATM   19  C   UNL     1       4.405  34.454  63.476  1.00  0.00     0.072 A 
HETATM   20  S   UNL     1       4.972  34.878  65.036  1.00  0.00    -0.097 SA
HETATM   21  C   UNL     1       4.406  36.484  64.881  1.00  0.00     0.050 A 
HETATM   22  C   UNL     1       3.819  36.709  63.657  1.00  0.00     0.009 A 
HETATM   23  C   UNL     1       3.831  35.541  62.838  1.00  0.00     0.025 A 
ENDBRANCH  15  19
ENDBRANCH   8  11
ENDBRANCH   4   7
BRANCH   1  24
HETATM   24  C   UNL     1       7.660  28.619  54.573  1.00  0.00     0.256 C 
HETATM   25  N   UNL     1       6.334  28.653  54.183  1.00  0.00    -0.323 N 
HETATM   26  H   UNL     1       5.681  29.117  54.801  1.00  0.00     0.169 HD
HETATM   27  O   UNL     1       8.622  28.338  53.870  1.00  0.00    -0.267 OA
BRANCH  25  28
HETATM   28  C   UNL     1       5.781  28.105  53.008  1.00  0.00     0.035 A 
HETATM   29  C   UNL     1       5.121  28.858  52.036  1.00  0.00     0.032 A 
HETATM   30  C   UNL     1       4.676  28.263  50.848  1.00  0.00     0.039 A 
HETATM   31  C   UNL     1       4.887  26.904  50.620  1.00  0.00     0.068 A 
HETATM   32  C   UNL     1       5.516  26.142  51.604  1.00  0.00     0.039 A 
HETATM   33  C   UNL     1       5.967  26.737  52.786  1.00  0.00     0.032 A 
BRANCH  31  34
HETATM   34  O   UNL     1       4.525  26.215  49.496  1.00  0.00    -0.356 OA
HETATM   35  C   UNL     1       4.853  26.822  48.252  1.00  0.00     0.210 C 
ENDBRANCH  31  34
ENDBRANCH  25  28
ENDBRANCH   1  24
TORSDOF 6
ENDMDL
MODEL 8
REMARK VINA RESULT:      -8.5      8.297      9.673
REMARK  6 active torsions:
REMARK  status: ('A' for Active; 'I' for Inactive)
REMARK    1  A    between atoms: O_2  and  C_3 
REMARK    2  A    between atoms: C_6  and  N_7 
REMARK       I    between atoms: N_7  and  C_8 
REMARK    3  A    between atoms: C_8  and  C_9 
REMARK    4  A    between atoms: C_12  and  N_13 
REMARK       I    between atoms: N_13  and  C_14 
REMARK    5  A    between atoms: C_14  and  C_15 
REMARK       I    between atoms: N_18  and  C_19 
REMARK    6  A    between atoms: C_19  and  C_20 
ROOT
HETATM    1  C   UNL     1       5.304  26.598  51.993  1.00  0.00     0.032 A 
HETATM    2  C   UNL     1       5.108  26.625  50.609  1.00  0.00     0.019 A 
HETATM    3  C   UNL     1       4.915  27.842  49.945  1.00  0.00     0.030 A 
HETATM    4  C   UNL     1       4.905  29.045  50.652  1.00  0.00     0.034 A 
HETATM    5  C   UNL     1       5.109  29.015  52.038  1.00  0.00     0.030 A 
HETATM    6  C   UNL     1       5.300  27.800  52.707  1.00  0.00     0.019 A 
ENDROOT
BRANCH   4   7
HETATM    7  N   UNL     1       4.660  30.304  50.063  1.00  0.00    -0.327 N 
HETATM    8  C   UNL     1       5.596  31.193  49.560  1.00  0.00     0.226 C 
HETATM    9  O   UNL     1       6.814  31.075  49.644  1.00  0.00    -0.273 OA
HETATM   10  H   UNL     1       3.687  30.576  49.999  1.00  0.00     0.169 HD
BRANCH   8  11
HETATM   11  C   UNL     1       4.956  32.410  48.880  1.00  0.00     0.081 C 
HETATM   12  C   UNL     1       4.793  33.590  49.850  1.00  0.00     0.034 C 
HETATM   13  C   UNL     1       6.119  34.286  50.157  1.00  0.00     0.127 C 
HETATM   14  N   UNL     1       6.829  34.655  48.930  1.00  0.00    -0.347 N 
HETATM   15  C   UNL     1       7.802  35.677  48.927  1.00  0.00     0.260 C 
HETATM   16  C   UNL     1       7.046  33.555  47.998  1.00  0.00     0.127 C 
HETATM   17  O   UNL     1       8.791  35.595  48.198  1.00  0.00    -0.267 OA
HETATM   18  C   UNL     1       5.736  32.859  47.637  1.00  0.00     0.034 C 
BRANCH  15  19
HETATM   19  C   UNL     1       7.558  36.844  49.765  1.00  0.00     0.072 A 
HETATM   20  S   UNL     1       6.252  37.887  49.385  1.00  0.00    -0.097 SA
HETATM   21  C   UNL     1       6.584  38.900  50.723  1.00  0.00     0.050 A 
HETATM   22  C   UNL     1       7.651  38.445  51.464  1.00  0.00     0.009 A 
HETATM   23  C   UNL     1       8.204  37.249  50.921  1.00  0.00     0.025 A 
ENDBRANCH  15  19
ENDBRANCH   8  11
ENDBRANCH   4   7
BRANCH   1  24
HETATM   24  C   UNL     1       5.419  25.313  52.742  1.00  0.00     0.256 C 
HETATM   25  N   UNL     1       6.709  24.941  53.071  1.00  0.00    -0.323 N 
HETATM   26  H   UNL     1       7.431  25.645  52.984  1.00  0.00     0.169 HD
HETATM   27  O   UNL     1       4.391  24.704  53.011  1.00  0.00    -0.267 OA
BRANCH  25  28
HETATM   28  C   UNL     1       7.140  23.675  53.518  1.00  0.00     0.035 A 
HETATM   29  C   UNL     1       7.680  22.698  52.680  1.00  0.00     0.032 A 
HETATM   30  C   UNL     1       8.173  21.496  53.205  1.00  0.00     0.039 A 
HETATM   31  C   UNL     1       8.130  21.258  54.578  1.00  0.00     0.068 A 
HETATM   32  C   UNL     1       7.560  22.218  55.414  1.00  0.00     0.039 A 
HETATM   33  C   UNL     1       7.075  23.421  54.891  1.00  0.00     0.032 A 
BRANCH  31  34
HETATM   34  O   UNL     1       8.599  20.142  55.213  1.00  0.00    -0.356 OA
HETATM   35  C   UNL     1       9.231  20.352  56.471  1.00  0.00     0.210 C 
ENDBRANCH  31  34
ENDBRANCH  25  28
ENDBRANCH   1  24
TORSDOF 6
ENDMDL
MODEL 9
REMARK VINA RESULT:      -8.4      8.679     11.151
REMARK  6 active torsions:
REMARK  status: ('A' for Active; 'I' for Inactive)
REMARK    1  A    between atoms: O_2  and  C_3 
REMARK    2  A    between atoms: C_6  and  N_7 
REMARK       I    between atoms: N_7  and  C_8 
REMARK    3  A    between atoms: C_8  and  C_9 
REMARK    4  A    between atoms: C_12  and  N_13 
REMARK       I    between atoms: N_13  and  C_14 
REMARK    5  A    between atoms: C_14  and  C_15 
REMARK       I    between atoms: N_18  and  C_19 
REMARK    6  A    between atoms: C_19  and  C_20 
ROOT
HETATM    1  C   UNL     1       4.991  26.457  51.764  1.00  0.00     0.032 A 
HETATM    2  C   UNL     1       5.137  26.313  50.381  1.00  0.00     0.019 A 
HETATM    3  C   UNL     1       4.803  27.366  49.521  1.00  0.00     0.030 A 
HETATM    4  C   UNL     1       4.311  28.570  50.027  1.00  0.00     0.034 A 
HETATM    5  C   UNL     1       4.173  28.713  51.415  1.00  0.00     0.030 A 
HETATM    6  C   UNL     1       4.504  27.662  52.278  1.00  0.00     0.019 A 
ENDROOT
BRANCH   4   7
HETATM    7  N   UNL     1       3.900  29.654  49.223  1.00  0.00    -0.327 N 
HETATM    8  C   UNL     1       3.536  29.619  47.886  1.00  0.00     0.226 C 
HETATM    9  O   UNL     1       3.617  28.643  47.147  1.00  0.00    -0.273 OA
HETATM   10  H   UNL     1       3.863  30.554  49.685  1.00  0.00     0.169 HD
BRANCH   8  11
HETATM   11  C   UNL     1       3.023  30.970  47.373  1.00  0.00     0.081 C 
HETATM   12  C   UNL     1       3.435  32.127  48.296  1.00  0.00     0.034 C 
HETATM   13  C   UNL     1       4.916  32.485  48.167  1.00  0.00     0.127 C 
HETATM   14  N   UNL     1       5.294  32.711  46.770  1.00  0.00    -0.347 N 
HETATM   15  C   UNL     1       6.432  33.476  46.436  1.00  0.00     0.260 C 
HETATM   16  C   UNL     1       4.963  31.618  45.864  1.00  0.00     0.127 C 
HETATM   17  O   UNL     1       7.113  33.186  45.451  1.00  0.00    -0.267 OA
HETATM   18  C   UNL     1       3.481  31.259  45.938  1.00  0.00     0.034 C 
BRANCH  15  19
HETATM   19  C   UNL     1       6.726  34.644  47.257  1.00  0.00     0.072 A 
HETATM   20  S   UNL     1       5.703  36.016  47.156  1.00  0.00    -0.097 SA
HETATM   21  C   UNL     1       6.612  36.864  48.331  1.00  0.00     0.050 A 
HETATM   22  C   UNL     1       7.660  36.114  48.815  1.00  0.00     0.009 A 
HETATM   23  C   UNL     1       7.717  34.826  48.206  1.00  0.00     0.025 A 
ENDBRANCH  15  19
ENDBRANCH   8  11
ENDBRANCH   4   7
BRANCH   1  24
HETATM   24  C   UNL     1       5.250  25.324  52.699  1.00  0.00     0.256 C 
HETATM   25  N   UNL     1       6.584  25.082  52.971  1.00  0.00    -0.323 N 
HETATM   26  H   UNL     1       7.247  25.799  52.707  1.00  0.00     0.169 HD
HETATM   27  O   UNL     1       4.289  24.715  53.153  1.00  0.00    -0.267 OA
BRANCH  25  28
HETATM   28  C   UNL     1       7.132  23.934  53.579  1.00  0.00     0.035 A 
HETATM   29  C   UNL     1       7.086  23.686  54.952  1.00  0.00     0.032 A 
HETATM   30  C   UNL     1       7.570  22.481  55.479  1.00  0.00     0.039 A 
HETATM   31  C   UNL     1       8.105  21.509  54.635  1.00  0.00     0.068 A 
HETATM   32  C   UNL     1       8.183  21.768  53.267  1.00  0.00     0.039 A 
HETATM   33  C   UNL     1       7.694  22.968  52.740  1.00  0.00     0.032 A 
BRANCH  31  34
HETATM   34  O   UNL     1       8.584  20.288  55.022  1.00  0.00    -0.356 OA
HETATM   35  C   UNL     1       9.405  20.273  56.183  1.00  0.00     0.210 C 
ENDBRANCH  31  34
ENDBRANCH  25  28
ENDBRANCH   1  24
TORSDOF 6
ENDMDL
MODEL 10
REMARK VINA RESULT:      -8.2      8.393     11.141
REMARK  6 active torsions:
REMARK  status: ('A' for Active; 'I' for Inactive)
REMARK    1  A    between atoms: O_2  and  C_3 
REMARK    2  A    between atoms: C_6  and  N_7 
REMARK       I    between atoms: N_7  and  C_8 
REMARK    3  A    between atoms: C_8  and  C_9 
REMARK    4  A    between atoms: C_12  and  N_13 
REMARK       I    between atoms: N_13  and  C_14 
REMARK    5  A    between atoms: C_14  and  C_15 
REMARK       I    between atoms: N_18  and  C_19 
REMARK    6  A    between atoms: C_19  and  C_20 
ROOT
HETATM    1  C   UNL     1       5.053  26.834  52.390  1.00  0.00     0.032 A 
HETATM    2  C   UNL     1       5.490  27.143  51.098  1.00  0.00     0.019 A 
HETATM    3  C   UNL     1       5.240  28.407  50.550  1.00  0.00     0.030 A 
HETATM    4  C   UNL     1       4.545  29.374  51.278  1.00  0.00     0.034 A 
HETATM    5  C   UNL     1       4.115  29.063  52.575  1.00  0.00     0.030 A 
HETATM    6  C   UNL     1       4.360  27.801  53.126  1.00  0.00     0.019 A 
ENDROOT
BRANCH   4   7
HETATM    7  N   UNL     1       4.205  30.648  50.773  1.00  0.00    -0.327 N 
HETATM    8  C   UNL     1       5.055  31.577  50.197  1.00  0.00     0.226 C 
HETATM    9  O   UNL     1       6.277  31.486  50.128  1.00  0.00    -0.273 OA
HETATM   10  H   UNL     1       3.227  30.899  50.838  1.00  0.00     0.169 HD
BRANCH   8  11
HETATM   11  C   UNL     1       4.313  32.802  49.647  1.00  0.00     0.081 C 
HETATM   12  C   UNL     1       5.269  33.973  49.368  1.00  0.00     0.034 C 
HETATM   13  C   UNL     1       6.118  33.754  48.115  1.00  0.00     0.127 C 
HETATM   14  N   UNL     1       5.289  33.410  46.958  1.00  0.00    -0.347 N 
HETATM   15  C   UNL     1       5.754  33.608  45.641  1.00  0.00     0.260 C 
HETATM   16  C   UNL     1       4.398  32.274  47.163  1.00  0.00     0.127 C 
HETATM   17  O   UNL     1       5.443  32.824  44.744  1.00  0.00    -0.267 OA
HETATM   18  C   UNL     1       3.505  32.475  48.385  1.00  0.00     0.034 C 
BRANCH  15  19
HETATM   19  C   UNL     1       6.555  34.797  45.380  1.00  0.00     0.072 A 
HETATM   20  S   UNL     1       5.774  36.315  45.229  1.00  0.00    -0.097 SA
HETATM   21  C   UNL     1       7.257  37.130  44.983  1.00  0.00     0.050 A 
HETATM   22  C   UNL     1       8.333  36.274  45.040  1.00  0.00     0.009 A 
HETATM   23  C   UNL     1       7.931  34.929  45.284  1.00  0.00     0.025 A 
ENDBRANCH  15  19
ENDBRANCH   8  11
ENDBRANCH   4   7
BRANCH   1  24
HETATM   24  C   UNL     1       5.221  25.469  52.966  1.00  0.00     0.256 C 
HETATM   25  N   UNL     1       6.504  25.163  53.382  1.00  0.00    -0.323 N 
HETATM   26  H   UNL     1       7.157  25.930  53.470  1.00  0.00     0.169 HD
HETATM   27  O   UNL     1       4.237  24.744  53.037  1.00  0.00    -0.267 OA
BRANCH  25  28
HETATM   28  C   UNL     1       7.012  23.887  53.699  1.00  0.00     0.035 A 
HETATM   29  C   UNL     1       7.508  22.991  52.750  1.00  0.00     0.032 A 
HETATM   30  C   UNL     1       8.082  21.775  53.144  1.00  0.00     0.039 A 
HETATM   31  C   UNL     1       8.166  21.442  54.495  1.00  0.00     0.068 A 
HETATM   32  C   UNL     1       7.641  22.320  55.443  1.00  0.00     0.039 A 
HETATM   33  C   UNL     1       7.074  23.536  55.051  1.00  0.00     0.032 A 
BRANCH  31  34
HETATM   34  O   UNL     1       8.725  20.304  55.006  1.00  0.00    -0.356 OA
HETATM   35  C   UNL     1       9.172  20.372  56.355  1.00  0.00     0.210 C 
ENDBRANCH  31  34
ENDBRANCH  25  28
ENDBRANCH   1  24
TORSDOF 6
ENDMDL
