MODEL 1
REMARK VINA RESULT:     -10.5      0.000      0.000
REMARK  5 active torsions:
REMARK  status: ('A' for Active; 'I' for Inactive)
REMARK    1  A    between atoms: C_2  and  C_3 
REMARK    2  A    between atoms: N_12  and  N_13 
REMARK       I    between atoms: N_13  and  C_14 
REMARK    3  A    between atoms: C_14  and  C_15 
REMARK    4  A    between atoms: C_15  and  N_16 
REMARK       I    between atoms: N_16  and  C_17 
REMARK    5  A    between atoms: C_17  and  C_18 
ROOT
HETATM    1  N   UNL     1       8.816  28.249  57.121  1.00  0.00    -0.255 N 
HETATM    2  C   UNL     1       8.198  29.206  57.907  1.00  0.00     0.254 C 
HETATM    3  O   UNL     1       6.981  29.343  58.011  1.00  0.00    -0.270 OA
HETATM    4  H   UNL     1       9.704  27.872  57.469  1.00  0.00     0.191 HD
ENDROOT
BRANCH   1   5
HETATM    5  N   UNL     1       8.002  27.357  56.442  1.00  0.00    -0.167 N 
HETATM    6  C   UNL     1       7.492  27.583  55.195  1.00  0.00     0.345 C 
HETATM    7  N   UNL     1       6.745  26.478  54.838  1.00  0.00    -0.319 N 
HETATM    8  O   UNL     1       7.635  28.569  54.489  1.00  0.00    -0.245 OA
HETATM    9  C   UNL     1       6.878  25.392  55.796  1.00  0.00     0.141 C 
HETATM   10  H   UNL     1       6.417  26.376  53.888  1.00  0.00     0.166 HD
HETATM   11  C   UNL     1       5.515  25.014  56.387  1.00  0.00     0.055 C 
HETATM   12  C   UNL     1       7.686  26.104  56.911  1.00  0.00     0.279 C 
HETATM   13  O   UNL     1       7.974  25.629  58.004  1.00  0.00    -0.268 OA
BRANCH   9  14
HETATM   14  C   UNL     1       7.589  24.217  55.129  1.00  0.00    -0.021 A 
HETATM   15  C   UNL     1       7.210  23.808  53.834  1.00  0.00     0.010 A 
HETATM   16  C   UNL     1       7.861  22.757  53.185  1.00  0.00     0.001 A 
HETATM   17  C   UNL     1       8.912  22.096  53.811  1.00  0.00     0.000 A 
HETATM   18  C   UNL     1       9.313  22.490  55.084  1.00  0.00     0.001 A 
HETATM   19  C   UNL     1       8.662  23.542  55.736  1.00  0.00     0.010 A 
ENDBRANCH   9  14
ENDBRANCH   1   5
BRANCH   2  20
HETATM   20  C   UNL     1       9.190  30.066  58.687  1.00  0.00     0.227 C 
BRANCH  20  21
HETATM   21  N   UNL     1       8.613  30.567  59.920  1.00  0.00    -0.348 N 
HETATM   22  C   UNL     1       8.650  31.913  60.214  1.00  0.00     0.252 C 
HETATM   23  O   UNL     1       9.263  32.704  59.502  1.00  0.00    -0.268 OA
HETATM   24  H   UNL     1       8.047  29.925  60.458  1.00  0.00     0.163 HD
BRANCH  22  25
HETATM   25  C   UNL     1       7.895  32.384  61.414  1.00  0.00     0.033 A 
HETATM   26  C   UNL     1       6.580  32.860  61.347  1.00  0.00     0.036 A 
HETATM   27  C   UNL     1       5.950  33.319  62.508  1.00  0.00     0.012 A 
HETATM   28 BR   UNL     1       4.183  33.986  62.408  1.00  0.00    -0.051 Br
HETATM   29  C   UNL     1       6.607  33.293  63.736  1.00  0.00     0.019 A 
HETATM   30  C   UNL     1       7.907  32.797  63.812  1.00  0.00     0.002 A 
HETATM   31  C   UNL     1       8.548  32.344  62.655  1.00  0.00     0.017 A 
ENDBRANCH  22  25
ENDBRANCH  20  21
ENDBRANCH   2  20
TORSDOF 5
ENDMDL
MODEL 2
REMARK VINA RESULT:     -10.3      1.258      1.607
REMARK  5 active torsions:
REMARK  status: ('A' for Active; 'I' for Inactive)
REMARK    1  A    between atoms: C_2  and  C_3 
REMARK    2  A    between atoms: N_12  and  N_13 
REMARK       I    between atoms: N_13  and  C_14 
REMARK    3  A    between atoms: C_14  and  C_15 
REMARK    4  A    between atoms: C_15  and  N_16 
REMARK       I    between atoms: N_16  and  C_17 
REMARK    5  A    between atoms: C_17  and  C_18 
ROOT
HETATM    1  N   UNL     1       7.839  28.828  58.030  1.00  0.00    -0.255 N 
HETATM    2  C   UNL     1       9.048  29.198  57.468  1.00  0.00     0.254 C 
HETATM    3  O   UNL     1       9.468  28.794  56.386  1.00  0.00    -0.270 OA
HETATM    4  H   UNL     1       7.355  29.539  58.589  1.00  0.00     0.191 HD
ENDROOT
BRANCH   1   5
HETATM    5  N   UNL     1       7.028  27.977  57.297  1.00  0.00    -0.167 N 
HETATM    6  C   UNL     1       6.137  28.397  56.350  1.00  0.00     0.345 C 
HETATM    7  N   UNL     1       5.523  27.277  55.824  1.00  0.00    -0.319 N 
HETATM    8  O   UNL     1       5.885  29.540  56.005  1.00  0.00    -0.245 OA
HETATM    9  C   UNL     1       6.126  26.043  56.303  1.00  0.00     0.141 C 
HETATM   10  H   UNL     1       4.948  27.358  54.997  1.00  0.00     0.166 HD
HETATM   11  C   UNL     1       5.092  25.174  57.028  1.00  0.00     0.055 C 
HETATM   12  C   UNL     1       7.093  26.606  57.375  1.00  0.00     0.279 C 
HETATM   13  O   UNL     1       7.775  25.941  58.148  1.00  0.00    -0.268 OA
BRANCH   9  14
HETATM   14  C   UNL     1       6.798  25.326  55.135  1.00  0.00    -0.021 A 
HETATM   15  C   UNL     1       7.002  23.932  55.188  1.00  0.00     0.010 A 
HETATM   16  C   UNL     1       7.587  23.242  54.123  1.00  0.00     0.001 A 
HETATM   17  C   UNL     1       7.972  23.929  52.977  1.00  0.00     0.000 A 
HETATM   18  C   UNL     1       7.769  25.303  52.895  1.00  0.00     0.001 A 
HETATM   19  C   UNL     1       7.184  25.995  53.961  1.00  0.00     0.010 A 
ENDBRANCH   9  14
ENDBRANCH   1   5
BRANCH   2  20
HETATM   20  C   UNL     1       9.809  30.217  58.314  1.00  0.00     0.227 C 
BRANCH  20  21
HETATM   21  N   UNL     1       9.111  30.519  59.549  1.00  0.00    -0.348 N 
HETATM   22  C   UNL     1       8.883  31.826  59.923  1.00  0.00     0.252 C 
HETATM   23  O   UNL     1       9.355  32.762  59.284  1.00  0.00    -0.268 OA
HETATM   24  H   UNL     1       8.662  29.749  60.025  1.00  0.00     0.163 HD
BRANCH  22  25
HETATM   25  C   UNL     1       8.016  32.067  61.116  1.00  0.00     0.033 A 
HETATM   26  C   UNL     1       6.623  32.186  61.033  1.00  0.00     0.036 A 
HETATM   27  C   UNL     1       5.882  32.448  62.189  1.00  0.00     0.012 A 
HETATM   28 BR   UNL     1       4.003  32.634  62.069  1.00  0.00    -0.051 Br
HETATM   29  C   UNL     1       6.508  32.577  63.427  1.00  0.00     0.019 A 
HETATM   30  C   UNL     1       7.891  32.436  63.517  1.00  0.00     0.002 A 
HETATM   31  C   UNL     1       8.642  32.181  62.366  1.00  0.00     0.017 A 
ENDBRANCH  22  25
ENDBRANCH  20  21
ENDBRANCH   2  20
TORSDOF 5
ENDMDL
MODEL 3
REMARK VINA RESULT:     -10.0      2.146      2.954
REMARK  5 active torsions:
REMARK  status: ('A' for Active; 'I' for Inactive)
REMARK    1  A    between atoms: C_2  and  C_3 
REMARK    2  A    between atoms: N_12  and  N_13 
REMARK       I    between atoms: N_13  and  C_14 
REMARK    3  A    between atoms: C_14  and  C_15 
REMARK    4  A    between atoms: C_15  and  N_16 
REMARK       I    between atoms: N_16  and  C_17 
REMARK    5  A    between atoms: C_17  and  C_18 
ROOT
HETATM    1  N   UNL     1       6.232  28.077  56.205  1.00  0.00    -0.255 N 
HETATM    2  C   UNL     1       5.302  29.069  55.949  1.00  0.00     0.254 C 
HETATM    3  O   UNL     1       4.813  29.299  54.845  1.00  0.00    -0.270 OA
HETATM    4  H   UNL     1       6.183  27.627  57.125  1.00  0.00     0.191 HD
ENDROOT
BRANCH   1   5
HETATM    5  N   UNL     1       6.600  27.259  55.148  1.00  0.00    -0.167 N 
HETATM    6  C   UNL     1       7.608  27.549  54.272  1.00  0.00     0.345 C 
HETATM    7  N   UNL     1       7.694  26.507  53.370  1.00  0.00    -0.319 N 
HETATM    8  O   UNL     1       8.322  28.538  54.244  1.00  0.00    -0.245 OA
HETATM    9  C   UNL     1       6.834  25.393  53.734  1.00  0.00     0.141 C 
HETATM   10  H   UNL     1       8.482  26.450  52.739  1.00  0.00     0.166 HD
HETATM   11  C   UNL     1       5.823  25.096  52.620  1.00  0.00     0.055 C 
HETATM   12  C   UNL     1       6.052  26.020  54.915  1.00  0.00     0.279 C 
HETATM   13  O   UNL     1       5.116  25.502  55.514  1.00  0.00    -0.268 OA
BRANCH   9  14
HETATM   14  C   UNL     1       7.698  24.187  54.095  1.00  0.00    -0.021 A 
HETATM   15  C   UNL     1       8.143  24.011  55.421  1.00  0.00     0.010 A 
HETATM   16  C   UNL     1       8.910  22.903  55.789  1.00  0.00     0.001 A 
HETATM   17  C   UNL     1       9.241  21.940  54.842  1.00  0.00     0.000 A 
HETATM   18  C   UNL     1       8.802  22.085  53.529  1.00  0.00     0.001 A 
HETATM   19  C   UNL     1       8.035  23.194  53.159  1.00  0.00     0.010 A 
ENDBRANCH   9  14
ENDBRANCH   1   5
BRANCH   2  20
HETATM   20  C   UNL     1       4.894  29.839  57.203  1.00  0.00     0.227 C 
BRANCH  20  21
HETATM   21  N   UNL     1       6.030  30.103  58.065  1.00  0.00    -0.348 N 
HETATM   22  C   UNL     1       6.435  31.397  58.314  1.00  0.00     0.252 C 
HETATM   23  O   UNL     1       5.920  32.348  57.731  1.00  0.00    -0.268 OA
HETATM   24  H   UNL     1       6.395  29.326  58.596  1.00  0.00     0.163 HD
BRANCH  22  25
HETATM   25  C   UNL     1       7.502  31.607  59.338  1.00  0.00     0.033 A 
HETATM   26  C   UNL     1       7.223  31.899  60.679  1.00  0.00     0.036 A 
HETATM   27  C   UNL     1       8.275  32.120  61.572  1.00  0.00     0.012 A 
HETATM   28 BR   UNL     1       7.894  32.538  63.377  1.00  0.00    -0.051 Br
HETATM   29  C   UNL     1       9.601  32.037  61.151  1.00  0.00     0.019 A 
HETATM   30  C   UNL     1       9.883  31.724  59.823  1.00  0.00     0.002 A 
HETATM   31  C   UNL     1       8.838  31.509  58.920  1.00  0.00     0.017 A 
ENDBRANCH  22  25
ENDBRANCH  20  21
ENDBRANCH   2  20
TORSDOF 5
ENDMDL
MODEL 4
REMARK VINA RESULT:      -9.8      1.712      2.235
REMARK  5 active torsions:
REMARK  status: ('A' for Active; 'I' for Inactive)
REMARK    1  A    between atoms: C_2  and  C_3 
REMARK    2  A    between atoms: N_12  and  N_13 
REMARK       I    between atoms: N_13  and  C_14 
REMARK    3  A    between atoms: C_14  and  C_15 
REMARK    4  A    between atoms: C_15  and  N_16 
REMARK       I    between atoms: N_16  and  C_17 
REMARK    5  A    between atoms: C_17  and  C_18 
ROOT
HETATM    1  N   UNL     1       8.767  28.825  57.748  1.00  0.00    -0.255 N 
HETATM    2  C   UNL     1       8.261  29.920  58.426  1.00  0.00     0.254 C 
HETATM    3  O   UNL     1       7.417  30.692  57.974  1.00  0.00    -0.270 OA
HETATM    4  H   UNL     1       9.014  28.007  58.314  1.00  0.00     0.191 HD
ENDROOT
BRANCH   1   5
HETATM    5  N   UNL     1       8.251  28.559  56.489  1.00  0.00    -0.167 N 
HETATM    6  C   UNL     1       8.812  29.001  55.324  1.00  0.00     0.345 C 
HETATM    7  N   UNL     1       8.037  28.534  54.280  1.00  0.00    -0.319 N 
HETATM    8  O   UNL     1       9.808  29.691  55.180  1.00  0.00    -0.245 OA
HETATM    9  C   UNL     1       7.009  27.608  54.731  1.00  0.00     0.141 C 
HETATM   10  H   UNL     1       8.370  28.612  53.330  1.00  0.00     0.166 HD
HETATM   11  C   UNL     1       5.612  28.123  54.363  1.00  0.00     0.055 C 
HETATM   12  C   UNL     1       7.165  27.746  56.266  1.00  0.00     0.279 C 
HETATM   13  O   UNL     1       6.443  27.229  57.111  1.00  0.00    -0.268 OA
BRANCH   9  14
HETATM   14  C   UNL     1       7.303  26.219  54.170  1.00  0.00    -0.021 A 
HETATM   15  C   UNL     1       7.538  26.051  52.790  1.00  0.00     0.010 A 
HETATM   16  C   UNL     1       7.839  24.798  52.252  1.00  0.00     0.001 A 
HETATM   17  C   UNL     1       7.922  23.685  53.082  1.00  0.00     0.000 A 
HETATM   18  C   UNL     1       7.707  23.828  54.449  1.00  0.00     0.001 A 
HETATM   19  C   UNL     1       7.404  25.082  54.990  1.00  0.00     0.010 A 
ENDBRANCH   9  14
ENDBRANCH   1   5
BRANCH   2  20
HETATM   20  C   UNL     1       8.824  30.056  59.838  1.00  0.00     0.227 C 
BRANCH  20  21
HETATM   21  N   UNL     1       7.960  30.854  60.687  1.00  0.00    -0.348 N 
HETATM   22  C   UNL     1       8.495  31.785  61.552  1.00  0.00     0.252 C 
HETATM   23  O   UNL     1       9.709  31.886  61.708  1.00  0.00    -0.268 OA
HETATM   24  H   UNL     1       6.969  30.820  60.498  1.00  0.00     0.163 HD
BRANCH  22  25
HETATM   25  C   UNL     1       7.548  32.688  62.275  1.00  0.00     0.033 A 
HETATM   26  C   UNL     1       7.606  32.901  63.658  1.00  0.00     0.036 A 
HETATM   27  C   UNL     1       6.662  33.731  64.269  1.00  0.00     0.012 A 
HETATM   28 BR   UNL     1       6.727  33.996  66.141  1.00  0.00    -0.051 Br
HETATM   29  C   UNL     1       5.674  34.364  63.519  1.00  0.00     0.019 A 
HETATM   30  C   UNL     1       5.628  34.174  62.140  1.00  0.00     0.002 A 
HETATM   31  C   UNL     1       6.562  33.340  61.520  1.00  0.00     0.017 A 
ENDBRANCH  22  25
ENDBRANCH  20  21
ENDBRANCH   2  20
TORSDOF 5
ENDMDL
MODEL 5
REMARK VINA RESULT:      -9.3      2.871      3.609
REMARK  5 active torsions:
REMARK  status: ('A' for Active; 'I' for Inactive)
REMARK    1  A    between atoms: C_2  and  C_3 
REMARK    2  A    between atoms: N_12  and  N_13 
REMARK       I    between atoms: N_13  and  C_14 
REMARK    3  A    between atoms: C_14  and  C_15 
REMARK    4  A    between atoms: C_15  and  N_16 
REMARK       I    between atoms: N_16  and  C_17 
REMARK    5  A    between atoms: C_17  and  C_18 
ROOT
HETATM    1  N   UNL     1       6.799  28.138  56.282  1.00  0.00    -0.255 N 
HETATM    2  C   UNL     1       7.772  27.986  57.253  1.00  0.00     0.254 C 
HETATM    3  O   UNL     1       8.629  27.105  57.251  1.00  0.00    -0.270 OA
HETATM    4  H   UNL     1       6.506  29.098  56.070  1.00  0.00     0.191 HD
ENDROOT
BRANCH   1   5
HETATM    5  N   UNL     1       6.825  27.260  55.210  1.00  0.00    -0.167 N 
HETATM    6  C   UNL     1       7.558  27.461  54.075  1.00  0.00     0.345 C 
HETATM    7  N   UNL     1       7.348  26.380  53.241  1.00  0.00    -0.319 N 
HETATM    8  O   UNL     1       8.274  28.409  53.797  1.00  0.00    -0.245 OA
HETATM    9  C   UNL     1       6.580  25.328  53.888  1.00  0.00     0.141 C 
HETATM   10  H   UNL     1       7.924  26.256  52.420  1.00  0.00     0.166 HD
HETATM   11  C   UNL     1       5.287  25.041  53.115  1.00  0.00     0.055 C 
HETATM   12  C   UNL     1       6.184  26.043  55.205  1.00  0.00     0.279 C 
HETATM   13  O   UNL     1       5.433  25.600  56.066  1.00  0.00    -0.268 OA
BRANCH   9  14
HETATM   14  C   UNL     1       7.462  24.094  54.059  1.00  0.00    -0.021 A 
HETATM   15  C   UNL     1       8.240  23.941  55.225  1.00  0.00     0.010 A 
HETATM   16  C   UNL     1       9.034  22.809  55.424  1.00  0.00     0.001 A 
HETATM   17  C   UNL     1       9.061  21.800  54.467  1.00  0.00     0.000 A 
HETATM   18  C   UNL     1       8.292  21.923  53.314  1.00  0.00     0.001 A 
HETATM   19  C   UNL     1       7.496  23.055  53.113  1.00  0.00     0.010 A 
ENDBRANCH   9  14
ENDBRANCH   1   5
BRANCH   2  20
HETATM   20  C   UNL     1       7.711  29.068  58.330  1.00  0.00     0.227 C 
BRANCH  20  21
HETATM   21  N   UNL     1       6.548  29.920  58.170  1.00  0.00    -0.348 N 
HETATM   22  C   UNL     1       6.655  31.286  58.317  1.00  0.00     0.252 C 
HETATM   23  O   UNL     1       7.703  31.806  58.692  1.00  0.00    -0.268 OA
HETATM   24  H   UNL     1       5.715  29.495  57.788  1.00  0.00     0.163 HD
BRANCH  22  25
HETATM   25  C   UNL     1       5.462  32.119  57.977  1.00  0.00     0.033 A 
HETATM   26  C   UNL     1       4.605  31.820  56.910  1.00  0.00     0.036 A 
HETATM   27  C   UNL     1       3.529  32.667  56.630  1.00  0.00     0.012 A 
HETATM   28 BR   UNL     1       2.389  32.274  55.173  1.00  0.00    -0.051 Br
HETATM   29  C   UNL     1       3.285  33.796  57.409  1.00  0.00     0.019 A 
HETATM   30  C   UNL     1       4.121  34.083  58.486  1.00  0.00     0.002 A 
HETATM   31  C   UNL     1       5.205  33.247  58.769  1.00  0.00     0.017 A 
ENDBRANCH  22  25
ENDBRANCH  20  21
ENDBRANCH   2  20
TORSDOF 5
ENDMDL
MODEL 6
REMARK VINA RESULT:      -9.1      2.106      2.571
REMARK  5 active torsions:
REMARK  status: ('A' for Active; 'I' for Inactive)
REMARK    1  A    between atoms: C_2  and  C_3 
REMARK    2  A    between atoms: N_12  and  N_13 
REMARK       I    between atoms: N_13  and  C_14 
REMARK    3  A    between atoms: C_14  and  C_15 
REMARK    4  A    between atoms: C_15  and  N_16 
REMARK       I    between atoms: N_16  and  C_17 
REMARK    5  A    between atoms: C_17  and  C_18 
ROOT
HETATM    1  N   UNL     1       6.147  29.294  55.948  1.00  0.00    -0.255 N 
HETATM    2  C   UNL     1       5.306  30.095  56.701  1.00  0.00     0.254 C 
HETATM    3  O   UNL     1       4.242  29.723  57.191  1.00  0.00    -0.270 OA
HETATM    4  H   UNL     1       7.153  29.475  56.034  1.00  0.00     0.191 HD
ENDROOT
BRANCH   1   5
HETATM    5  N   UNL     1       5.781  27.969  55.776  1.00  0.00    -0.167 N 
HETATM    6  C   UNL     1       4.954  27.527  54.782  1.00  0.00     0.345 C 
HETATM    7  N   UNL     1       4.828  26.158  54.916  1.00  0.00    -0.319 N 
HETATM    8  O   UNL     1       4.396  28.183  53.918  1.00  0.00    -0.245 OA
HETATM    9  C   UNL     1       5.725  25.621  55.927  1.00  0.00     0.141 C 
HETATM   10  H   UNL     1       4.390  25.618  54.183  1.00  0.00     0.166 HD
HETATM   11  C   UNL     1       4.937  24.905  57.031  1.00  0.00     0.055 C 
HETATM   12  C   UNL     1       6.281  26.935  56.532  1.00  0.00     0.279 C 
HETATM   13  O   UNL     1       7.019  27.022  57.507  1.00  0.00    -0.268 OA
BRANCH   9  14
HETATM   14  C   UNL     1       6.762  24.726  55.255  1.00  0.00    -0.021 A 
HETATM   15  C   UNL     1       7.647  23.959  56.041  1.00  0.00     0.010 A 
HETATM   16  C   UNL     1       8.587  23.108  55.456  1.00  0.00     0.001 A 
HETATM   17  C   UNL     1       8.658  22.996  54.072  1.00  0.00     0.000 A 
HETATM   18  C   UNL     1       7.787  23.732  53.275  1.00  0.00     0.001 A 
HETATM   19  C   UNL     1       6.845  24.585  53.859  1.00  0.00     0.010 A 
ENDBRANCH   9  14
ENDBRANCH   1   5
BRANCH   2  20
HETATM   20  C   UNL     1       5.858  31.503  56.912  1.00  0.00     0.227 C 
BRANCH  20  21
HETATM   21  N   UNL     1       6.702  31.579  58.089  1.00  0.00    -0.348 N 
HETATM   22  C   UNL     1       6.194  32.037  59.286  1.00  0.00     0.252 C 
HETATM   23  O   UNL     1       5.056  32.493  59.362  1.00  0.00    -0.268 OA
HETATM   24  H   UNL     1       7.606  31.133  58.037  1.00  0.00     0.163 HD
BRANCH  22  25
HETATM   25  C   UNL     1       7.065  31.934  60.496  1.00  0.00     0.033 A 
HETATM   26  C   UNL     1       6.777  32.593  61.698  1.00  0.00     0.036 A 
HETATM   27  C   UNL     1       7.659  32.479  62.776  1.00  0.00     0.012 A 
HETATM   28 BR   UNL     1       7.280  33.390  64.390  1.00  0.00    -0.051 Br
HETATM   29  C   UNL     1       8.813  31.705  62.679  1.00  0.00     0.019 A 
HETATM   30  C   UNL     1       9.091  31.029  61.493  1.00  0.00     0.002 A 
HETATM   31  C   UNL     1       8.219  31.142  60.406  1.00  0.00     0.017 A 
ENDBRANCH  22  25
ENDBRANCH  20  21
ENDBRANCH   2  20
TORSDOF 5
ENDMDL
MODEL 7
REMARK VINA RESULT:      -8.9      2.629      3.708
REMARK  5 active torsions:
REMARK  status: ('A' for Active; 'I' for Inactive)
REMARK    1  A    between atoms: C_2  and  C_3 
REMARK    2  A    between atoms: N_12  and  N_13 
REMARK       I    between atoms: N_13  and  C_14 
REMARK    3  A    between atoms: C_14  and  C_15 
REMARK    4  A    between atoms: C_15  and  N_16 
REMARK       I    between atoms: N_16  and  C_17 
REMARK    5  A    between atoms: C_17  and  C_18 
ROOT
HETATM    1  N   UNL     1       7.193  29.186  56.193  1.00  0.00    -0.255 N 
HETATM    2  C   UNL     1       8.047  28.864  57.233  1.00  0.00     0.254 C 
HETATM    3  O   UNL     1       8.306  27.718  57.593  1.00  0.00    -0.270 OA
HETATM    4  H   UNL     1       7.426  30.024  55.649  1.00  0.00     0.191 HD
ENDROOT
BRANCH   1   5
HETATM    5  N   UNL     1       6.627  28.139  55.484  1.00  0.00    -0.167 N 
HETATM    6  C   UNL     1       5.408  27.591  55.772  1.00  0.00     0.345 C 
HETATM    7  N   UNL     1       5.170  26.588  54.852  1.00  0.00    -0.319 N 
HETATM    8  O   UNL     1       4.639  27.891  56.670  1.00  0.00    -0.245 OA
HETATM    9  C   UNL     1       6.176  26.555  53.803  1.00  0.00     0.141 C 
HETATM   10  H   UNL     1       4.253  26.168  54.790  1.00  0.00     0.166 HD
HETATM   11  C   UNL     1       6.885  25.195  53.768  1.00  0.00     0.055 C 
HETATM   12  C   UNL     1       7.187  27.591  54.355  1.00  0.00     0.279 C 
HETATM   13  O   UNL     1       8.282  27.856  53.870  1.00  0.00    -0.268 OA
BRANCH   9  14
HETATM   14  C   UNL     1       5.527  26.926  52.472  1.00  0.00    -0.021 A 
HETATM   15  C   UNL     1       5.480  25.983  51.424  1.00  0.00     0.010 A 
HETATM   16  C   UNL     1       4.866  26.283  50.206  1.00  0.00     0.001 A 
HETATM   17  C   UNL     1       4.277  27.527  50.010  1.00  0.00     0.000 A 
HETATM   18  C   UNL     1       4.300  28.469  51.034  1.00  0.00     0.001 A 
HETATM   19  C   UNL     1       4.914  28.172  52.254  1.00  0.00     0.010 A 
ENDBRANCH   9  14
ENDBRANCH   1   5
BRANCH   2  20
HETATM   20  C   UNL     1       8.692  30.090  57.874  1.00  0.00     0.227 C 
BRANCH  20  21
HETATM   21  N   UNL     1       7.920  30.575  59.003  1.00  0.00    -0.348 N 
HETATM   22  C   UNL     1       8.206  31.796  59.575  1.00  0.00     0.252 C 
HETATM   23  O   UNL     1       9.183  32.452  59.221  1.00  0.00    -0.268 OA
HETATM   24  H   UNL     1       7.077  30.069  59.236  1.00  0.00     0.163 HD
BRANCH  22  25
HETATM   25  C   UNL     1       7.273  32.310  60.622  1.00  0.00     0.033 A 
HETATM   26  C   UNL     1       7.683  32.609  61.927  1.00  0.00     0.036 A 
HETATM   27  C   UNL     1       6.745  33.051  62.863  1.00  0.00     0.012 A 
HETATM   28 BR   UNL     1       7.299  33.429  64.632  1.00  0.00    -0.051 Br
HETATM   29  C   UNL     1       5.407  33.215  62.513  1.00  0.00     0.019 A 
HETATM   30  C   UNL     1       4.998  32.941  61.209  1.00  0.00     0.002 A 
HETATM   31  C   UNL     1       5.927  32.491  60.267  1.00  0.00     0.017 A 
ENDBRANCH  22  25
ENDBRANCH  20  21
ENDBRANCH   2  20
TORSDOF 5
ENDMDL
MODEL 8
REMARK VINA RESULT:      -8.8      6.675     10.359
REMARK  5 active torsions:
REMARK  status: ('A' for Active; 'I' for Inactive)
REMARK    1  A    between atoms: C_2  and  C_3 
REMARK    2  A    between atoms: N_12  and  N_13 
REMARK       I    between atoms: N_13  and  C_14 
REMARK    3  A    between atoms: C_14  and  C_15 
REMARK    4  A    between atoms: C_15  and  N_16 
REMARK       I    between atoms: N_16  and  C_17 
REMARK    5  A    between atoms: C_17  and  C_18 
ROOT
HETATM    1  N   UNL     1       5.740  29.065  52.173  1.00  0.00    -0.255 N 
HETATM    2  C   UNL     1       5.651  28.563  50.887  1.00  0.00     0.254 C 
HETATM    3  O   UNL     1       5.653  27.367  50.603  1.00  0.00    -0.270 OA
HETATM    4  H   UNL     1       5.232  29.935  52.364  1.00  0.00     0.191 HD
ENDROOT
BRANCH   1   5
HETATM    5  N   UNL     1       5.790  28.151  53.214  1.00  0.00    -0.167 N 
HETATM    6  C   UNL     1       4.694  27.516  53.726  1.00  0.00     0.345 C 
HETATM    7  N   UNL     1       5.127  26.675  54.733  1.00  0.00    -0.319 N 
HETATM    8  O   UNL     1       3.526  27.641  53.396  1.00  0.00    -0.245 OA
HETATM    9  C   UNL     1       6.578  26.606  54.805  1.00  0.00     0.141 C 
HETATM   10  H   UNL     1       4.494  25.995  55.130  1.00  0.00     0.166 HD
HETATM   11  C   UNL     1       7.080  27.056  56.182  1.00  0.00     0.055 C 
HETATM   12  C   UNL     1       6.959  27.712  53.788  1.00  0.00     0.279 C 
HETATM   13  O   UNL     1       8.093  28.116  53.558  1.00  0.00    -0.268 OA
BRANCH   9  14
HETATM   14  C   UNL     1       7.033  25.197  54.432  1.00  0.00    -0.021 A 
HETATM   15  C   UNL     1       7.097  24.193  55.419  1.00  0.00     0.010 A 
HETATM   16  C   UNL     1       7.480  22.887  55.104  1.00  0.00     0.001 A 
HETATM   17  C   UNL     1       7.799  22.553  53.792  1.00  0.00     0.000 A 
HETATM   18  C   UNL     1       7.731  23.524  52.797  1.00  0.00     0.001 A 
HETATM   19  C   UNL     1       7.348  24.832  53.111  1.00  0.00     0.010 A 
ENDBRANCH   9  14
ENDBRANCH   1   5
BRANCH   2  20
HETATM   20  C   UNL     1       5.498  29.656  49.832  1.00  0.00     0.227 C 
BRANCH  20  21
HETATM   21  N   UNL     1       4.237  29.547  49.124  1.00  0.00    -0.348 N 
HETATM   22  C   UNL     1       4.168  28.891  47.913  1.00  0.00     0.252 C 
HETATM   23  O   UNL     1       5.181  28.482  47.352  1.00  0.00    -0.268 OA
HETATM   24  H   UNL     1       3.403  29.816  49.625  1.00  0.00     0.163 HD
BRANCH  22  25
HETATM   25  C   UNL     1       2.816  28.670  47.318  1.00  0.00     0.033 A 
HETATM   26  C   UNL     1       2.021  29.712  46.826  1.00  0.00     0.036 A 
HETATM   27  C   UNL     1       0.750  29.432  46.317  1.00  0.00     0.012 A 
HETATM   28 BR   UNL     1      -0.331  30.847  45.676  1.00  0.00    -0.051 Br
HETATM   29  C   UNL     1       0.267  28.126  46.276  1.00  0.00     0.019 A 
HETATM   30  C   UNL     1       1.064  27.083  46.743  1.00  0.00     0.002 A 
HETATM   31  C   UNL     1       2.333  27.353  47.261  1.00  0.00     0.017 A 
ENDBRANCH  22  25
ENDBRANCH  20  21
ENDBRANCH   2  20
TORSDOF 5
ENDMDL
MODEL 9
REMARK VINA RESULT:      -8.7      6.281      9.075
REMARK  5 active torsions:
REMARK  status: ('A' for Active; 'I' for Inactive)
REMARK    1  A    between atoms: C_2  and  C_3 
REMARK    2  A    between atoms: N_12  and  N_13 
REMARK       I    between atoms: N_13  and  C_14 
REMARK    3  A    between atoms: C_14  and  C_15 
REMARK    4  A    between atoms: C_15  and  N_16 
REMARK       I    between atoms: N_16  and  C_17 
REMARK    5  A    between atoms: C_17  and  C_18 
ROOT
HETATM    1  N   UNL     1       5.724  28.051  51.971  1.00  0.00    -0.255 N 
HETATM    2  C   UNL     1       4.695  28.416  52.821  1.00  0.00     0.254 C 
HETATM    3  O   UNL     1       3.507  28.440  52.509  1.00  0.00    -0.270 OA
HETATM    4  H   UNL     1       6.524  27.572  52.396  1.00  0.00     0.191 HD
ENDROOT
BRANCH   1   5
HETATM    5  N   UNL     1       5.380  27.641  50.693  1.00  0.00    -0.167 N 
HETATM    6  C   UNL     1       5.057  26.354  50.364  1.00  0.00     0.345 C 
HETATM    7  N   UNL     1       4.760  26.327  49.015  1.00  0.00    -0.319 N 
HETATM    8  O   UNL     1       5.032  25.373  51.089  1.00  0.00    -0.245 OA
HETATM    9  C   UNL     1       4.715  27.660  48.435  1.00  0.00     0.141 C 
HETATM   10  H   UNL     1       4.340  25.503  48.608  1.00  0.00     0.166 HD
HETATM   11  C   UNL     1       5.735  27.795  47.298  1.00  0.00     0.055 C 
HETATM   12  C   UNL     1       5.237  28.499  49.628  1.00  0.00     0.279 C 
HETATM   13  O   UNL     1       5.481  29.701  49.610  1.00  0.00    -0.268 OA
BRANCH   9  14
HETATM   14  C   UNL     1       3.286  27.970  47.998  1.00  0.00    -0.021 A 
HETATM   15  C   UNL     1       3.012  29.145  47.268  1.00  0.00     0.010 A 
HETATM   16  C   UNL     1       1.720  29.442  46.828  1.00  0.00     0.001 A 
HETATM   17  C   UNL     1       0.674  28.567  47.099  1.00  0.00     0.000 A 
HETATM   18  C   UNL     1       0.922  27.394  47.806  1.00  0.00     0.001 A 
HETATM   19  C   UNL     1       2.215  27.095  48.248  1.00  0.00     0.010 A 
ENDBRANCH   9  14
ENDBRANCH   1   5
BRANCH   2  20
HETATM   20  C   UNL     1       5.180  28.750  54.231  1.00  0.00     0.227 C 
BRANCH  20  21
HETATM   21  N   UNL     1       6.147  27.781  54.710  1.00  0.00    -0.348 N 
HETATM   22  C   UNL     1       5.841  26.951  55.767  1.00  0.00     0.252 C 
HETATM   23  O   UNL     1       4.795  27.082  56.398  1.00  0.00    -0.268 OA
HETATM   24  H   UNL     1       6.967  27.628  54.141  1.00  0.00     0.163 HD
BRANCH  22  25
HETATM   25  C   UNL     1       6.812  25.866  56.104  1.00  0.00     0.033 A 
HETATM   26  C   UNL     1       6.898  24.670  55.380  1.00  0.00     0.036 A 
HETATM   27  C   UNL     1       7.807  23.685  55.777  1.00  0.00     0.012 A 
HETATM   28 BR   UNL     1       7.901  22.061  54.812  1.00  0.00    -0.051 Br
HETATM   29  C   UNL     1       8.642  23.883  56.874  1.00  0.00     0.019 A 
HETATM   30  C   UNL     1       8.577  25.081  57.582  1.00  0.00     0.002 A 
HETATM   31  C   UNL     1       7.666  26.069  57.198  1.00  0.00     0.017 A 
ENDBRANCH  22  25
ENDBRANCH  20  21
ENDBRANCH   2  20
TORSDOF 5
ENDMDL
MODEL 10
REMARK VINA RESULT:      -8.6      6.023      9.885
REMARK  5 active torsions:
REMARK  status: ('A' for Active; 'I' for Inactive)
REMARK    1  A    between atoms: C_2  and  C_3 
REMARK    2  A    between atoms: N_12  and  N_13 
REMARK       I    between atoms: N_13  and  C_14 
REMARK    3  A    between atoms: C_14  and  C_15 
REMARK    4  A    between atoms: C_15  and  N_16 
REMARK       I    between atoms: N_16  and  C_17 
REMARK    5  A    between atoms: C_17  and  C_18 
ROOT
HETATM    1  N   UNL     1       5.460  29.255  53.956  1.00  0.00    -0.255 N 
HETATM    2  C   UNL     1       4.922  28.444  52.973  1.00  0.00     0.254 C 
HETATM    3  O   UNL     1       4.949  27.216  52.989  1.00  0.00    -0.270 OA
HETATM    4  H   UNL     1       4.974  30.139  54.142  1.00  0.00     0.191 HD
ENDROOT
BRANCH   1   5
HETATM    5  N   UNL     1       6.030  28.633  55.056  1.00  0.00    -0.167 N 
HETATM    6  C   UNL     1       5.346  28.320  56.196  1.00  0.00     0.345 C 
HETATM    7  N   UNL     1       6.228  27.702  57.061  1.00  0.00    -0.319 N 
HETATM    8  O   UNL     1       4.173  28.536  56.456  1.00  0.00    -0.245 OA
HETATM    9  C   UNL     1       7.513  27.433  56.434  1.00  0.00     0.141 C 
HETATM   10  H   UNL     1       5.883  27.247  57.894  1.00  0.00     0.166 HD
HETATM   11  C   UNL     1       8.648  28.131  57.193  1.00  0.00     0.055 C 
HETATM   12  C   UNL     1       7.327  28.179  55.089  1.00  0.00     0.279 C 
HETATM   13  O   UNL     1       8.187  28.336  54.229  1.00  0.00    -0.268 OA
BRANCH   9  14
HETATM   14  C   UNL     1       7.709  25.924  56.317  1.00  0.00    -0.021 A 
HETATM   15  C   UNL     1       7.210  25.233  55.194  1.00  0.00     0.010 A 
HETATM   16  C   UNL     1       7.400  23.857  55.044  1.00  0.00     0.001 A 
HETATM   17  C   UNL     1       8.101  23.142  56.008  1.00  0.00     0.000 A 
HETATM   18  C   UNL     1       8.615  23.804  57.119  1.00  0.00     0.001 A 
HETATM   19  C   UNL     1       8.426  25.181  57.272  1.00  0.00     0.010 A 
ENDBRANCH   9  14
ENDBRANCH   1   5
BRANCH   2  20
HETATM   20  C   UNL     1       4.232  29.234  51.863  1.00  0.00     0.227 C 
BRANCH  20  21
HETATM   21  N   UNL     1       3.774  28.369  50.792  1.00  0.00    -0.348 N 
HETATM   22  C   UNL     1       2.706  28.738  50.002  1.00  0.00     0.252 C 
HETATM   23  O   UNL     1       2.049  29.746  50.250  1.00  0.00    -0.268 OA
HETATM   24  H   UNL     1       4.364  27.587  50.548  1.00  0.00     0.163 HD
BRANCH  22  25
HETATM   25  C   UNL     1       2.391  27.886  48.816  1.00  0.00     0.033 A 
HETATM   26  C   UNL     1       1.329  28.158  47.945  1.00  0.00     0.036 A 
HETATM   27  C   UNL     1       1.073  27.294  46.877  1.00  0.00     0.012 A 
HETATM   28 BR   UNL     1      -0.378  27.650  45.716  1.00  0.00    -0.051 Br
HETATM   29  C   UNL     1       1.870  26.173  46.656  1.00  0.00     0.019 A 
HETATM   30  C   UNL     1       2.942  25.911  47.507  1.00  0.00     0.002 A 
HETATM   31  C   UNL     1       3.202  26.765  48.582  1.00  0.00     0.017 A 
ENDBRANCH  22  25
ENDBRANCH  20  21
ENDBRANCH   2  20
TORSDOF 5
ENDMDL
