MODEL 1
REMARK VINA RESULT:     -10.1      0.000      0.000
REMARK  5 active torsions:
REMARK  status: ('A' for Active; 'I' for Inactive)
REMARK    1  A    between atoms: O_2  and  C_3 
REMARK    2  A    between atoms: C_3  and  C_4 
REMARK    3  A    between atoms: C_6  and  C_7 
REMARK       I    between atoms: C_7  and  N_8 
REMARK    4  A    between atoms: N_8  and  C_9 
REMARK    5  A    between atoms: C_10  and  O_11 
ROOT
HETATM    1  C   UNL     1       7.491  26.387  56.857  1.00  0.00     0.071 A 
HETATM    2  C   UNL     1       7.145  26.438  55.492  1.00  0.00     0.096 A 
HETATM    3  C   UNL     1       7.216  25.309  54.660  1.00  0.00     0.054 A 
HETATM    4  C   UNL     1       7.699  24.109  55.213  1.00  0.00     0.014 A 
HETATM    5  C   UNL     1       8.043  24.091  56.560  1.00  0.00     0.089 A 
HETATM    6  O   UNL     1       8.489  22.858  56.922  1.00  0.00    -0.309 OA
HETATM    7  C   UNL     1       8.445  22.075  55.811  1.00  0.00     0.087 A 
HETATM    8  C   UNL     1       7.959  22.795  54.725  1.00  0.00     0.011 A 
HETATM    9  C   UNL     1       8.834  20.738  55.753  1.00  0.00     0.038 A 
HETATM   10  C   UNL     1       8.719  20.107  54.512  1.00  0.00     0.003 A 
HETATM   11  C   UNL     1       8.233  20.793  53.395  1.00  0.00     0.001 A 
HETATM   12  C   UNL     1       7.847  22.138  53.484  1.00  0.00     0.015 A 
HETATM   13  C   UNL     1       7.948  25.191  57.416  1.00  0.00     0.070 A 
ENDROOT
BRANCH   1  14
HETATM   14  N   UNL     1       7.381  27.597  57.581  1.00  0.00    -0.320 N 
HETATM   15  C   UNL     1       8.322  28.599  57.692  1.00  0.00     0.256 C 
HETATM   16  O   UNL     1       9.445  28.602  57.204  1.00  0.00    -0.267 OA
HETATM   17  H   UNL     1       6.456  27.755  57.965  1.00  0.00     0.169 HD
BRANCH  15  18
HETATM   18  C   UNL     1       7.861  29.816  58.419  1.00  0.00     0.033 A 
HETATM   19  C   UNL     1       8.586  30.210  59.553  1.00  0.00     0.026 A 
HETATM   20  C   UNL     1       8.228  31.361  60.267  1.00  0.00    -0.034 A 
HETATM   21  C   UNL     1       7.124  32.109  59.834  1.00  0.00     0.009 A 
HETATM   22  C   UNL     1       6.387  31.709  58.717  1.00  0.00     0.002 A 
HETATM   23  C   UNL     1       6.752  30.563  58.008  1.00  0.00     0.017 A 
BRANCH  20  24
HETATM   24  C   UNL     1       9.025  31.790  61.472  1.00  0.00     0.205 C 
BRANCH  24  25
HETATM   25  O   UNL     1       8.306  31.445  62.652  1.00  0.00    -0.391 OA
HETATM   26  C   UNL     1       8.011  32.593  63.435  1.00  0.00     0.201 C 
ENDBRANCH  24  25
ENDBRANCH  20  24
ENDBRANCH  15  18
ENDBRANCH   1  14
BRANCH   2  27
HETATM   27  O   UNL     1       6.686  27.637  54.988  1.00  0.00    -0.354 OA
HETATM   28  C   UNL     1       7.373  27.977  53.782  1.00  0.00     0.210 C 
ENDBRANCH   2  27
TORSDOF 5
ENDMDL
MODEL 2
REMARK VINA RESULT:      -9.7      1.442      2.316
REMARK  5 active torsions:
REMARK  status: ('A' for Active; 'I' for Inactive)
REMARK    1  A    between atoms: O_2  and  C_3 
REMARK    2  A    between atoms: C_3  and  C_4 
REMARK    3  A    between atoms: C_6  and  C_7 
REMARK       I    between atoms: C_7  and  N_8 
REMARK    4  A    between atoms: N_8  and  C_9 
REMARK    5  A    between atoms: C_10  and  O_11 
ROOT
HETATM    1  C   UNL     1       7.743  26.619  56.884  1.00  0.00     0.071 A 
HETATM    2  C   UNL     1       7.378  26.736  55.528  1.00  0.00     0.096 A 
HETATM    3  C   UNL     1       7.335  25.629  54.667  1.00  0.00     0.054 A 
HETATM    4  C   UNL     1       7.721  24.376  55.179  1.00  0.00     0.014 A 
HETATM    5  C   UNL     1       8.087  24.293  56.518  1.00  0.00     0.089 A 
HETATM    6  O   UNL     1       8.430  23.016  56.839  1.00  0.00    -0.309 OA
HETATM    7  C   UNL     1       8.298  22.270  55.710  1.00  0.00     0.087 A 
HETATM    8  C   UNL     1       7.856  23.058  54.652  1.00  0.00     0.011 A 
HETATM    9  C   UNL     1       8.567  20.907  55.611  1.00  0.00     0.038 A 
HETATM   10  C   UNL     1       8.375  20.321  54.356  1.00  0.00     0.003 A 
HETATM   11  C   UNL     1       7.931  21.077  53.268  1.00  0.00     0.001 A 
HETATM   12  C   UNL     1       7.665  22.447  53.399  1.00  0.00     0.015 A 
HETATM   13  C   UNL     1       8.103  25.373  57.403  1.00  0.00     0.070 A 
ENDROOT
BRANCH   1  14
HETATM   14  N   UNL     1       7.752  27.814  57.641  1.00  0.00    -0.320 N 
HETATM   15  C   UNL     1       8.731  28.785  57.666  1.00  0.00     0.256 C 
HETATM   16  O   UNL     1       9.792  28.768  57.056  1.00  0.00    -0.267 OA
HETATM   17  H   UNL     1       6.882  27.989  58.129  1.00  0.00     0.169 HD
BRANCH  15  18
HETATM   18  C   UNL     1       8.392  29.997  58.465  1.00  0.00     0.033 A 
HETATM   19  C   UNL     1       7.171  30.632  58.199  1.00  0.00     0.026 A 
HETATM   20  C   UNL     1       6.773  31.758  58.933  1.00  0.00    -0.034 A 
HETATM   21  C   UNL     1       7.625  32.246  59.934  1.00  0.00     0.009 A 
HETATM   22  C   UNL     1       8.851  31.628  60.190  1.00  0.00     0.002 A 
HETATM   23  C   UNL     1       9.238  30.505  59.457  1.00  0.00     0.017 A 
BRANCH  20  24
HETATM   24  C   UNL     1       5.449  32.421  58.654  1.00  0.00     0.205 C 
BRANCH  24  25
HETATM   25  O   UNL     1       5.525  33.104  57.407  1.00  0.00    -0.391 OA
HETATM   26  C   UNL     1       4.237  33.291  56.838  1.00  0.00     0.201 C 
ENDBRANCH  24  25
ENDBRANCH  20  24
ENDBRANCH  15  18
ENDBRANCH   1  14
BRANCH   2  27
HETATM   27  O   UNL     1       7.017  27.983  55.065  1.00  0.00    -0.354 OA
HETATM   28  C   UNL     1       7.063  28.028  53.637  1.00  0.00     0.210 C 
ENDBRANCH   2  27
TORSDOF 5
ENDMDL
MODEL 3
REMARK VINA RESULT:      -9.5      3.202     10.834
REMARK  5 active torsions:
REMARK  status: ('A' for Active; 'I' for Inactive)
REMARK    1  A    between atoms: O_2  and  C_3 
REMARK    2  A    between atoms: C_3  and  C_4 
REMARK    3  A    between atoms: C_6  and  C_7 
REMARK       I    between atoms: C_7  and  N_8 
REMARK    4  A    between atoms: N_8  and  C_9 
REMARK    5  A    between atoms: C_10  and  O_11 
ROOT
HETATM    1  C   UNL     1       6.925  32.037  61.666  1.00  0.00     0.071 A 
HETATM    2  C   UNL     1       5.590  32.465  61.527  1.00  0.00     0.096 A 
HETATM    3  C   UNL     1       4.915  33.151  62.549  1.00  0.00     0.054 A 
HETATM    4  C   UNL     1       5.594  33.366  63.763  1.00  0.00     0.014 A 
HETATM    5  C   UNL     1       6.907  32.923  63.874  1.00  0.00     0.089 A 
HETATM    6  O   UNL     1       7.403  33.210  65.109  1.00  0.00    -0.309 OA
HETATM    7  C   UNL     1       6.413  33.831  65.804  1.00  0.00     0.087 A 
HETATM    8  C   UNL     1       5.272  33.959  65.018  1.00  0.00     0.011 A 
HETATM    9  C   UNL     1       6.511  34.276  67.120  1.00  0.00     0.038 A 
HETATM   10  C   UNL     1       5.376  34.885  67.661  1.00  0.00     0.003 A 
HETATM   11  C   UNL     1       4.209  35.036  66.906  1.00  0.00     0.001 A 
HETATM   12  C   UNL     1       4.140  34.580  65.581  1.00  0.00     0.015 A 
HETATM   13  C   UNL     1       7.611  32.270  62.860  1.00  0.00     0.070 A 
ENDROOT
BRANCH   1  14
HETATM   14  N   UNL     1       7.486  31.351  60.563  1.00  0.00    -0.320 N 
HETATM   15  C   UNL     1       8.511  31.774  59.743  1.00  0.00     0.256 C 
HETATM   16  O   UNL     1       9.100  32.846  59.806  1.00  0.00    -0.267 OA
HETATM   17  H   UNL     1       7.140  30.405  60.457  1.00  0.00     0.169 HD
BRANCH  15  18
HETATM   18  C   UNL     1       8.972  30.768  58.744  1.00  0.00     0.033 A 
HETATM   19  C   UNL     1       8.142  29.665  58.500  1.00  0.00     0.026 A 
HETATM   20  C   UNL     1       8.497  28.696  57.552  1.00  0.00    -0.034 A 
HETATM   21  C   UNL     1       9.705  28.845  56.856  1.00  0.00     0.009 A 
HETATM   22  C   UNL     1      10.544  29.932  57.109  1.00  0.00     0.002 A 
HETATM   23  C   UNL     1      10.182  30.894  58.053  1.00  0.00     0.017 A 
BRANCH  20  24
HETATM   24  C   UNL     1       7.589  27.525  57.282  1.00  0.00     0.205 C 
BRANCH  24  25
HETATM   25  O   UNL     1       7.872  26.491  58.220  1.00  0.00    -0.391 OA
HETATM   26  C   UNL     1       8.267  25.292  57.569  1.00  0.00     0.201 C 
ENDBRANCH  24  25
ENDBRANCH  20  24
ENDBRANCH  15  18
ENDBRANCH   1  14
BRANCH   2  27
HETATM   27  O   UNL     1       4.959  32.226  60.325  1.00  0.00    -0.354 OA
HETATM   28  C   UNL     1       3.541  32.189  60.494  1.00  0.00     0.210 C 
ENDBRANCH   2  27
TORSDOF 5
ENDMDL
MODEL 4
REMARK VINA RESULT:      -9.2      2.984      4.205
REMARK  5 active torsions:
REMARK  status: ('A' for Active; 'I' for Inactive)
REMARK    1  A    between atoms: O_2  and  C_3 
REMARK    2  A    between atoms: C_3  and  C_4 
REMARK    3  A    between atoms: C_6  and  C_7 
REMARK       I    between atoms: C_7  and  N_8 
REMARK    4  A    between atoms: N_8  and  C_9 
REMARK    5  A    between atoms: C_10  and  O_11 
ROOT
HETATM    1  C   UNL     1       7.460  29.107  57.869  1.00  0.00     0.071 A 
HETATM    2  C   UNL     1       8.644  28.885  57.138  1.00  0.00     0.096 A 
HETATM    3  C   UNL     1       8.664  28.120  55.962  1.00  0.00     0.054 A 
HETATM    4  C   UNL     1       7.462  27.522  55.540  1.00  0.00     0.014 A 
HETATM    5  C   UNL     1       6.312  27.750  56.287  1.00  0.00     0.089 A 
HETATM    6  O   UNL     1       5.251  27.097  55.739  1.00  0.00    -0.309 OA
HETATM    7  C   UNL     1       5.710  26.436  54.643  1.00  0.00     0.087 A 
HETATM    8  C   UNL     1       7.071  26.668  54.467  1.00  0.00     0.011 A 
HETATM    9  C   UNL     1       4.939  25.634  53.806  1.00  0.00     0.038 A 
HETATM   10  C   UNL     1       5.600  25.033  52.731  1.00  0.00     0.003 A 
HETATM   11  C   UNL     1       6.966  25.241  52.517  1.00  0.00     0.001 A 
HETATM   12  C   UNL     1       7.716  26.057  53.376  1.00  0.00     0.015 A 
HETATM   13  C   UNL     1       6.260  28.535  57.441  1.00  0.00     0.070 A 
ENDROOT
BRANCH   1  14
HETATM   14  N   UNL     1       7.579  29.890  59.040  1.00  0.00    -0.320 N 
HETATM   15  C   UNL     1       7.234  31.216  59.204  1.00  0.00     0.256 C 
HETATM   16  O   UNL     1       6.789  31.965  58.343  1.00  0.00    -0.267 OA
HETATM   17  H   UNL     1       7.858  29.358  59.857  1.00  0.00     0.169 HD
BRANCH  15  18
HETATM   18  C   UNL     1       7.353  31.729  60.598  1.00  0.00     0.033 A 
HETATM   19  C   UNL     1       6.211  32.291  61.185  1.00  0.00     0.026 A 
HETATM   20  C   UNL     1       6.242  32.765  62.503  1.00  0.00    -0.034 A 
HETATM   21  C   UNL     1       7.441  32.677  63.224  1.00  0.00     0.009 A 
HETATM   22  C   UNL     1       8.587  32.136  62.637  1.00  0.00     0.002 A 
HETATM   23  C   UNL     1       8.547  31.662  61.324  1.00  0.00     0.017 A 
BRANCH  20  24
HETATM   24  C   UNL     1       5.004  33.348  63.133  1.00  0.00     0.205 C 
BRANCH  24  25
HETATM   25  O   UNL     1       4.778  32.713  64.388  1.00  0.00    -0.391 OA
HETATM   26  C   UNL     1       4.798  33.650  65.456  1.00  0.00     0.201 C 
ENDBRANCH  24  25
ENDBRANCH  20  24
ENDBRANCH  15  18
ENDBRANCH   1  14
BRANCH   2  27
HETATM   27  O   UNL     1       9.802  29.481  57.592  1.00  0.00    -0.354 OA
HETATM   28  C   UNL     1      10.571  29.992  56.501  1.00  0.00     0.210 C 
ENDBRANCH   2  27
TORSDOF 5
ENDMDL
MODEL 5
REMARK VINA RESULT:      -9.2      1.653      9.055
REMARK  5 active torsions:
REMARK  status: ('A' for Active; 'I' for Inactive)
REMARK    1  A    between atoms: O_2  and  C_3 
REMARK    2  A    between atoms: C_3  and  C_4 
REMARK    3  A    between atoms: C_6  and  C_7 
REMARK       I    between atoms: C_7  and  N_8 
REMARK    4  A    between atoms: N_8  and  C_9 
REMARK    5  A    between atoms: C_10  and  O_11 
ROOT
HETATM    1  C   UNL     1       7.542  28.565  56.679  1.00  0.00     0.071 A 
HETATM    2  C   UNL     1       6.428  29.414  56.523  1.00  0.00     0.096 A 
HETATM    3  C   UNL     1       6.150  30.455  57.422  1.00  0.00     0.054 A 
HETATM    4  C   UNL     1       6.995  30.611  58.536  1.00  0.00     0.014 A 
HETATM    5  C   UNL     1       8.080  29.752  58.670  1.00  0.00     0.089 A 
HETATM    6  O   UNL     1       8.782  30.044  59.799  1.00  0.00    -0.309 OA
HETATM    7  C   UNL     1       8.150  31.084  60.405  1.00  0.00     0.087 A 
HETATM    8  C   UNL     1       7.041  31.480  59.666  1.00  0.00     0.011 A 
HETATM    9  C   UNL     1       8.545  31.676  61.603  1.00  0.00     0.038 A 
HETATM   10  C   UNL     1       7.756  32.733  62.067  1.00  0.00     0.003 A 
HETATM   11  C   UNL     1       6.635  33.164  61.354  1.00  0.00     0.001 A 
HETATM   12  C   UNL     1       6.263  32.550  60.149  1.00  0.00     0.015 A 
HETATM   13  C   UNL     1       8.397  28.732  57.771  1.00  0.00     0.070 A 
ENDROOT
BRANCH   1  14
HETATM   14  N   UNL     1       7.704  27.551  55.707  1.00  0.00    -0.320 N 
HETATM   15  C   UNL     1       7.331  26.226  55.804  1.00  0.00     0.256 C 
HETATM   16  O   UNL     1       6.819  25.682  56.774  1.00  0.00    -0.267 OA
HETATM   17  H   UNL     1       8.042  27.895  54.815  1.00  0.00     0.169 HD
BRANCH  15  18
HETATM   18  C   UNL     1       7.514  25.430  54.557  1.00  0.00     0.033 A 
HETATM   19  C   UNL     1       7.699  24.046  54.690  1.00  0.00     0.026 A 
HETATM   20  C   UNL     1       7.845  23.231  53.561  1.00  0.00    -0.034 A 
HETATM   21  C   UNL     1       7.815  23.825  52.291  1.00  0.00     0.009 A 
HETATM   22  C   UNL     1       7.650  25.205  52.154  1.00  0.00     0.002 A 
HETATM   23  C   UNL     1       7.502  26.010  53.285  1.00  0.00     0.017 A 
BRANCH  20  24
HETATM   24  C   UNL     1       8.022  21.742  53.712  1.00  0.00     0.205 C 
BRANCH  24  25
HETATM   25  O   UNL     1       8.998  21.489  54.718  1.00  0.00    -0.391 OA
HETATM   26  C   UNL     1       8.692  20.315  55.456  1.00  0.00     0.201 C 
ENDBRANCH  24  25
ENDBRANCH  20  24
ENDBRANCH  15  18
ENDBRANCH   1  14
BRANCH   2  27
HETATM   27  O   UNL     1       5.621  29.220  55.422  1.00  0.00    -0.354 OA
HETATM   28  C   UNL     1       4.317  28.788  55.818  1.00  0.00     0.210 C 
ENDBRANCH   2  27
TORSDOF 5
ENDMDL
MODEL 6
REMARK VINA RESULT:      -8.9      4.555      8.403
REMARK  5 active torsions:
REMARK  status: ('A' for Active; 'I' for Inactive)
REMARK    1  A    between atoms: O_2  and  C_3 
REMARK    2  A    between atoms: C_3  and  C_4 
REMARK    3  A    between atoms: C_6  and  C_7 
REMARK       I    between atoms: C_7  and  N_8 
REMARK    4  A    between atoms: N_8  and  C_9 
REMARK    5  A    between atoms: C_10  and  O_11 
ROOT
HETATM    1  C   UNL     1       6.797  25.638  52.402  1.00  0.00     0.071 A 
HETATM    2  C   UNL     1       6.786  26.020  53.758  1.00  0.00     0.096 A 
HETATM    3  C   UNL     1       7.166  25.143  54.785  1.00  0.00     0.054 A 
HETATM    4  C   UNL     1       7.521  23.827  54.435  1.00  0.00     0.014 A 
HETATM    5  C   UNL     1       7.513  23.475  53.089  1.00  0.00     0.089 A 
HETATM    6  O   UNL     1       7.876  22.173  52.935  1.00  0.00    -0.309 OA
HETATM    7  C   UNL     1       8.112  21.674  54.178  1.00  0.00     0.087 A 
HETATM    8  C   UNL     1       7.913  22.654  55.144  1.00  0.00     0.011 A 
HETATM    9  C   UNL     1       8.495  20.364  54.459  1.00  0.00     0.038 A 
HETATM   10  C   UNL     1       8.683  20.043  55.806  1.00  0.00     0.003 A 
HETATM   11  C   UNL     1       8.495  20.998  56.809  1.00  0.00     0.001 A 
HETATM   12  C   UNL     1       8.112  22.310  56.495  1.00  0.00     0.015 A 
HETATM   13  C   UNL     1       7.172  24.340  52.047  1.00  0.00     0.070 A 
ENDROOT
BRANCH   1  14
HETATM   14  N   UNL     1       6.384  26.616  51.467  1.00  0.00    -0.320 N 
HETATM   15  C   UNL     1       5.317  26.548  50.596  1.00  0.00     0.256 C 
HETATM   16  O   UNL     1       4.551  25.603  50.453  1.00  0.00    -0.267 OA
HETATM   17  H   UNL     1       6.891  27.490  51.546  1.00  0.00     0.169 HD
BRANCH  15  18
HETATM   18  C   UNL     1       5.056  27.796  49.824  1.00  0.00     0.033 A 
HETATM   19  C   UNL     1       4.032  27.768  48.867  1.00  0.00     0.026 A 
HETATM   20  C   UNL     1       3.710  28.913  48.127  1.00  0.00    -0.034 A 
HETATM   21  C   UNL     1       4.439  30.089  48.353  1.00  0.00     0.009 A 
HETATM   22  C   UNL     1       5.472  30.117  49.292  1.00  0.00     0.002 A 
HETATM   23  C   UNL     1       5.785  28.973  50.028  1.00  0.00     0.017 A 
BRANCH  20  24
HETATM   24  C   UNL     1       2.595  28.879  47.115  1.00  0.00     0.205 C 
BRANCH  24  25
HETATM   25  O   UNL     1       2.230  27.524  46.870  1.00  0.00    -0.391 OA
HETATM   26  C   UNL     1       0.824  27.340  46.957  1.00  0.00     0.201 C 
ENDBRANCH  24  25
ENDBRANCH  20  24
ENDBRANCH  15  18
ENDBRANCH   1  14
BRANCH   2  27
HETATM   27  O   UNL     1       6.423  27.316  54.058  1.00  0.00    -0.354 OA
HETATM   28  C   UNL     1       7.545  28.060  54.537  1.00  0.00     0.210 C 
ENDBRANCH   2  27
TORSDOF 5
ENDMDL
MODEL 7
REMARK VINA RESULT:      -8.7      4.607      7.413
REMARK  5 active torsions:
REMARK  status: ('A' for Active; 'I' for Inactive)
REMARK    1  A    between atoms: O_2  and  C_3 
REMARK    2  A    between atoms: C_3  and  C_4 
REMARK    3  A    between atoms: C_6  and  C_7 
REMARK       I    between atoms: C_7  and  N_8 
REMARK    4  A    between atoms: N_8  and  C_9 
REMARK    5  A    between atoms: C_10  and  O_11 
ROOT
HETATM    1  C   UNL     1       6.852  25.638  52.219  1.00  0.00     0.071 A 
HETATM    2  C   UNL     1       6.787  26.039  53.568  1.00  0.00     0.096 A 
HETATM    3  C   UNL     1       7.138  25.181  54.621  1.00  0.00     0.054 A 
HETATM    4  C   UNL     1       7.519  23.864  54.303  1.00  0.00     0.014 A 
HETATM    5  C   UNL     1       7.564  23.493  52.964  1.00  0.00     0.089 A 
HETATM    6  O   UNL     1       7.947  22.193  52.842  1.00  0.00    -0.309 OA
HETATM    7  C   UNL     1       8.142  21.714  54.100  1.00  0.00     0.087 A 
HETATM    8  C   UNL     1       7.897  22.706  55.044  1.00  0.00     0.011 A 
HETATM    9  C   UNL     1       8.528  20.413  54.414  1.00  0.00     0.038 A 
HETATM   10  C   UNL     1       8.669  20.113  55.772  1.00  0.00     0.003 A 
HETATM   11  C   UNL     1       8.435  21.081  56.753  1.00  0.00     0.001 A 
HETATM   12  C   UNL     1       8.050  22.384  56.406  1.00  0.00     0.015 A 
HETATM   13  C   UNL     1       7.253  24.339  51.897  1.00  0.00     0.070 A 
ENDROOT
BRANCH   1  14
HETATM   14  N   UNL     1       6.464  26.598  51.255  1.00  0.00    -0.320 N 
HETATM   15  C   UNL     1       5.341  26.579  50.455  1.00  0.00     0.256 C 
HETATM   16  O   UNL     1       4.490  25.700  50.414  1.00  0.00    -0.267 OA
HETATM   17  H   UNL     1       7.047  27.427  51.252  1.00  0.00     0.169 HD
BRANCH  15  18
HETATM   18  C   UNL     1       5.137  27.803  49.629  1.00  0.00     0.033 A 
HETATM   19  C   UNL     1       5.492  29.036  50.194  1.00  0.00     0.026 A 
HETATM   20  C   UNL     1       5.356  30.224  49.464  1.00  0.00    -0.034 A 
HETATM   21  C   UNL     1       4.849  30.160  48.159  1.00  0.00     0.009 A 
HETATM   22  C   UNL     1       4.475  28.936  47.599  1.00  0.00     0.002 A 
HETATM   23  C   UNL     1       4.616  27.756  48.331  1.00  0.00     0.017 A 
BRANCH  20  24
HETATM   24  C   UNL     1       5.760  31.543  50.071  1.00  0.00     0.205 C 
BRANCH  24  25
HETATM   25  O   UNL     1       4.633  32.413  50.085  1.00  0.00    -0.391 OA
HETATM   26  C   UNL     1       3.860  32.243  51.265  1.00  0.00     0.201 C 
ENDBRANCH  24  25
ENDBRANCH  20  24
ENDBRANCH  15  18
ENDBRANCH   1  14
BRANCH   2  27
HETATM   27  O   UNL     1       6.400  27.335  53.835  1.00  0.00    -0.354 OA
HETATM   28  C   UNL     1       7.433  28.043  54.523  1.00  0.00     0.210 C 
ENDBRANCH   2  27
TORSDOF 5
ENDMDL
MODEL 8
REMARK VINA RESULT:      -8.5      5.610      9.303
REMARK  5 active torsions:
REMARK  status: ('A' for Active; 'I' for Inactive)
REMARK    1  A    between atoms: O_2  and  C_3 
REMARK    2  A    between atoms: C_3  and  C_4 
REMARK    3  A    between atoms: C_6  and  C_7 
REMARK       I    between atoms: C_7  and  N_8 
REMARK    4  A    between atoms: N_8  and  C_9 
REMARK    5  A    between atoms: C_10  and  O_11 
ROOT
HETATM    1  C   UNL     1       5.179  26.284  51.778  1.00  0.00     0.071 A 
HETATM    2  C   UNL     1       4.789  26.573  53.100  1.00  0.00     0.096 A 
HETATM    3  C   UNL     1       5.389  25.957  54.209  1.00  0.00     0.054 A 
HETATM    4  C   UNL     1       6.377  24.984  53.970  1.00  0.00     0.014 A 
HETATM    5  C   UNL     1       6.734  24.711  52.654  1.00  0.00     0.089 A 
HETATM    6  O   UNL     1       7.695  23.748  52.611  1.00  0.00    -0.309 OA
HETATM    7  C   UNL     1       7.958  23.387  53.896  1.00  0.00     0.087 A 
HETATM    8  C   UNL     1       7.176  24.123  54.780  1.00  0.00     0.011 A 
HETATM    9  C   UNL     1       8.876  22.415  54.286  1.00  0.00     0.038 A 
HETATM   10  C   UNL     1       8.996  22.184  55.659  1.00  0.00     0.003 A 
HETATM   11  C   UNL     1       8.231  22.902  56.581  1.00  0.00     0.001 A 
HETATM   12  C   UNL     1       7.316  23.877  56.159  1.00  0.00     0.015 A 
HETATM   13  C   UNL     1       6.176  25.336  51.537  1.00  0.00     0.070 A 
ENDROOT
BRANCH   1  14
HETATM   14  N   UNL     1       4.488  26.970  50.751  1.00  0.00    -0.320 N 
HETATM   15  C   UNL     1       4.827  28.174  50.171  1.00  0.00     0.256 C 
HETATM   16  O   UNL     1       5.778  28.886  50.469  1.00  0.00    -0.267 OA
HETATM   17  H   UNL     1       3.722  26.439  50.354  1.00  0.00     0.169 HD
BRANCH  15  18
HETATM   18  C   UNL     1       3.973  28.578  49.018  1.00  0.00     0.033 A 
HETATM   19  C   UNL     1       2.817  27.825  48.768  1.00  0.00     0.026 A 
HETATM   20  C   UNL     1       1.952  28.166  47.720  1.00  0.00    -0.034 A 
HETATM   21  C   UNL     1       2.267  29.271  46.917  1.00  0.00     0.009 A 
HETATM   22  C   UNL     1       3.427  30.013  47.150  1.00  0.00     0.002 A 
HETATM   23  C   UNL     1       4.283  29.669  48.198  1.00  0.00     0.017 A 
BRANCH  20  24
HETATM   24  C   UNL     1       0.701  27.363  47.472  1.00  0.00     0.205 C 
BRANCH  24  25
HETATM   25  O   UNL     1       0.384  27.414  46.084  1.00  0.00    -0.391 OA
HETATM   26  C   UNL     1      -0.919  27.935  45.868  1.00  0.00     0.201 C 
ENDBRANCH  24  25
ENDBRANCH  20  24
ENDBRANCH  15  18
ENDBRANCH   1  14
BRANCH   2  27
HETATM   27  O   UNL     1       3.810  27.526  53.288  1.00  0.00    -0.354 OA
HETATM   28  C   UNL     1       4.259  28.546  54.184  1.00  0.00     0.210 C 
ENDBRANCH   2  27
TORSDOF 5
ENDMDL
MODEL 9
REMARK VINA RESULT:      -8.4      4.419      9.003
REMARK  5 active torsions:
REMARK  status: ('A' for Active; 'I' for Inactive)
REMARK    1  A    between atoms: O_2  and  C_3 
REMARK    2  A    between atoms: C_3  and  C_4 
REMARK    3  A    between atoms: C_6  and  C_7 
REMARK       I    between atoms: C_7  and  N_8 
REMARK    4  A    between atoms: N_8  and  C_9 
REMARK    5  A    between atoms: C_10  and  O_11 
ROOT
HETATM    1  C   UNL     1       5.264  26.010  51.795  1.00  0.00     0.071 A 
HETATM    2  C   UNL     1       4.874  27.101  52.598  1.00  0.00     0.096 A 
HETATM    3  C   UNL     1       4.238  28.232  52.065  1.00  0.00     0.054 A 
HETATM    4  C   UNL     1       4.036  28.284  50.673  1.00  0.00     0.014 A 
HETATM    5  C   UNL     1       4.440  27.198  49.905  1.00  0.00     0.089 A 
HETATM    6  O   UNL     1       4.171  27.419  48.589  1.00  0.00    -0.309 OA
HETATM    7  C   UNL     1       3.602  28.651  48.499  1.00  0.00     0.087 A 
HETATM    8  C   UNL     1       3.488  29.230  49.758  1.00  0.00     0.011 A 
HETATM    9  C   UNL     1       3.190  29.261  47.316  1.00  0.00     0.038 A 
HETATM   10  C   UNL     1       2.632  30.537  47.432  1.00  0.00     0.003 A 
HETATM   11  C   UNL     1       2.497  31.154  48.679  1.00  0.00     0.001 A 
HETATM   12  C   UNL     1       2.918  30.514  49.853  1.00  0.00     0.015 A 
HETATM   13  C   UNL     1       5.042  26.047  50.416  1.00  0.00     0.070 A 
ENDROOT
BRANCH   1  14
HETATM   14  N   UNL     1       5.901  24.935  52.457  1.00  0.00    -0.320 N 
HETATM   15  C   UNL     1       7.244  24.619  52.447  1.00  0.00     0.256 C 
HETATM   16  O   UNL     1       8.125  25.203  51.829  1.00  0.00    -0.267 OA
HETATM   17  H   UNL     1       5.287  24.422  53.079  1.00  0.00     0.169 HD
BRANCH  15  18
HETATM   18  C   UNL     1       7.633  23.501  53.352  1.00  0.00     0.033 A 
HETATM   19  C   UNL     1       7.828  23.798  54.708  1.00  0.00     0.026 A 
HETATM   20  C   UNL     1       8.165  22.791  55.622  1.00  0.00    -0.034 A 
HETATM   21  C   UNL     1       8.313  21.478  55.154  1.00  0.00     0.009 A 
HETATM   22  C   UNL     1       8.138  21.180  53.801  1.00  0.00     0.002 A 
HETATM   23  C   UNL     1       7.800  22.189  52.897  1.00  0.00     0.017 A 
BRANCH  20  24
HETATM   24  C   UNL     1       8.352  23.116  57.081  1.00  0.00     0.205 C 
BRANCH  24  25
HETATM   25  O   UNL     1       9.032  24.362  57.196  1.00  0.00    -0.391 OA
HETATM   26  C   UNL     1       8.184  25.370  57.727  1.00  0.00     0.201 C 
ENDBRANCH  24  25
ENDBRANCH  20  24
ENDBRANCH  15  18
ENDBRANCH   1  14
BRANCH   2  27
HETATM   27  O   UNL     1       5.100  27.013  53.956  1.00  0.00    -0.354 OA
HETATM   28  C   UNL     1       6.068  27.978  54.373  1.00  0.00     0.210 C 
ENDBRANCH   2  27
TORSDOF 5
ENDMDL
MODEL 10
REMARK VINA RESULT:      -8.3      4.039      7.287
REMARK  5 active torsions:
REMARK  status: ('A' for Active; 'I' for Inactive)
REMARK    1  A    between atoms: O_2  and  C_3 
REMARK    2  A    between atoms: C_3  and  C_4 
REMARK    3  A    between atoms: C_6  and  C_7 
REMARK       I    between atoms: C_7  and  N_8 
REMARK    4  A    between atoms: N_8  and  C_9 
REMARK    5  A    between atoms: C_10  and  O_11 
ROOT
HETATM    1  C   UNL     1       5.572  25.815  53.700  1.00  0.00     0.071 A 
HETATM    2  C   UNL     1       5.749  25.750  55.097  1.00  0.00     0.096 A 
HETATM    3  C   UNL     1       6.448  24.701  55.713  1.00  0.00     0.054 A 
HETATM    4  C   UNL     1       6.939  23.664  54.899  1.00  0.00     0.014 A 
HETATM    5  C   UNL     1       6.741  23.750  53.525  1.00  0.00     0.089 A 
HETATM    6  O   UNL     1       7.276  22.667  52.898  1.00  0.00    -0.309 OA
HETATM    7  C   UNL     1       7.813  21.871  53.861  1.00  0.00     0.087 A 
HETATM    8  C   UNL     1       7.640  22.441  55.118  1.00  0.00     0.011 A 
HETATM    9  C   UNL     1       8.447  20.652  53.635  1.00  0.00     0.038 A 
HETATM   10  C   UNL     1       8.929  19.979  54.762  1.00  0.00     0.003 A 
HETATM   11  C   UNL     1       8.777  20.517  56.043  1.00  0.00     0.001 A 
HETATM   12  C   UNL     1       8.136  21.749  56.239  1.00  0.00     0.015 A 
HETATM   13  C   UNL     1       6.079  24.800  52.886  1.00  0.00     0.070 A 
ENDROOT
BRANCH   1  14
HETATM   14  N   UNL     1       4.842  26.922  53.207  1.00  0.00    -0.320 N 
HETATM   15  C   UNL     1       5.345  28.103  52.704  1.00  0.00     0.256 C 
HETATM   16  O   UNL     1       6.525  28.419  52.626  1.00  0.00    -0.267 OA
HETATM   17  H   UNL     1       3.845  26.751  53.138  1.00  0.00     0.169 HD
BRANCH  15  18
HETATM   18  C   UNL     1       4.324  29.030  52.137  1.00  0.00     0.033 A 
HETATM   19  C   UNL     1       3.564  28.574  51.051  1.00  0.00     0.026 A 
HETATM   20  C   UNL     1       2.565  29.379  50.487  1.00  0.00    -0.034 A 
HETATM   21  C   UNL     1       2.345  30.656  51.023  1.00  0.00     0.009 A 
HETATM   22  C   UNL     1       3.112  31.121  52.093  1.00  0.00     0.002 A 
HETATM   23  C   UNL     1       4.103  30.312  52.651  1.00  0.00     0.017 A 
BRANCH  20  24
HETATM   24  C   UNL     1       1.739  28.874  49.333  1.00  0.00     0.205 C 
BRANCH  24  25
HETATM   25  O   UNL     1       1.921  29.740  48.217  1.00  0.00    -0.391 OA
HETATM   26  C   UNL     1       2.968  29.285  47.372  1.00  0.00     0.201 C 
ENDBRANCH  24  25
ENDBRANCH  20  24
ENDBRANCH  15  18
ENDBRANCH   1  14
BRANCH   2  27
HETATM   27  O   UNL     1       5.243  26.782  55.858  1.00  0.00    -0.354 OA
HETATM   28  C   UNL     1       6.236  27.287  56.753  1.00  0.00     0.210 C 
ENDBRANCH   2  27
TORSDOF 5
ENDMDL
