MODEL 1
REMARK VINA RESULT:     -10.4      0.000      0.000
REMARK  8 active torsions:
REMARK  status: ('A' for Active; 'I' for Inactive)
REMARK    1  A    between atoms: C_3  and  N_4 
REMARK       I    between atoms: N_4  and  C_5 
REMARK    2  A    between atoms: C_5  and  C_6 
REMARK    3  A    between atoms: C_13  and  C_14 
REMARK       I    between atoms: C_14  and  N_15 
REMARK    4  A    between atoms: N_15  and  CA_16 
REMARK    5  A    between atoms: CA_16  and  C_17 
REMARK    6  A    between atoms: CA_16  and  C_27 
REMARK    7  A    between atoms: C_20  and  C_21 
REMARK    8  A    between atoms: C_27  and  O_28 
ROOT
HETATM    1  C   UNL     1       6.549  27.654  54.318  1.00  0.00     0.252 C 
HETATM    2  N   UNL     1       6.155  26.363  54.047  1.00  0.00    -0.346 N 
HETATM    3  O   UNL     1       7.464  28.210  53.719  1.00  0.00    -0.268 OA
HETATM    4  H   UNL     1       5.551  25.886  54.704  1.00  0.00     0.163 HD
ENDROOT
BRANCH   1   5
HETATM    5  C   UNL     1       5.808  28.381  55.378  1.00  0.00     0.034 A 
HETATM    6  C   UNL     1       6.531  28.910  56.456  1.00  0.00     0.047 A 
HETATM    7  C   UNL     1       5.899  29.653  57.469  1.00  0.00     0.042 A 
HETATM    8  C   UNL     1       4.532  29.954  57.333  1.00  0.00    -0.035 A 
HETATM    9  C   UNL     1       3.773  30.909  58.214  1.00  0.00     0.050 C 
HETATM   10  C   UNL     1       3.810  29.392  56.257  1.00  0.00     0.010 A 
HETATM   11  C   UNL     1       4.437  28.609  55.287  1.00  0.00     0.017 A 
BRANCH   7  12
HETATM   12  N   UNL     1       6.748  30.069  58.516  1.00  0.00    -0.321 N 
HETATM   13  C   UNL     1       7.166  31.347  58.845  1.00  0.00     0.279 C 
HETATM   14  O   UNL     1       6.809  32.380  58.291  1.00  0.00    -0.265 OA
HETATM   15  H   UNL     1       6.946  29.386  59.241  1.00  0.00     0.169 HD
BRANCH  13  16
HETATM   16  C   UNL     1       8.052  31.365  59.997  1.00  0.00     0.142 A 
HETATM   17  O   UNL     1       8.576  30.186  60.465  1.00  0.00    -0.317 OA
HETATM   18  C   UNL     1       9.354  30.493  61.536  1.00  0.00     0.143 A 
HETATM   19  C   UNL     1       9.343  31.847  61.770  1.00  0.00     0.027 A 
HETATM   20  C   UNL     1       8.503  32.410  60.781  1.00  0.00     0.045 A 
ENDBRANCH  13  16
ENDBRANCH   7  12
ENDBRANCH   1   5
BRANCH   2  21
HETATM   21  CA  UNL     1       6.822  25.560  53.020  1.00  0.00     0.141 C 
BRANCH  21  22
HETATM   22  C   UNL     1       7.219  24.205  53.584  1.00  0.00    -0.033 A 
HETATM   23  C   UNL     1       7.792  23.211  52.776  1.00  0.00     0.010 A 
HETATM   24  C   UNL     1       8.194  21.990  53.327  1.00  0.00     0.017 A 
HETATM   25  C   UNL     1       8.030  21.736  54.696  1.00  0.00     0.047 A 
HETATM   26  C   UNL     1       7.454  22.726  55.502  1.00  0.00     0.017 A 
HETATM   27  C   UNL     1       7.050  23.946  54.952  1.00  0.00     0.010 A 
BRANCH  25  28
HETATM   28  C   UNL     1       8.500  20.439  55.310  1.00  0.00     0.417 C 
HETATM   29  F   UNL     1       7.600  19.892  56.174  1.00  0.00    -0.166 F 
HETATM   30  F   UNL     1       8.749  19.483  54.375  1.00  0.00    -0.166 F 
HETATM   31  F   UNL     1       9.656  20.581  56.019  1.00  0.00    -0.166 F 
ENDBRANCH  25  28
ENDBRANCH  21  22
BRANCH  21  32
HETATM   32  C   UNL     1       5.949  25.394  51.749  1.00  0.00     0.194 C 
BRANCH  32  33
HETATM   33  O   UNL     1       4.608  25.008  52.053  1.00  0.00    -0.399 OA
HETATM   34  H   UNL     1       4.478  24.098  51.704  1.00  0.00     0.209 HD
ENDBRANCH  32  33
ENDBRANCH  21  32
ENDBRANCH   2  21
TORSDOF 8
ENDMDL
MODEL 2
REMARK VINA RESULT:     -10.3      2.213      3.255
REMARK  8 active torsions:
REMARK  status: ('A' for Active; 'I' for Inactive)
REMARK    1  A    between atoms: C_3  and  N_4 
REMARK       I    between atoms: N_4  and  C_5 
REMARK    2  A    between atoms: C_5  and  C_6 
REMARK    3  A    between atoms: C_13  and  C_14 
REMARK       I    between atoms: C_14  and  N_15 
REMARK    4  A    between atoms: N_15  and  CA_16 
REMARK    5  A    between atoms: CA_16  and  C_17 
REMARK    6  A    between atoms: CA_16  and  C_27 
REMARK    7  A    between atoms: C_20  and  C_21 
REMARK    8  A    between atoms: C_27  and  O_28 
ROOT
HETATM    1  C   UNL     1       6.912  27.908  55.840  1.00  0.00     0.252 C 
HETATM    2  N   UNL     1       7.074  26.553  56.025  1.00  0.00    -0.346 N 
HETATM    3  O   UNL     1       5.927  28.392  55.294  1.00  0.00    -0.268 OA
HETATM    4  H   UNL     1       7.987  26.198  56.281  1.00  0.00     0.163 HD
ENDROOT
BRANCH   1   5
HETATM    5  C   UNL     1       7.990  28.794  56.345  1.00  0.00     0.034 A 
HETATM    6  C   UNL     1       7.847  29.361  57.618  1.00  0.00     0.047 A 
HETATM    7  C   UNL     1       8.852  30.169  58.179  1.00  0.00     0.042 A 
HETATM    8  C   UNL     1      10.064  30.319  57.482  1.00  0.00    -0.035 A 
HETATM    9  C   UNL     1      11.301  30.969  58.044  1.00  0.00     0.050 C 
HETATM   10  C   UNL     1      10.184  29.765  56.189  1.00  0.00     0.010 A 
HETATM   11  C   UNL     1       9.158  29.011  55.619  1.00  0.00     0.017 A 
BRANCH   7  12
HETATM   12  N   UNL     1       8.538  30.714  59.442  1.00  0.00    -0.321 N 
HETATM   13  C   UNL     1       7.714  31.782  59.751  1.00  0.00     0.279 C 
HETATM   14  O   UNL     1       7.048  32.425  58.949  1.00  0.00    -0.265 OA
HETATM   15  H   UNL     1       8.793  30.160  60.254  1.00  0.00     0.169 HD
BRANCH  13  16
HETATM   16  C   UNL     1       7.653  32.045  61.179  1.00  0.00     0.142 A 
HETATM   17  O   UNL     1       6.453  32.380  61.754  1.00  0.00    -0.317 OA
HETATM   18  C   UNL     1       6.686  32.572  63.079  1.00  0.00     0.143 A 
HETATM   19  C   UNL     1       8.013  32.369  63.372  1.00  0.00     0.027 A 
HETATM   20  C   UNL     1       8.639  32.031  62.149  1.00  0.00     0.045 A 
ENDBRANCH  13  16
ENDBRANCH   7  12
ENDBRANCH   1   5
BRANCH   2  21
HETATM   21  CA  UNL     1       6.069  25.593  55.564  1.00  0.00     0.141 C 
BRANCH  21  22
HETATM   22  C   UNL     1       6.741  24.333  55.044  1.00  0.00    -0.033 A 
HETATM   23  C   UNL     1       7.218  23.340  55.916  1.00  0.00     0.010 A 
HETATM   24  C   UNL     1       7.789  22.167  55.413  1.00  0.00     0.017 A 
HETATM   25  C   UNL     1       7.899  21.961  54.031  1.00  0.00     0.047 A 
HETATM   26  C   UNL     1       7.427  22.953  53.161  1.00  0.00     0.017 A 
HETATM   27  C   UNL     1       6.858  24.127  53.662  1.00  0.00     0.010 A 
BRANCH  25  28
HETATM   28  C   UNL     1       8.473  20.679  53.476  1.00  0.00     0.417 C 
HETATM   29  F   UNL     1       8.720  19.739  54.430  1.00  0.00    -0.166 F 
HETATM   30  F   UNL     1       7.644  20.088  52.574  1.00  0.00    -0.166 F 
HETATM   31  F   UNL     1       9.657  20.870  52.828  1.00  0.00    -0.166 F 
ENDBRANCH  25  28
ENDBRANCH  21  22
BRANCH  21  32
HETATM   32  C   UNL     1       5.035  25.252  56.668  1.00  0.00     0.194 C 
BRANCH  32  33
HETATM   33  O   UNL     1       4.270  26.389  57.070  1.00  0.00    -0.399 OA
HETATM   34  H   UNL     1       4.529  26.607  57.993  1.00  0.00     0.209 HD
ENDBRANCH  32  33
ENDBRANCH  21  32
ENDBRANCH   2  21
TORSDOF 8
ENDMDL
MODEL 3
REMARK VINA RESULT:      -9.7      3.476      7.355
REMARK  8 active torsions:
REMARK  status: ('A' for Active; 'I' for Inactive)
REMARK    1  A    between atoms: C_3  and  N_4 
REMARK       I    between atoms: N_4  and  C_5 
REMARK    2  A    between atoms: C_5  and  C_6 
REMARK    3  A    between atoms: C_13  and  C_14 
REMARK       I    between atoms: C_14  and  N_15 
REMARK    4  A    between atoms: N_15  and  CA_16 
REMARK    5  A    between atoms: CA_16  and  C_17 
REMARK    6  A    between atoms: CA_16  and  C_27 
REMARK    7  A    between atoms: C_20  and  C_21 
REMARK    8  A    between atoms: C_27  and  O_28 
ROOT
HETATM    1  C   UNL     1       5.256  27.489  55.592  1.00  0.00     0.252 C 
HETATM    2  N   UNL     1       6.324  26.683  55.268  1.00  0.00    -0.346 N 
HETATM    3  O   UNL     1       4.731  27.483  56.701  1.00  0.00    -0.268 OA
HETATM    4  H   UNL     1       6.577  26.571  54.294  1.00  0.00     0.163 HD
ENDROOT
BRANCH   1   5
HETATM    5  C   UNL     1       4.749  28.400  54.537  1.00  0.00     0.034 A 
HETATM    6  C   UNL     1       4.366  27.850  53.306  1.00  0.00     0.047 A 
HETATM    7  C   UNL     1       3.830  28.648  52.280  1.00  0.00     0.042 A 
HETATM    8  C   UNL     1       3.580  30.007  52.543  1.00  0.00    -0.035 A 
HETATM    9  C   UNL     1       2.820  30.931  51.630  1.00  0.00     0.050 C 
HETATM   10  C   UNL     1       3.995  30.554  53.778  1.00  0.00     0.010 A 
HETATM   11  C   UNL     1       4.577  29.763  54.767  1.00  0.00     0.017 A 
BRANCH   7  12
HETATM   12  N   UNL     1       3.548  27.962  51.081  1.00  0.00    -0.321 N 
HETATM   13  C   UNL     1       4.293  27.897  49.916  1.00  0.00     0.279 C 
HETATM   14  O   UNL     1       5.395  28.403  49.745  1.00  0.00    -0.265 OA
HETATM   15  H   UNL     1       2.800  27.276  51.113  1.00  0.00     0.169 HD
BRANCH  13  16
HETATM   16  C   UNL     1       3.657  27.087  48.891  1.00  0.00     0.142 A 
HETATM   17  O   UNL     1       2.342  27.313  48.569  1.00  0.00    -0.317 OA
HETATM   18  C   UNL     1       2.010  26.423  47.599  1.00  0.00     0.143 A 
HETATM   19  C   UNL     1       3.083  25.624  47.286  1.00  0.00     0.027 A 
HETATM   20  C   UNL     1       4.145  26.049  48.120  1.00  0.00     0.045 A 
ENDBRANCH  13  16
ENDBRANCH   7  12
ENDBRANCH   1   5
BRANCH   2  21
HETATM   21  CA  UNL     1       6.899  25.748  56.237  1.00  0.00     0.141 C 
BRANCH  21  22
HETATM   22  C   UNL     1       7.295  24.452  55.549  1.00  0.00    -0.033 A 
HETATM   23  C   UNL     1       7.845  23.376  56.266  1.00  0.00     0.010 A 
HETATM   24  C   UNL     1       8.156  22.176  55.620  1.00  0.00     0.017 A 
HETATM   25  C   UNL     1       7.929  22.025  54.245  1.00  0.00     0.047 A 
HETATM   26  C   UNL     1       7.384  23.099  53.529  1.00  0.00     0.017 A 
HETATM   27  C   UNL     1       7.074  24.300  54.173  1.00  0.00     0.010 A 
BRANCH  25  28
HETATM   28  C   UNL     1       8.220  20.719  53.545  1.00  0.00     0.417 C 
HETATM   29  F   UNL     1       7.208  20.302  52.734  1.00  0.00    -0.166 F 
HETATM   30  F   UNL     1       9.326  20.789  52.756  1.00  0.00    -0.166 F 
HETATM   31  F   UNL     1       8.445  19.694  54.414  1.00  0.00    -0.166 F 
ENDBRANCH  25  28
ENDBRANCH  21  22
BRANCH  21  32
HETATM   32  C   UNL     1       8.104  26.361  56.997  1.00  0.00     0.194 C 
BRANCH  32  33
HETATM   33  O   UNL     1       7.698  27.201  58.078  1.00  0.00    -0.399 OA
HETATM   34  H   UNL     1       6.887  27.677  57.793  1.00  0.00     0.209 HD
ENDBRANCH  32  33
ENDBRANCH  21  32
ENDBRANCH   2  21
TORSDOF 8
ENDMDL
MODEL 4
REMARK VINA RESULT:      -9.7      1.942      3.378
REMARK  8 active torsions:
REMARK  status: ('A' for Active; 'I' for Inactive)
REMARK    1  A    between atoms: C_3  and  N_4 
REMARK       I    between atoms: N_4  and  C_5 
REMARK    2  A    between atoms: C_5  and  C_6 
REMARK    3  A    between atoms: C_13  and  C_14 
REMARK       I    between atoms: C_14  and  N_15 
REMARK    4  A    between atoms: N_15  and  CA_16 
REMARK    5  A    between atoms: CA_16  and  C_17 
REMARK    6  A    between atoms: CA_16  and  C_27 
REMARK    7  A    between atoms: C_20  and  C_21 
REMARK    8  A    between atoms: C_27  and  O_28 
ROOT
HETATM    1  C   UNL     1       7.886  28.375  54.991  1.00  0.00     0.252 C 
HETATM    2  N   UNL     1       6.820  27.526  55.186  1.00  0.00    -0.346 N 
HETATM    3  O   UNL     1       8.440  28.508  53.905  1.00  0.00    -0.268 OA
HETATM    4  H   UNL     1       6.542  27.294  56.132  1.00  0.00     0.163 HD
ENDROOT
BRANCH   1   5
HETATM    5  C   UNL     1       8.352  29.157  56.162  1.00  0.00     0.034 A 
HETATM    6  C   UNL     1       7.393  29.688  57.035  1.00  0.00     0.047 A 
HETATM    7  C   UNL     1       7.766  30.396  58.192  1.00  0.00     0.042 A 
HETATM    8  C   UNL     1       9.130  30.477  58.523  1.00  0.00    -0.035 A 
HETATM    9  C   UNL     1       9.666  31.009  59.825  1.00  0.00     0.050 C 
HETATM   10  C   UNL     1      10.087  29.961  57.621  1.00  0.00     0.010 A 
HETATM   11  C   UNL     1       9.706  29.309  56.448  1.00  0.00     0.017 A 
BRANCH   7  12
HETATM   12  N   UNL     1       6.690  30.919  58.939  1.00  0.00    -0.321 N 
HETATM   13  C   UNL     1       5.954  32.070  58.720  1.00  0.00     0.279 C 
HETATM   14  O   UNL     1       6.084  32.832  57.770  1.00  0.00    -0.265 OA
HETATM   15  H   UNL     1       6.266  30.300  59.623  1.00  0.00     0.169 HD
BRANCH  13  16
HETATM   16  C   UNL     1       4.923  32.273  59.725  1.00  0.00     0.142 A 
HETATM   17  O   UNL     1       3.609  32.354  59.339  1.00  0.00    -0.317 OA
HETATM   18  C   UNL     1       2.874  32.547  60.465  1.00  0.00     0.143 A 
HETATM   19  C   UNL     1       3.686  32.594  61.572  1.00  0.00     0.027 A 
HETATM   20  C   UNL     1       5.008  32.420  61.097  1.00  0.00     0.045 A 
ENDBRANCH  13  16
ENDBRANCH   7  12
ENDBRANCH   1   5
BRANCH   2  21
HETATM   21  CA  UNL     1       6.283  26.709  54.095  1.00  0.00     0.141 C 
BRANCH  21  22
HETATM   22  C   UNL     1       6.871  25.308  54.145  1.00  0.00    -0.033 A 
HETATM   23  C   UNL     1       6.763  24.505  55.292  1.00  0.00     0.010 A 
HETATM   24  C   UNL     1       7.269  23.201  55.297  1.00  0.00     0.017 A 
HETATM   25  C   UNL     1       7.897  22.674  54.160  1.00  0.00     0.047 A 
HETATM   26  C   UNL     1       8.009  23.477  53.017  1.00  0.00     0.017 A 
HETATM   27  C   UNL     1       7.505  24.780  53.011  1.00  0.00     0.010 A 
BRANCH  25  28
HETATM   28  C   UNL     1       8.408  21.253  54.139  1.00  0.00     0.417 C 
HETATM   29  F   UNL     1       9.440  21.036  55.002  1.00  0.00    -0.166 F 
HETATM   30  F   UNL     1       7.446  20.351  54.473  1.00  0.00    -0.166 F 
HETATM   31  F   UNL     1       8.866  20.876  52.912  1.00  0.00    -0.166 F 
ENDBRANCH  25  28
ENDBRANCH  21  22
BRANCH  21  32
HETATM   32  C   UNL     1       4.733  26.658  54.111  1.00  0.00     0.194 C 
BRANCH  32  33
HETATM   33  O   UNL     1       4.205  25.791  53.106  1.00  0.00    -0.399 OA
HETATM   34  H   UNL     1       4.723  24.957  53.134  1.00  0.00     0.209 HD
ENDBRANCH  32  33
ENDBRANCH  21  32
ENDBRANCH   2  21
TORSDOF 8
ENDMDL
MODEL 5
REMARK VINA RESULT:      -9.7      6.045     10.704
REMARK  8 active torsions:
REMARK  status: ('A' for Active; 'I' for Inactive)
REMARK    1  A    between atoms: C_3  and  N_4 
REMARK       I    between atoms: N_4  and  C_5 
REMARK    2  A    between atoms: C_5  and  C_6 
REMARK    3  A    between atoms: C_13  and  C_14 
REMARK       I    between atoms: C_14  and  N_15 
REMARK    4  A    between atoms: N_15  and  CA_16 
REMARK    5  A    between atoms: CA_16  and  C_17 
REMARK    6  A    between atoms: CA_16  and  C_27 
REMARK    7  A    between atoms: C_20  and  C_21 
REMARK    8  A    between atoms: C_27  and  O_28 
ROOT
HETATM    1  C   UNL     1       7.946  30.912  59.155  1.00  0.00     0.252 C 
HETATM    2  N   UNL     1       7.583  30.882  60.483  1.00  0.00    -0.346 N 
HETATM    3  O   UNL     1       8.984  31.432  58.760  1.00  0.00    -0.268 OA
HETATM    4  H   UNL     1       6.632  30.637  60.727  1.00  0.00     0.163 HD
ENDROOT
BRANCH   1   5
HETATM    5  C   UNL     1       7.026  30.266  58.187  1.00  0.00     0.034 A 
HETATM    6  C   UNL     1       7.340  28.983  57.721  1.00  0.00     0.047 A 
HETATM    7  C   UNL     1       6.487  28.292  56.841  1.00  0.00     0.042 A 
HETATM    8  C   UNL     1       5.247  28.868  56.513  1.00  0.00    -0.035 A 
HETATM    9  C   UNL     1       4.147  28.164  55.765  1.00  0.00     0.050 C 
HETATM   10  C   UNL     1       4.955  30.173  56.968  1.00  0.00     0.010 A 
HETATM   11  C   UNL     1       5.835  30.871  57.795  1.00  0.00     0.017 A 
BRANCH   7  12
HETATM   12  N   UNL     1       6.967  27.036  56.415  1.00  0.00    -0.321 N 
HETATM   13  C   UNL     1       6.544  25.770  56.782  1.00  0.00     0.279 C 
HETATM   14  O   UNL     1       5.607  25.519  57.529  1.00  0.00    -0.265 OA
HETATM   15  H   UNL     1       7.576  27.032  55.602  1.00  0.00     0.169 HD
BRANCH  13  16
HETATM   16  C   UNL     1       7.300  24.717  56.124  1.00  0.00     0.142 A 
HETATM   17  O   UNL     1       8.579  24.442  56.538  1.00  0.00    -0.317 OA
HETATM   18  C   UNL     1       9.042  23.432  55.758  1.00  0.00     0.143 A 
HETATM   19  C   UNL     1       8.089  23.047  54.846  1.00  0.00     0.027 A 
HETATM   20  C   UNL     1       6.966  23.876  55.079  1.00  0.00     0.045 A 
ENDBRANCH  13  16
ENDBRANCH   7  12
ENDBRANCH   1   5
BRANCH   2  21
HETATM   21  CA  UNL     1       8.421  31.491  61.518  1.00  0.00     0.141 C 
BRANCH  21  22
HETATM   22  C   UNL     1       7.555  32.111  62.603  1.00  0.00    -0.033 A 
HETATM   23  C   UNL     1       8.112  32.864  63.649  1.00  0.00     0.010 A 
HETATM   24  C   UNL     1       7.291  33.465  64.608  1.00  0.00     0.017 A 
HETATM   25  C   UNL     1       5.898  33.324  64.545  1.00  0.00     0.047 A 
HETATM   26  C   UNL     1       5.342  32.569  63.504  1.00  0.00     0.017 A 
HETATM   27  C   UNL     1       6.162  31.966  62.546  1.00  0.00     0.010 A 
BRANCH  25  28
HETATM   28  C   UNL     1       4.998  34.005  65.549  1.00  0.00     0.417 C 
HETATM   29  F   UNL     1       5.077  33.467  66.798  1.00  0.00    -0.166 F 
HETATM   30  F   UNL     1       5.288  35.326  65.692  1.00  0.00    -0.166 F 
HETATM   31  F   UNL     1       3.682  33.945  65.202  1.00  0.00    -0.166 F 
ENDBRANCH  25  28
ENDBRANCH  21  22
BRANCH  21  32
HETATM   32  C   UNL     1       9.428  30.479  62.126  1.00  0.00     0.194 C 
BRANCH  32  33
HETATM   33  O   UNL     1       8.780  29.358  62.727  1.00  0.00    -0.399 OA
HETATM   34  H   UNL     1       8.559  28.725  62.008  1.00  0.00     0.209 HD
ENDBRANCH  32  33
ENDBRANCH  21  32
ENDBRANCH   2  21
TORSDOF 8
ENDMDL
MODEL 6
REMARK VINA RESULT:      -9.1      2.083      3.916
REMARK  8 active torsions:
REMARK  status: ('A' for Active; 'I' for Inactive)
REMARK    1  A    between atoms: C_3  and  N_4 
REMARK       I    between atoms: N_4  and  C_5 
REMARK    2  A    between atoms: C_5  and  C_6 
REMARK    3  A    between atoms: C_13  and  C_14 
REMARK       I    between atoms: C_14  and  N_15 
REMARK    4  A    between atoms: N_15  and  CA_16 
REMARK    5  A    between atoms: CA_16  and  C_17 
REMARK    6  A    between atoms: CA_16  and  C_27 
REMARK    7  A    between atoms: C_20  and  C_21 
REMARK    8  A    between atoms: C_27  and  O_28 
ROOT
HETATM    1  C   UNL     1       7.248  27.489  54.607  1.00  0.00     0.252 C 
HETATM    2  N   UNL     1       6.336  26.462  54.697  1.00  0.00    -0.346 N 
HETATM    3  O   UNL     1       8.003  27.626  53.651  1.00  0.00    -0.268 OA
HETATM    4  H   UNL     1       5.896  26.272  55.589  1.00  0.00     0.163 HD
ENDROOT
BRANCH   1   5
HETATM    5  C   UNL     1       7.286  28.462  55.726  1.00  0.00     0.034 A 
HETATM    6  C   UNL     1       6.349  29.504  55.738  1.00  0.00     0.047 A 
HETATM    7  C   UNL     1       6.295  30.431  56.793  1.00  0.00     0.042 A 
HETATM    8  C   UNL     1       7.134  30.238  57.905  1.00  0.00    -0.035 A 
HETATM    9  C   UNL     1       7.043  31.012  59.193  1.00  0.00     0.050 C 
HETATM   10  C   UNL     1       8.092  29.200  57.869  1.00  0.00     0.010 A 
HETATM   11  C   UNL     1       8.173  28.320  56.790  1.00  0.00     0.017 A 
BRANCH   7  12
HETATM   12  N   UNL     1       5.338  31.456  56.635  1.00  0.00    -0.321 N 
HETATM   13  C   UNL     1       3.990  31.446  56.945  1.00  0.00     0.279 C 
HETATM   14  O   UNL     1       3.387  30.525  57.483  1.00  0.00    -0.265 OA
HETATM   15  H   UNL     1       5.695  32.386  56.438  1.00  0.00     0.169 HD
BRANCH  13  16
HETATM   16  C   UNL     1       3.334  32.703  56.624  1.00  0.00     0.142 A 
HETATM   17  O   UNL     1       2.170  32.691  55.897  1.00  0.00    -0.317 OA
HETATM   18  C   UNL     1       1.784  33.985  55.741  1.00  0.00     0.143 A 
HETATM   19  C   UNL     1       2.676  34.833  56.351  1.00  0.00     0.027 A 
HETATM   20  C   UNL     1       3.677  34.009  56.919  1.00  0.00     0.045 A 
ENDBRANCH  13  16
ENDBRANCH   7  12
ENDBRANCH   1   5
BRANCH   2  21
HETATM   21  CA  UNL     1       6.219  25.449  53.647  1.00  0.00     0.141 C 
BRANCH  21  22
HETATM   22  C   UNL     1       6.923  24.168  54.066  1.00  0.00    -0.033 A 
HETATM   23  C   UNL     1       7.062  23.813  55.417  1.00  0.00     0.010 A 
HETATM   24  C   UNL     1       7.671  22.607  55.776  1.00  0.00     0.017 A 
HETATM   25  C   UNL     1       8.155  21.731  54.795  1.00  0.00     0.047 A 
HETATM   26  C   UNL     1       8.020  22.087  53.446  1.00  0.00     0.017 A 
HETATM   27  C   UNL     1       7.414  23.293  53.086  1.00  0.00     0.010 A 
BRANCH  25  28
HETATM   28  C   UNL     1       8.774  20.405  55.169  1.00  0.00     0.417 C 
HETATM   29  F   UNL     1       9.914  20.529  55.905  1.00  0.00    -0.166 F 
HETATM   30  F   UNL     1       7.934  19.631  55.907  1.00  0.00    -0.166 F 
HETATM   31  F   UNL     1       9.115  19.657  54.081  1.00  0.00    -0.166 F 
ENDBRANCH  25  28
ENDBRANCH  21  22
BRANCH  21  32
HETATM   32  C   UNL     1       4.742  25.167  53.267  1.00  0.00     0.194 C 
BRANCH  32  33
HETATM   33  O   UNL     1       3.944  26.352  53.258  1.00  0.00    -0.399 OA
HETATM   34  H   UNL     1       3.873  26.652  52.325  1.00  0.00     0.209 HD
ENDBRANCH  32  33
ENDBRANCH  21  32
ENDBRANCH   2  21
TORSDOF 8
ENDMDL
MODEL 7
REMARK VINA RESULT:      -9.0      2.716      4.156
REMARK  8 active torsions:
REMARK  status: ('A' for Active; 'I' for Inactive)
REMARK    1  A    between atoms: C_3  and  N_4 
REMARK       I    between atoms: N_4  and  C_5 
REMARK    2  A    between atoms: C_5  and  C_6 
REMARK    3  A    between atoms: C_13  and  C_14 
REMARK       I    between atoms: C_14  and  N_15 
REMARK    4  A    between atoms: N_15  and  CA_16 
REMARK    5  A    between atoms: CA_16  and  C_17 
REMARK    6  A    between atoms: CA_16  and  C_27 
REMARK    7  A    between atoms: C_20  and  C_21 
REMARK    8  A    between atoms: C_27  and  O_28 
ROOT
HETATM    1  C   UNL     1       6.890  29.280  56.957  1.00  0.00     0.252 C 
HETATM    2  N   UNL     1       6.919  27.910  57.087  1.00  0.00    -0.346 N 
HETATM    3  O   UNL     1       6.252  29.852  56.080  1.00  0.00    -0.268 OA
HETATM    4  H   UNL     1       7.621  27.487  57.681  1.00  0.00     0.163 HD
ENDROOT
BRANCH   1   5
HETATM    5  C   UNL     1       7.667  30.071  57.943  1.00  0.00     0.034 A 
HETATM    6  C   UNL     1       6.976  30.705  58.984  1.00  0.00     0.047 A 
HETATM    7  C   UNL     1       7.654  31.428  59.982  1.00  0.00     0.042 A 
HETATM    8  C   UNL     1       9.060  31.421  59.983  1.00  0.00    -0.035 A 
HETATM    9  C   UNL     1       9.919  31.962  61.094  1.00  0.00     0.050 C 
HETATM   10  C   UNL     1       9.743  30.801  58.913  1.00  0.00     0.010 A 
HETATM   11  C   UNL     1       9.058  30.134  57.899  1.00  0.00     0.017 A 
BRANCH   7  12
HETATM   12  N   UNL     1       6.819  32.058  60.928  1.00  0.00    -0.321 N 
HETATM   13  C   UNL     1       6.579  31.713  62.247  1.00  0.00     0.279 C 
HETATM   14  O   UNL     1       7.117  30.795  62.854  1.00  0.00    -0.265 OA
HETATM   15  H   UNL     1       6.480  32.985  60.692  1.00  0.00     0.169 HD
BRANCH  13  16
HETATM   16  C   UNL     1       5.642  32.613  62.898  1.00  0.00     0.142 A 
HETATM   17  O   UNL     1       5.728  32.816  64.252  1.00  0.00    -0.317 OA
HETATM   18  C   UNL     1       4.742  33.686  64.589  1.00  0.00     0.143 A 
HETATM   19  C   UNL     1       4.017  34.051  63.480  1.00  0.00     0.027 A 
HETATM   20  C   UNL     1       4.595  33.358  62.389  1.00  0.00     0.045 A 
ENDBRANCH  13  16
ENDBRANCH   7  12
ENDBRANCH   1   5
BRANCH   2  21
HETATM   21  CA  UNL     1       6.187  27.039  56.165  1.00  0.00     0.141 C 
BRANCH  21  22
HETATM   22  C   UNL     1       6.879  25.690  56.050  1.00  0.00    -0.033 A 
HETATM   23  C   UNL     1       7.610  25.144  57.117  1.00  0.00     0.010 A 
HETATM   24  C   UNL     1       8.197  23.881  57.004  1.00  0.00     0.017 A 
HETATM   25  C   UNL     1       8.070  23.137  55.823  1.00  0.00     0.047 A 
HETATM   26  C   UNL     1       7.344  23.683  54.756  1.00  0.00     0.017 A 
HETATM   27  C   UNL     1       6.758  24.947  54.867  1.00  0.00     0.010 A 
BRANCH  25  28
HETATM   28  C   UNL     1       8.662  21.752  55.704  1.00  0.00     0.417 C 
HETATM   29  F   UNL     1       8.911  21.165  56.908  1.00  0.00    -0.166 F 
HETATM   30  F   UNL     1       7.846  20.895  55.033  1.00  0.00    -0.166 F 
HETATM   31  F   UNL     1       9.849  21.742  55.034  1.00  0.00    -0.166 F 
ENDBRANCH  25  28
ENDBRANCH  21  22
BRANCH  21  32
HETATM   32  C   UNL     1       4.703  26.864  56.580  1.00  0.00     0.194 C 
BRANCH  32  33
HETATM   33  O   UNL     1       3.882  27.947  56.142  1.00  0.00    -0.399 OA
HETATM   34  H   UNL     1       4.460  28.737  56.051  1.00  0.00     0.209 HD
ENDBRANCH  32  33
ENDBRANCH  21  32
ENDBRANCH   2  21
TORSDOF 8
ENDMDL
MODEL 8
REMARK VINA RESULT:      -8.9      4.584      9.814
REMARK  8 active torsions:
REMARK  status: ('A' for Active; 'I' for Inactive)
REMARK    1  A    between atoms: C_3  and  N_4 
REMARK       I    between atoms: N_4  and  C_5 
REMARK    2  A    between atoms: C_5  and  C_6 
REMARK    3  A    between atoms: C_13  and  C_14 
REMARK       I    between atoms: C_14  and  N_15 
REMARK    4  A    between atoms: N_15  and  CA_16 
REMARK    5  A    between atoms: CA_16  and  C_17 
REMARK    6  A    between atoms: CA_16  and  C_27 
REMARK    7  A    between atoms: C_20  and  C_21 
REMARK    8  A    between atoms: C_27  and  O_28 
ROOT
HETATM    1  C   UNL     1       5.084  28.580  55.684  1.00  0.00     0.252 C 
HETATM    2  N   UNL     1       5.904  29.618  56.068  1.00  0.00    -0.346 N 
HETATM    3  O   UNL     1       3.920  28.478  56.055  1.00  0.00    -0.268 OA
HETATM    4  H   UNL     1       6.900  29.541  55.911  1.00  0.00     0.163 HD
ENDROOT
BRANCH   1   5
HETATM    5  C   UNL     1       5.662  27.563  54.770  1.00  0.00     0.034 A 
HETATM    6  C   UNL     1       5.073  27.385  53.511  1.00  0.00     0.047 A 
HETATM    7  C   UNL     1       5.599  26.476  52.577  1.00  0.00     0.042 A 
HETATM    8  C   UNL     1       6.802  25.813  52.883  1.00  0.00    -0.035 A 
HETATM    9  C   UNL     1       7.594  24.983  51.910  1.00  0.00     0.050 C 
HETATM   10  C   UNL     1       7.369  25.982  54.165  1.00  0.00     0.010 A 
HETATM   11  C   UNL     1       6.807  26.845  55.105  1.00  0.00     0.017 A 
BRANCH   7  12
HETATM   12  N   UNL     1       4.864  26.365  51.378  1.00  0.00    -0.321 N 
HETATM   13  C   UNL     1       4.902  27.171  50.254  1.00  0.00     0.279 C 
HETATM   14  O   UNL     1       5.652  28.124  50.083  1.00  0.00    -0.265 OA
HETATM   15  H   UNL     1       4.371  25.491  51.225  1.00  0.00     0.169 HD
BRANCH  13  16
HETATM   16  C   UNL     1       3.980  26.730  49.220  1.00  0.00     0.142 A 
HETATM   17  O   UNL     1       3.854  25.390  48.953  1.00  0.00    -0.317 OA
HETATM   18  C   UNL     1       2.943  25.266  47.954  1.00  0.00     0.143 A 
HETATM   19  C   UNL     1       2.476  26.500  47.568  1.00  0.00     0.027 A 
HETATM   20  C   UNL     1       3.146  27.445  48.381  1.00  0.00     0.045 A 
ENDBRANCH  13  16
ENDBRANCH   7  12
ENDBRANCH   1   5
BRANCH   2  21
HETATM   21  CA  UNL     1       5.431  30.673  56.967  1.00  0.00     0.141 C 
BRANCH  21  22
HETATM   22  C   UNL     1       6.418  30.880  58.104  1.00  0.00    -0.033 A 
HETATM   23  C   UNL     1       6.272  31.931  59.023  1.00  0.00     0.010 A 
HETATM   24  C   UNL     1       7.164  32.072  60.090  1.00  0.00     0.017 A 
HETATM   25  C   UNL     1       8.223  31.169  60.260  1.00  0.00     0.047 A 
HETATM   26  C   UNL     1       8.372  30.122  59.340  1.00  0.00     0.017 A 
HETATM   27  C   UNL     1       7.481  29.981  58.273  1.00  0.00     0.010 A 
BRANCH  25  28
HETATM   28  C   UNL     1       9.168  31.286  61.433  1.00  0.00     0.417 C 
HETATM   29  F   UNL     1      10.205  32.140  61.209  1.00  0.00    -0.166 F 
HETATM   30  F   UNL     1       8.546  31.738  62.555  1.00  0.00    -0.166 F 
HETATM   31  F   UNL     1       9.735  30.094  61.773  1.00  0.00    -0.166 F 
ENDBRANCH  25  28
ENDBRANCH  21  22
BRANCH  21  32
HETATM   32  C   UNL     1       5.164  32.004  56.218  1.00  0.00     0.194 C 
BRANCH  32  33
HETATM   33  O   UNL     1       5.043  31.822  54.806  1.00  0.00    -0.399 OA
HETATM   34  H   UNL     1       5.576  31.033  54.564  1.00  0.00     0.209 HD
ENDBRANCH  32  33
ENDBRANCH  21  32
ENDBRANCH   2  21
TORSDOF 8
ENDMDL
MODEL 9
REMARK VINA RESULT:      -8.7      4.615      7.232
REMARK  8 active torsions:
REMARK  status: ('A' for Active; 'I' for Inactive)
REMARK    1  A    between atoms: C_3  and  N_4 
REMARK       I    between atoms: N_4  and  C_5 
REMARK    2  A    between atoms: C_5  and  C_6 
REMARK    3  A    between atoms: C_13  and  C_14 
REMARK       I    between atoms: C_14  and  N_15 
REMARK    4  A    between atoms: N_15  and  CA_16 
REMARK    5  A    between atoms: CA_16  and  C_17 
REMARK    6  A    between atoms: CA_16  and  C_27 
REMARK    7  A    between atoms: C_20  and  C_21 
REMARK    8  A    between atoms: C_27  and  O_28 
ROOT
HETATM    1  C   UNL     1       5.205  27.313  52.399  1.00  0.00     0.252 C 
HETATM    2  N   UNL     1       6.495  27.137  52.846  1.00  0.00    -0.346 N 
HETATM    3  O   UNL     1       4.222  27.088  53.096  1.00  0.00    -0.268 OA
HETATM    4  H   UNL     1       7.251  27.130  52.174  1.00  0.00     0.163 HD
ENDROOT
BRANCH   1   5
HETATM    5  C   UNL     1       5.031  27.810  51.012  1.00  0.00     0.034 A 
HETATM    6  C   UNL     1       5.519  29.085  50.693  1.00  0.00     0.047 A 
HETATM    7  C   UNL     1       5.434  29.598  49.386  1.00  0.00     0.042 A 
HETATM    8  C   UNL     1       4.941  28.765  48.365  1.00  0.00    -0.035 A 
HETATM    9  C   UNL     1       4.987  29.091  46.897  1.00  0.00     0.050 C 
HETATM   10  C   UNL     1       4.427  27.494  48.706  1.00  0.00     0.010 A 
HETATM   11  C   UNL     1       4.467  27.018  50.016  1.00  0.00     0.017 A 
BRANCH   7  12
HETATM   12  N   UNL     1       5.914  30.915  49.234  1.00  0.00    -0.321 N 
HETATM   13  C   UNL     1       5.202  32.095  49.110  1.00  0.00     0.279 C 
HETATM   14  O   UNL     1       3.984  32.203  49.170  1.00  0.00    -0.265 OA
HETATM   15  H   UNL     1       6.903  31.063  49.415  1.00  0.00     0.169 HD
BRANCH  13  16
HETATM   16  C   UNL     1       6.065  33.255  48.962  1.00  0.00     0.142 A 
HETATM   17  O   UNL     1       5.945  34.303  49.840  1.00  0.00    -0.317 OA
HETATM   18  C   UNL     1       6.858  35.239  49.470  1.00  0.00     0.143 A 
HETATM   19  C   UNL     1       7.566  34.818  48.370  1.00  0.00     0.027 A 
HETATM   20  C   UNL     1       7.055  33.540  48.040  1.00  0.00     0.045 A 
ENDBRANCH  13  16
ENDBRANCH   7  12
ENDBRANCH   1   5
BRANCH   2  21
HETATM   21  CA  UNL     1       6.775  26.650  54.199  1.00  0.00     0.141 C 
BRANCH  21  22
HETATM   22  C   UNL     1       7.130  25.172  54.166  1.00  0.00    -0.033 A 
HETATM   23  C   UNL     1       6.956  24.349  55.290  1.00  0.00     0.010 A 
HETATM   24  C   UNL     1       7.243  22.982  55.221  1.00  0.00     0.017 A 
HETATM   25  C   UNL     1       7.712  22.410  54.030  1.00  0.00     0.047 A 
HETATM   26  C   UNL     1       7.889  23.232  52.910  1.00  0.00     0.017 A 
HETATM   27  C   UNL     1       7.604  24.598  52.978  1.00  0.00     0.010 A 
BRANCH  25  28
HETATM   28  C   UNL     1       7.984  20.927  53.931  1.00  0.00     0.417 C 
HETATM   29  F   UNL     1       7.329  20.325  52.899  1.00  0.00    -0.166 F 
HETATM   30  F   UNL     1       9.304  20.654  53.747  1.00  0.00    -0.166 F 
HETATM   31  F   UNL     1       7.613  20.248  55.053  1.00  0.00    -0.166 F 
ENDBRANCH  25  28
ENDBRANCH  21  22
BRANCH  21  32
HETATM   32  C   UNL     1       7.892  27.470  54.896  1.00  0.00     0.194 C 
BRANCH  32  33
HETATM   33  O   UNL     1       8.333  28.575  54.106  1.00  0.00    -0.399 OA
HETATM   34  H   UNL     1       8.742  29.228  54.716  1.00  0.00     0.209 HD
ENDBRANCH  32  33
ENDBRANCH  21  32
ENDBRANCH   2  21
TORSDOF 8
ENDMDL
MODEL 10
REMARK VINA RESULT:      -8.5      3.522      4.855
REMARK  8 active torsions:
REMARK  status: ('A' for Active; 'I' for Inactive)
REMARK    1  A    between atoms: C_3  and  N_4 
REMARK       I    between atoms: N_4  and  C_5 
REMARK    2  A    between atoms: C_5  and  C_6 
REMARK    3  A    between atoms: C_13  and  C_14 
REMARK       I    between atoms: C_14  and  N_15 
REMARK    4  A    between atoms: N_15  and  CA_16 
REMARK    5  A    between atoms: CA_16  and  C_17 
REMARK    6  A    between atoms: CA_16  and  C_27 
REMARK    7  A    between atoms: C_20  and  C_21 
REMARK    8  A    between atoms: C_27  and  O_28 
ROOT
HETATM    1  C   UNL     1       5.206  27.547  55.902  1.00  0.00     0.252 C 
HETATM    2  N   UNL     1       6.092  26.616  55.406  1.00  0.00    -0.346 N 
HETATM    3  O   UNL     1       4.976  27.674  57.099  1.00  0.00    -0.268 OA
HETATM    4  H   UNL     1       6.084  26.409  54.415  1.00  0.00     0.163 HD
ENDROOT
BRANCH   1   5
HETATM    5  C   UNL     1       4.528  28.427  54.919  1.00  0.00     0.034 A 
HETATM    6  C   UNL     1       4.334  29.774  55.251  1.00  0.00     0.047 A 
HETATM    7  C   UNL     1       3.743  30.676  54.348  1.00  0.00     0.042 A 
HETATM    8  C   UNL     1       3.441  30.228  53.049  1.00  0.00    -0.035 A 
HETATM    9  C   UNL     1       3.010  31.119  51.915  1.00  0.00     0.050 C 
HETATM   10  C   UNL     1       3.616  28.862  52.736  1.00  0.00     0.010 A 
HETATM   11  C   UNL     1       4.151  27.965  53.660  1.00  0.00     0.017 A 
BRANCH   7  12
HETATM   12  N   UNL     1       3.562  31.982  54.847  1.00  0.00    -0.321 N 
HETATM   13  C   UNL     1       2.431  32.556  55.400  1.00  0.00     0.279 C 
HETATM   14  O   UNL     1       1.368  31.983  55.608  1.00  0.00    -0.265 OA
HETATM   15  H   UNL     1       4.402  32.534  54.996  1.00  0.00     0.169 HD
BRANCH  13  16
HETATM   16  C   UNL     1       2.641  33.940  55.792  1.00  0.00     0.142 A 
HETATM   17  O   UNL     1       2.038  34.421  56.927  1.00  0.00    -0.317 OA
HETATM   18  C   UNL     1       2.398  35.725  57.048  1.00  0.00     0.143 A 
HETATM   19  C   UNL     1       3.222  36.098  56.014  1.00  0.00     0.027 A 
HETATM   20  C   UNL     1       3.379  34.949  55.202  1.00  0.00     0.045 A 
ENDBRANCH  13  16
ENDBRANCH   7  12
ENDBRANCH   1   5
BRANCH   2  21
HETATM   21  CA  UNL     1       6.813  25.699  56.291  1.00  0.00     0.141 C 
BRANCH  21  22
HETATM   22  C   UNL     1       7.133  24.404  55.564  1.00  0.00    -0.033 A 
HETATM   23  C   UNL     1       7.076  24.312  54.164  1.00  0.00     0.010 A 
HETATM   24  C   UNL     1       7.422  23.124  53.514  1.00  0.00     0.017 A 
HETATM   25  C   UNL     1       7.829  22.000  54.248  1.00  0.00     0.047 A 
HETATM   26  C   UNL     1       7.881  22.090  55.646  1.00  0.00     0.017 A 
HETATM   27  C   UNL     1       7.534  23.277  56.296  1.00  0.00     0.010 A 
BRANCH  25  28
HETATM   28  C   UNL     1       8.247  20.725  53.556  1.00  0.00     0.417 C 
HETATM   29  F   UNL     1       7.288  20.216  52.733  1.00  0.00    -0.166 F 
HETATM   30  F   UNL     1       9.352  20.895  52.781  1.00  0.00    -0.166 F 
HETATM   31  F   UNL     1       8.553  19.726  54.432  1.00  0.00    -0.166 F 
ENDBRANCH  25  28
ENDBRANCH  21  22
BRANCH  21  32
HETATM   32  C   UNL     1       8.101  26.339  56.872  1.00  0.00     0.194 C 
BRANCH  32  33
HETATM   33  O   UNL     1       7.860  27.045  58.090  1.00  0.00    -0.399 OA
HETATM   34  H   UNL     1       8.250  26.514  58.820  1.00  0.00     0.209 HD
ENDBRANCH  32  33
ENDBRANCH  21  32
ENDBRANCH   2  21
TORSDOF 8
ENDMDL
