MODEL 1
REMARK VINA RESULT:     -10.6      0.000      0.000
REMARK  4 active torsions:
REMARK  status: ('A' for Active; 'I' for Inactive)
REMARK    1  A    between atoms: C_2  and  C_3 
REMARK    2  A    between atoms: C_6  and  N_7 
REMARK       I    between atoms: N_7  and  C_8 
REMARK       I    between atoms: C_8  and  N_9 
REMARK    3  A    between atoms: N_9  and  C_10 
REMARK       I    between atoms: N_19  and  C_20 
REMARK       I    between atoms: C_20  and  N_21 
REMARK    4  A    between atoms: N_21  and  C_22 
ROOT
HETATM    1  C   UNL     1       8.470  30.087  57.460  1.00  0.00     0.105 A 
HETATM    2  C   UNL     1       7.052  29.654  57.158  1.00  0.00     0.274 A 
HETATM    3  O   UNL     1       6.154  29.991  57.935  1.00  0.00    -0.265 OA
HETATM    4  N   UNL     1       6.844  28.910  55.989  1.00  0.00    -0.315 N 
HETATM    5  C   UNL     1       7.883  28.600  55.115  1.00  0.00     0.020 A 
HETATM    6  C   UNL     1       7.578  27.885  53.811  1.00  0.00     0.054 C 
HETATM    7  C   UNL     1       6.175  28.223  53.321  1.00  0.00     0.020 C 
HETATM    8  C   UNL     1       5.207  27.761  54.398  1.00  0.00     0.023 C 
HETATM    9  C   UNL     1       5.314  26.243  54.597  1.00  0.00     0.134 C 
HETATM   10  N   UNL     1       6.673  25.726  54.759  1.00  0.00    -0.333 N 
HETATM   11  C   UNL     1       6.769  24.434  55.277  1.00  0.00     0.318 C 
HETATM   12  N   UNL     1       8.014  23.862  55.211  1.00  0.00    -0.338 N 
HETATM   13  O   UNL     1       5.809  23.847  55.771  1.00  0.00    -0.247 OA
HETATM   14  C   UNL     1       7.730  26.364  53.968  1.00  0.00     0.138 C 
HETATM   15  C   UNL     1       5.457  28.545  55.694  1.00  0.00     0.138 C 
HETATM   16  C   UNL     1       9.139  28.968  55.415  1.00  0.00     0.028 A 
HETATM   17  C   UNL     1       9.437  29.702  56.617  1.00  0.00     0.037 A 
HETATM   18  H   UNL     1       8.629  24.197  54.493  1.00  0.00     0.164 HD
ENDROOT
BRANCH   1  19
HETATM   19  N   UNL     1       8.623  30.889  58.577  1.00  0.00    -0.304 N 
HETATM   20  C   UNL     1       9.641  31.744  58.870  1.00  0.00     0.325 C 
HETATM   21  N   UNL     1       9.500  32.564  59.950  1.00  0.00    -0.309 N 
HETATM   22  O   UNL     1      10.647  31.904  58.179  1.00  0.00    -0.247 OA
HETATM   23  H   UNL     1      10.178  33.316  59.895  1.00  0.00     0.170 HD
HETATM   24  H   UNL     1       7.784  30.942  59.143  1.00  0.00     0.171 HD
BRANCH  21  25
HETATM   25  C   UNL     1       8.636  32.593  61.054  1.00  0.00     0.036 A 
HETATM   26  C   UNL     1       8.973  32.168  62.341  1.00  0.00     0.030 A 
HETATM   27  C   UNL     1       8.041  32.265  63.388  1.00  0.00     0.017 A 
HETATM   28  C   UNL     1       6.769  32.802  63.159  1.00  0.00     0.009 A 
HETATM   29  C   UNL     1       6.440  33.246  61.875  1.00  0.00     0.017 A 
HETATM   30  C   UNL     1       7.372  33.156  60.839  1.00  0.00     0.030 A 
BRANCH  28  31
HETATM   31  C   UNL     1       5.743  32.935  64.235  1.00  0.00     0.155 C 
HETATM   32  C   UNL     1       6.115  33.634  65.516  1.00  0.00     0.096 C 
HETATM   33  O   UNL     1       4.616  32.475  64.064  1.00  0.00    -0.293 OA
ENDBRANCH  28  31
ENDBRANCH  21  25
ENDBRANCH   1  19
BRANCH  12  34
HETATM   34  C   UNL     1       8.249  22.488  55.648  1.00  0.00     0.086 C 
HETATM   35  C   UNL     1       7.254  21.522  54.988  1.00  0.00     0.025 C 
HETATM   36  C   UNL     1       7.533  21.319  53.497  1.00  0.00     0.002 C 
HETATM   37  C   UNL     1       8.976  20.893  53.245  1.00  0.00     0.000 C 
HETATM   38  C   UNL     1       9.972  21.864  53.870  1.00  0.00     0.002 C 
HETATM   39  C   UNL     1       9.698  22.074  55.359  1.00  0.00     0.025 C 
ENDBRANCH  12  34
TORSDOF 4
ENDMDL
MODEL 2
REMARK VINA RESULT:     -10.6      6.489     11.189
REMARK  4 active torsions:
REMARK  status: ('A' for Active; 'I' for Inactive)
REMARK    1  A    between atoms: C_2  and  C_3 
REMARK    2  A    between atoms: C_6  and  N_7 
REMARK       I    between atoms: N_7  and  C_8 
REMARK       I    between atoms: C_8  and  N_9 
REMARK    3  A    between atoms: N_9  and  C_10 
REMARK       I    between atoms: N_19  and  C_20 
REMARK       I    between atoms: C_20  and  N_21 
REMARK    4  A    between atoms: N_21  and  C_22 
ROOT
HETATM    1  C   UNL     1       5.002  27.580  51.944  1.00  0.00     0.105 A 
HETATM    2  C   UNL     1       4.694  27.111  50.540  1.00  0.00     0.274 A 
HETATM    3  O   UNL     1       5.301  26.131  50.098  1.00  0.00    -0.265 OA
HETATM    4  N   UNL     1       3.708  27.812  49.832  1.00  0.00    -0.315 N 
HETATM    5  C   UNL     1       3.011  28.878  50.395  1.00  0.00     0.020 A 
HETATM    6  C   UNL     1       1.880  29.529  49.618  1.00  0.00     0.054 C 
HETATM    7  C   UNL     1       1.217  28.526  48.682  1.00  0.00     0.020 C 
HETATM    8  C   UNL     1       2.290  28.043  47.719  1.00  0.00     0.023 C 
HETATM    9  C   UNL     1       2.832  29.216  46.890  1.00  0.00     0.134 C 
HETATM   10  N   UNL     1       3.213  30.402  47.657  1.00  0.00    -0.333 N 
HETATM   11  C   UNL     1       4.014  31.324  46.984  1.00  0.00     0.318 C 
HETATM   12  N   UNL     1       4.176  32.534  47.610  1.00  0.00    -0.338 N 
HETATM   13  O   UNL     1       4.548  31.073  45.906  1.00  0.00    -0.247 OA
HETATM   14  C   UNL     1       2.386  30.741  48.820  1.00  0.00     0.138 C 
HETATM   15  C   UNL     1       3.393  27.308  48.494  1.00  0.00     0.138 C 
HETATM   16  C   UNL     1       3.320  29.298  51.632  1.00  0.00     0.028 A 
HETATM   17  C   UNL     1       4.347  28.653  52.407  1.00  0.00     0.037 A 
HETATM   18  H   UNL     1       3.453  32.817  48.244  1.00  0.00     0.164 HD
ENDROOT
BRANCH   1  19
HETATM   19  N   UNL     1       5.920  26.813  52.640  1.00  0.00    -0.304 N 
HETATM   20  C   UNL     1       6.908  27.232  53.479  1.00  0.00     0.325 C 
HETATM   21  N   UNL     1       7.587  26.289  54.192  1.00  0.00    -0.309 N 
HETATM   22  O   UNL     1       7.177  28.409  53.717  1.00  0.00    -0.247 OA
HETATM   23  H   UNL     1       8.083  26.735  54.955  1.00  0.00     0.170 HD
HETATM   24  H   UNL     1       5.698  25.825  52.630  1.00  0.00     0.171 HD
BRANCH  21  25
HETATM   25  C   UNL     1       7.714  24.896  54.106  1.00  0.00     0.036 A 
HETATM   26  C   UNL     1       7.945  24.187  52.926  1.00  0.00     0.030 A 
HETATM   27  C   UNL     1       8.084  22.790  52.951  1.00  0.00     0.017 A 
HETATM   28  C   UNL     1       8.008  22.090  54.161  1.00  0.00     0.009 A 
HETATM   29  C   UNL     1       7.797  22.802  55.345  1.00  0.00     0.017 A 
HETATM   30  C   UNL     1       7.667  24.192  55.316  1.00  0.00     0.030 A 
BRANCH  28  31
HETATM   31  C   UNL     1       8.155  20.607  54.247  1.00  0.00     0.155 C 
HETATM   32  C   UNL     1       8.252  19.961  55.604  1.00  0.00     0.096 C 
HETATM   33  O   UNL     1       8.194  19.936  53.218  1.00  0.00    -0.293 OA
ENDBRANCH  28  31
ENDBRANCH  21  25
ENDBRANCH   1  19
BRANCH  12  34
HETATM   34  C   UNL     1       4.928  33.622  46.989  1.00  0.00     0.086 C 
HETATM   35  C   UNL     1       4.482  34.984  47.542  1.00  0.00     0.025 C 
HETATM   36  C   UNL     1       4.937  35.211  48.984  1.00  0.00     0.002 C 
HETATM   37  C   UNL     1       6.441  35.009  49.142  1.00  0.00     0.000 C 
HETATM   38  C   UNL     1       6.888  33.647  48.625  1.00  0.00     0.002 C 
HETATM   39  C   UNL     1       6.435  33.412  47.184  1.00  0.00     0.025 C 
ENDBRANCH  12  34
TORSDOF 4
ENDMDL
MODEL 3
REMARK VINA RESULT:     -10.6      4.260     12.466
REMARK  4 active torsions:
REMARK  status: ('A' for Active; 'I' for Inactive)
REMARK    1  A    between atoms: C_2  and  C_3 
REMARK    2  A    between atoms: C_6  and  N_7 
REMARK       I    between atoms: N_7  and  C_8 
REMARK       I    between atoms: C_8  and  N_9 
REMARK    3  A    between atoms: N_9  and  C_10 
REMARK       I    between atoms: N_19  and  C_20 
REMARK       I    between atoms: C_20  and  N_21 
REMARK    4  A    between atoms: N_21  and  C_22 
ROOT
HETATM    1  C   UNL     1       6.719  32.223  60.923  1.00  0.00     0.105 A 
HETATM    2  C   UNL     1       5.262  32.623  60.989  1.00  0.00     0.274 A 
HETATM    3  O   UNL     1       4.494  32.201  60.120  1.00  0.00    -0.265 OA
HETATM    4  N   UNL     1       4.869  33.437  62.060  1.00  0.00    -0.315 N 
HETATM    5  C   UNL     1       5.763  33.843  63.047  1.00  0.00     0.020 A 
HETATM    6  C   UNL     1       5.256  34.633  64.240  1.00  0.00     0.054 C 
HETATM    7  C   UNL     1       3.807  34.279  64.550  1.00  0.00     0.020 C 
HETATM    8  C   UNL     1       2.991  34.630  63.316  1.00  0.00     0.023 C 
HETATM    9  C   UNL     1       3.085  36.135  63.025  1.00  0.00     0.134 C 
HETATM   10  N   UNL     1       4.438  36.689  63.019  1.00  0.00    -0.333 N 
HETATM   11  C   UNL     1       4.574  37.945  62.427  1.00  0.00     0.318 C 
HETATM   12  N   UNL     1       5.781  38.566  62.627  1.00  0.00    -0.338 N 
HETATM   13  O   UNL     1       3.679  38.462  61.762  1.00  0.00    -0.247 OA
HETATM   14  C   UNL     1       5.388  36.145  63.995  1.00  0.00     0.138 C 
HETATM   15  C   UNL     1       3.445  33.769  62.129  1.00  0.00     0.138 C 
HETATM   16  C   UNL     1       7.059  33.502  62.955  1.00  0.00     0.028 A 
HETATM   17  C   UNL     1       7.545  32.700  61.864  1.00  0.00     0.037 A 
HETATM   18  H   UNL     1       6.296  38.303  63.447  1.00  0.00     0.164 HD
ENDROOT
BRANCH   1  19
HETATM   19  N   UNL     1       7.052  31.353  59.899  1.00  0.00    -0.304 N 
HETATM   20  C   UNL     1       8.116  31.414  59.051  1.00  0.00     0.325 C 
HETATM   21  N   UNL     1       8.342  30.352  58.227  1.00  0.00    -0.309 N 
HETATM   22  O   UNL     1       8.951  32.318  59.034  1.00  0.00    -0.247 OA
HETATM   23  H   UNL     1       9.286  30.401  57.862  1.00  0.00     0.170 HD
HETATM   24  H   UNL     1       6.512  30.496  59.918  1.00  0.00     0.171 HD
BRANCH  21  25
HETATM   25  C   UNL     1       7.581  29.246  57.820  1.00  0.00     0.036 A 
HETATM   26  C   UNL     1       6.218  29.283  57.520  1.00  0.00     0.030 A 
HETATM   27  C   UNL     1       5.553  28.122  57.093  1.00  0.00     0.017 A 
HETATM   28  C   UNL     1       6.250  26.916  56.948  1.00  0.00     0.009 A 
HETATM   29  C   UNL     1       7.619  26.885  57.228  1.00  0.00     0.017 A 
HETATM   30  C   UNL     1       8.278  28.044  57.645  1.00  0.00     0.030 A 
BRANCH  28  31
HETATM   31  C   UNL     1       5.596  25.655  56.492  1.00  0.00     0.155 C 
HETATM   32  C   UNL     1       5.932  25.110  55.128  1.00  0.00     0.096 C 
HETATM   33  O   UNL     1       4.797  25.080  57.228  1.00  0.00    -0.293 OA
ENDBRANCH  28  31
ENDBRANCH  21  25
ENDBRANCH   1  19
BRANCH  12  34
HETATM   34  C   UNL     1       6.040  39.914  62.129  1.00  0.00     0.086 C 
HETATM   35  C   UNL     1       5.291  40.963  62.964  1.00  0.00     0.025 C 
HETATM   36  C   UNL     1       5.889  41.137  64.362  1.00  0.00     0.002 C 
HETATM   37  C   UNL     1       7.385  41.432  64.305  1.00  0.00     0.000 C 
HETATM   38  C   UNL     1       8.140  40.378  63.503  1.00  0.00     0.002 C 
HETATM   39  C   UNL     1       7.547  40.197  62.107  1.00  0.00     0.025 C 
ENDBRANCH  12  34
TORSDOF 4
ENDMDL
MODEL 4
REMARK VINA RESULT:      -9.6      9.254     13.271
REMARK  4 active torsions:
REMARK  status: ('A' for Active; 'I' for Inactive)
REMARK    1  A    between atoms: C_2  and  C_3 
REMARK    2  A    between atoms: C_6  and  N_7 
REMARK       I    between atoms: N_7  and  C_8 
REMARK       I    between atoms: C_8  and  N_9 
REMARK    3  A    between atoms: N_9  and  C_10 
REMARK       I    between atoms: N_19  and  C_20 
REMARK       I    between atoms: C_20  and  N_21 
REMARK    4  A    between atoms: N_21  and  C_22 
ROOT
HETATM    1  C   UNL     1       1.971  27.764  48.138  1.00  0.00     0.105 A 
HETATM    2  C   UNL     1       2.003  29.252  47.870  1.00  0.00     0.274 A 
HETATM    3  O   UNL     1       2.891  29.928  48.398  1.00  0.00    -0.265 OA
HETATM    4  N   UNL     1       1.026  29.770  47.010  1.00  0.00    -0.315 N 
HETATM    5  C   UNL     1       0.077  28.957  46.394  1.00  0.00     0.020 A 
HETATM    6  C   UNL     1      -0.887  29.560  45.389  1.00  0.00     0.054 C 
HETATM    7  C   UNL     1      -0.260  30.756  44.684  1.00  0.00     0.020 C 
HETATM    8  C   UNL     1       0.067  31.781  45.758  1.00  0.00     0.023 C 
HETATM    9  C   UNL     1      -1.214  32.237  46.471  1.00  0.00     0.134 C 
HETATM   10  N   UNL     1      -2.095  31.161  46.925  1.00  0.00    -0.333 N 
HETATM   11  C   UNL     1      -3.064  31.529  47.858  1.00  0.00     0.318 C 
HETATM   12  N   UNL     1      -4.032  30.589  48.107  1.00  0.00    -0.338 N 
HETATM   13  O   UNL     1      -3.052  32.617  48.430  1.00  0.00    -0.247 OA
HETATM   14  C   UNL     1      -2.202  29.977  46.067  1.00  0.00     0.138 C 
HETATM   15  C   UNL     1       1.109  31.204  46.728  1.00  0.00     0.138 C 
HETATM   16  C   UNL     1       0.046  27.643  46.668  1.00  0.00     0.028 A 
HETATM   17  C   UNL     1       0.993  27.044  47.571  1.00  0.00     0.037 A 
HETATM   18  H   UNL     1      -4.216  29.924  47.379  1.00  0.00     0.164 HD
ENDROOT
BRANCH   1  19
HETATM   19  N   UNL     1       3.000  27.278  48.926  1.00  0.00    -0.304 N 
HETATM   20  C   UNL     1       4.167  26.700  48.529  1.00  0.00     0.325 C 
HETATM   21  N   UNL     1       5.115  26.451  49.476  1.00  0.00    -0.309 N 
HETATM   22  O   UNL     1       4.475  26.468  47.359  1.00  0.00    -0.247 OA
HETATM   23  H   UNL     1       6.008  26.285  49.026  1.00  0.00     0.170 HD
HETATM   24  H   UNL     1       2.914  27.547  49.898  1.00  0.00     0.171 HD
BRANCH  21  25
HETATM   25  C   UNL     1       5.113  26.403  50.877  1.00  0.00     0.036 A 
HETATM   26  C   UNL     1       4.895  25.251  51.636  1.00  0.00     0.030 A 
HETATM   27  C   UNL     1       4.941  25.304  53.038  1.00  0.00     0.017 A 
HETATM   28  C   UNL     1       5.222  26.508  53.694  1.00  0.00     0.009 A 
HETATM   29  C   UNL     1       5.462  27.656  52.934  1.00  0.00     0.017 A 
HETATM   30  C   UNL     1       5.422  27.597  51.540  1.00  0.00     0.030 A 
BRANCH  28  31
HETATM   31  C   UNL     1       5.291  26.621  55.181  1.00  0.00     0.155 C 
HETATM   32  C   UNL     1       5.714  25.420  55.986  1.00  0.00     0.096 C 
HETATM   33  O   UNL     1       5.003  27.684  55.727  1.00  0.00    -0.293 OA
ENDBRANCH  28  31
ENDBRANCH  21  25
ENDBRANCH   1  19
BRANCH  12  34
HETATM   34  C   UNL     1      -5.151  30.862  49.005  1.00  0.00     0.086 C 
HETATM   35  C   UNL     1      -6.453  31.066  48.217  1.00  0.00     0.025 C 
HETATM   36  C   UNL     1      -6.983  29.766  47.610  1.00  0.00     0.002 C 
HETATM   37  C   UNL     1      -7.133  28.670  48.661  1.00  0.00     0.000 C 
HETATM   38  C   UNL     1      -5.836  28.439  49.428  1.00  0.00     0.002 C 
HETATM   39  C   UNL     1      -5.299  29.735  50.035  1.00  0.00     0.025 C 
ENDBRANCH  12  34
TORSDOF 4
ENDMDL
MODEL 5
REMARK VINA RESULT:      -9.3      6.881     11.921
REMARK  4 active torsions:
REMARK  status: ('A' for Active; 'I' for Inactive)
REMARK    1  A    between atoms: C_2  and  C_3 
REMARK    2  A    between atoms: C_6  and  N_7 
REMARK       I    between atoms: N_7  and  C_8 
REMARK       I    between atoms: C_8  and  N_9 
REMARK    3  A    between atoms: N_9  and  C_10 
REMARK       I    between atoms: N_19  and  C_20 
REMARK       I    between atoms: C_20  and  N_21 
REMARK    4  A    between atoms: N_21  and  C_22 
ROOT
HETATM    1  C   UNL     1       3.011  29.361  51.139  1.00  0.00     0.105 A 
HETATM    2  C   UNL     1       3.422  30.510  52.031  1.00  0.00     0.274 A 
HETATM    3  O   UNL     1       4.397  30.362  52.773  1.00  0.00    -0.265 OA
HETATM    4  N   UNL     1       2.675  31.693  51.938  1.00  0.00    -0.315 N 
HETATM    5  C   UNL     1       1.616  31.830  51.044  1.00  0.00     0.020 A 
HETATM    6  C   UNL     1       0.915  33.169  50.912  1.00  0.00     0.054 C 
HETATM    7  C   UNL     1       1.868  34.316  51.226  1.00  0.00     0.020 C 
HETATM    8  C   UNL     1       2.338  34.121  52.659  1.00  0.00     0.023 C 
HETATM    9  C   UNL     1       1.147  34.184  53.625  1.00  0.00     0.134 C 
HETATM   10  N   UNL     1      -0.002  33.356  53.259  1.00  0.00    -0.333 N 
HETATM   11  C   UNL     1      -0.932  33.132  54.275  1.00  0.00     0.318 C 
HETATM   12  N   UNL     1      -2.115  32.560  53.877  1.00  0.00    -0.338 N 
HETATM   13  O   UNL     1      -0.709  33.416  55.449  1.00  0.00    -0.247 OA
HETATM   14  C   UNL     1      -0.316  33.240  51.831  1.00  0.00     0.138 C 
HETATM   15  C   UNL     1       3.123  32.807  52.776  1.00  0.00     0.138 C 
HETATM   16  C   UNL     1       1.248  30.787  50.282  1.00  0.00     0.028 A 
HETATM   17  C   UNL     1       1.943  29.529  50.348  1.00  0.00     0.037 A 
HETATM   18  H   UNL     1      -2.389  32.703  52.923  1.00  0.00     0.164 HD
ENDROOT
BRANCH   1  19
HETATM   19  N   UNL     1       3.822  28.241  51.199  1.00  0.00    -0.304 N 
HETATM   20  C   UNL     1       4.366  27.535  50.169  1.00  0.00     0.325 C 
HETATM   21  N   UNL     1       5.276  26.565  50.466  1.00  0.00    -0.309 N 
HETATM   22  O   UNL     1       4.171  27.768  48.976  1.00  0.00    -0.247 OA
HETATM   23  H   UNL     1       5.792  26.317  49.629  1.00  0.00     0.170 HD
HETATM   24  H   UNL     1       4.163  28.050  52.133  1.00  0.00     0.171 HD
BRANCH  21  25
HETATM   25  C   UNL     1       5.644  25.889  51.638  1.00  0.00     0.036 A 
HETATM   26  C   UNL     1       4.764  25.525  52.659  1.00  0.00     0.030 A 
HETATM   27  C   UNL     1       5.230  24.825  53.783  1.00  0.00     0.017 A 
HETATM   28  C   UNL     1       6.579  24.468  53.889  1.00  0.00     0.009 A 
HETATM   29  C   UNL     1       7.456  24.815  52.857  1.00  0.00     0.017 A 
HETATM   30  C   UNL     1       6.987  25.505  51.737  1.00  0.00     0.030 A 
BRANCH  28  31
HETATM   31  C   UNL     1       7.128  23.718  55.057  1.00  0.00     0.155 C 
HETATM   32  C   UNL     1       7.457  24.471  56.319  1.00  0.00     0.096 C 
HETATM   33  O   UNL     1       7.302  22.504  54.976  1.00  0.00    -0.293 OA
ENDBRANCH  28  31
ENDBRANCH  21  25
ENDBRANCH   1  19
BRANCH  12  34
HETATM   34  C   UNL     1      -3.209  32.334  54.818  1.00  0.00     0.086 C 
HETATM   35  C   UNL     1      -3.992  33.630  55.074  1.00  0.00     0.025 C 
HETATM   36  C   UNL     1      -4.834  34.056  53.870  1.00  0.00     0.002 C 
HETATM   37  C   UNL     1      -5.752  32.933  53.397  1.00  0.00     0.000 C 
HETATM   38  C   UNL     1      -4.979  31.651  53.110  1.00  0.00     0.002 C 
HETATM   39  C   UNL     1      -4.132  31.221  54.308  1.00  0.00     0.025 C 
ENDBRANCH  12  34
TORSDOF 4
ENDMDL
MODEL 6
REMARK VINA RESULT:      -9.3      3.821     12.052
REMARK  4 active torsions:
REMARK  status: ('A' for Active; 'I' for Inactive)
REMARK    1  A    between atoms: C_2  and  C_3 
REMARK    2  A    between atoms: C_6  and  N_7 
REMARK       I    between atoms: N_7  and  C_8 
REMARK       I    between atoms: C_8  and  N_9 
REMARK    3  A    between atoms: N_9  and  C_10 
REMARK       I    between atoms: N_19  and  C_20 
REMARK       I    between atoms: C_20  and  N_21 
REMARK    4  A    between atoms: N_21  and  C_22 
ROOT
HETATM    1  C   UNL     1       5.744  31.755  58.623  1.00  0.00     0.105 A 
HETATM    2  C   UNL     1       4.499  31.906  59.468  1.00  0.00     0.274 A 
HETATM    3  O   UNL     1       3.423  31.512  59.010  1.00  0.00    -0.265 OA
HETATM    4  N   UNL     1       4.654  32.468  60.743  1.00  0.00    -0.315 N 
HETATM    5  C   UNL     1       5.900  32.847  61.237  1.00  0.00     0.020 A 
HETATM    6  C   UNL     1       6.019  33.349  62.665  1.00  0.00     0.054 C 
HETATM    7  C   UNL     1       4.948  32.726  63.551  1.00  0.00     0.020 C 
HETATM    8  C   UNL     1       3.602  33.137  62.973  1.00  0.00     0.023 C 
HETATM    9  C   UNL     1       3.451  34.664  63.005  1.00  0.00     0.134 C 
HETATM   10  N   UNL     1       4.583  35.418  62.466  1.00  0.00    -0.333 N 
HETATM   11  C   UNL     1       4.330  36.757  62.170  1.00  0.00     0.318 C 
HETATM   12  N   UNL     1       5.436  37.520  61.891  1.00  0.00    -0.338 N 
HETATM   13  O   UNL     1       3.194  37.226  62.149  1.00  0.00    -0.247 OA
HETATM   14  C   UNL     1       5.925  34.882  62.719  1.00  0.00     0.138 C 
HETATM   15  C   UNL     1       3.443  32.557  61.560  1.00  0.00     0.138 C 
HETATM   16  C   UNL     1       6.989  32.733  60.459  1.00  0.00     0.028 A 
HETATM   17  C   UNL     1       6.903  32.200  59.125  1.00  0.00     0.037 A 
HETATM   18  H   UNL     1       6.308  37.215  62.282  1.00  0.00     0.164 HD
ENDROOT
BRANCH   1  19
HETATM   19  N   UNL     1       5.564  31.122  57.405  1.00  0.00    -0.304 N 
HETATM   20  C   UNL     1       5.143  31.659  56.227  1.00  0.00     0.325 C 
HETATM   21  N   UNL     1       5.203  30.882  55.109  1.00  0.00    -0.309 N 
HETATM   22  O   UNL     1       4.796  32.830  56.072  1.00  0.00    -0.247 OA
HETATM   23  H   UNL     1       5.128  31.468  54.285  1.00  0.00     0.170 HD
HETATM   24  H   UNL     1       5.956  30.188  57.384  1.00  0.00     0.171 HD
BRANCH  21  25
HETATM   25  C   UNL     1       5.364  29.509  54.875  1.00  0.00     0.036 A 
HETATM   26  C   UNL     1       6.403  28.729  55.386  1.00  0.00     0.030 A 
HETATM   27  C   UNL     1       6.459  27.353  55.114  1.00  0.00     0.017 A 
HETATM   28  C   UNL     1       5.467  26.741  54.339  1.00  0.00     0.009 A 
HETATM   29  C   UNL     1       4.415  27.518  53.845  1.00  0.00     0.017 A 
HETATM   30  C   UNL     1       4.359  28.885  54.125  1.00  0.00     0.030 A 
BRANCH  28  31
HETATM   31  C   UNL     1       5.473  25.282  54.025  1.00  0.00     0.155 C 
HETATM   32  C   UNL     1       6.523  24.404  54.652  1.00  0.00     0.096 C 
HETATM   33  O   UNL     1       4.627  24.818  53.263  1.00  0.00    -0.293 OA
ENDBRANCH  28  31
ENDBRANCH  21  25
ENDBRANCH   1  19
BRANCH  12  34
HETATM   34  C   UNL     1       5.331  38.954  61.634  1.00  0.00     0.086 C 
HETATM   35  C   UNL     1       5.338  39.751  62.947  1.00  0.00     0.025 C 
HETATM   36  C   UNL     1       6.710  39.758  63.623  1.00  0.00     0.002 C 
HETATM   37  C   UNL     1       7.806  40.235  62.675  1.00  0.00     0.000 C 
HETATM   38  C   UNL     1       7.827  39.429  61.381  1.00  0.00     0.002 C 
HETATM   39  C   UNL     1       6.458  39.415  60.701  1.00  0.00     0.025 C 
ENDBRANCH  12  34
TORSDOF 4
ENDMDL
MODEL 7
REMARK VINA RESULT:      -9.1      4.813     12.007
REMARK  4 active torsions:
REMARK  status: ('A' for Active; 'I' for Inactive)
REMARK    1  A    between atoms: C_2  and  C_3 
REMARK    2  A    between atoms: C_6  and  N_7 
REMARK       I    between atoms: N_7  and  C_8 
REMARK       I    between atoms: C_8  and  N_9 
REMARK    3  A    between atoms: N_9  and  C_10 
REMARK       I    between atoms: N_19  and  C_20 
REMARK       I    between atoms: C_20  and  N_21 
REMARK    4  A    between atoms: N_21  and  C_22 
ROOT
HETATM    1  C   UNL     1       5.869  32.346  58.897  1.00  0.00     0.105 A 
HETATM    2  C   UNL     1       5.135  33.199  57.886  1.00  0.00     0.274 A 
HETATM    3  O   UNL     1       5.325  32.985  56.685  1.00  0.00    -0.265 OA
HETATM    4  N   UNL     1       4.256  34.171  58.384  1.00  0.00    -0.315 N 
HETATM    5  C   UNL     1       4.034  34.336  59.749  1.00  0.00     0.020 A 
HETATM    6  C   UNL     1       2.991  35.332  60.223  1.00  0.00     0.054 C 
HETATM    7  C   UNL     1       1.880  35.487  59.193  1.00  0.00     0.020 C 
HETATM    8  C   UNL     1       2.528  35.993  57.915  1.00  0.00     0.023 C 
HETATM    9  C   UNL     1       3.182  37.362  58.153  1.00  0.00     0.134 C 
HETATM   10  N   UNL     1       4.045  37.448  59.331  1.00  0.00    -0.333 N 
HETATM   11  C   UNL     1       4.903  38.547  59.371  1.00  0.00     0.318 C 
HETATM   12  N   UNL     1       5.537  38.758  60.569  1.00  0.00    -0.338 N 
HETATM   13  O   UNL     1       5.089  39.275  58.399  1.00  0.00    -0.247 OA
HETATM   14  C   UNL     1       3.629  36.698  60.521  1.00  0.00     0.138 C 
HETATM   15  C   UNL     1       3.521  34.949  57.385  1.00  0.00     0.138 C 
HETATM   16  C   UNL     1       4.718  33.590  60.631  1.00  0.00     0.028 A 
HETATM   17  C   UNL     1       5.665  32.597  60.197  1.00  0.00     0.037 A 
HETATM   18  H   UNL     1       5.085  38.403  61.391  1.00  0.00     0.164 HD
ENDROOT
BRANCH   1  19
HETATM   19  N   UNL     1       6.663  31.344  58.366  1.00  0.00    -0.304 N 
HETATM   20  C   UNL     1       8.014  31.200  58.456  1.00  0.00     0.325 C 
HETATM   21  N   UNL     1       8.567  30.041  58.001  1.00  0.00    -0.309 N 
HETATM   22  O   UNL     1       8.772  32.001  59.003  1.00  0.00    -0.247 OA
HETATM   23  H   UNL     1       9.508  29.948  58.367  1.00  0.00     0.170 HD
HETATM   24  H   UNL     1       6.127  30.558  58.019  1.00  0.00     0.171 HD
BRANCH  21  25
HETATM   25  C   UNL     1       8.116  28.989  57.191  1.00  0.00     0.036 A 
HETATM   26  C   UNL     1       8.117  29.001  55.794  1.00  0.00     0.030 A 
HETATM   27  C   UNL     1       7.668  27.883  55.074  1.00  0.00     0.017 A 
HETATM   28  C   UNL     1       7.228  26.735  55.744  1.00  0.00     0.009 A 
HETATM   29  C   UNL     1       7.247  26.716  57.142  1.00  0.00     0.017 A 
HETATM   30  C   UNL     1       7.702  27.827  57.854  1.00  0.00     0.030 A 
BRANCH  28  31
HETATM   31  C   UNL     1       6.747  25.516  55.029  1.00  0.00     0.155 C 
HETATM   32  C   UNL     1       7.738  24.439  54.674  1.00  0.00     0.096 C 
HETATM   33  O   UNL     1       5.557  25.407  54.741  1.00  0.00    -0.293 OA
ENDBRANCH  28  31
ENDBRANCH  21  25
ENDBRANCH   1  19
BRANCH  12  34
HETATM   34  C   UNL     1       6.408  39.911  60.781  1.00  0.00     0.086 C 
HETATM   35  C   UNL     1       5.593  41.153  61.169  1.00  0.00     0.025 C 
HETATM   36  C   UNL     1       5.018  41.061  62.583  1.00  0.00     0.002 C 
HETATM   37  C   UNL     1       6.100  40.759  63.615  1.00  0.00     0.000 C 
HETATM   38  C   UNL     1       6.895  39.509  63.255  1.00  0.00     0.002 C 
HETATM   39  C   UNL     1       7.470  39.593  61.841  1.00  0.00     0.025 C 
ENDBRANCH  12  34
TORSDOF 4
ENDMDL
MODEL 8
REMARK VINA RESULT:      -9.1      6.256      8.447
REMARK  4 active torsions:
REMARK  status: ('A' for Active; 'I' for Inactive)
REMARK    1  A    between atoms: C_2  and  C_3 
REMARK    2  A    between atoms: C_6  and  N_7 
REMARK       I    between atoms: N_7  and  C_8 
REMARK       I    between atoms: C_8  and  N_9 
REMARK    3  A    between atoms: N_9  and  C_10 
REMARK       I    between atoms: N_19  and  C_20 
REMARK       I    between atoms: C_20  and  N_21 
REMARK    4  A    between atoms: N_21  and  C_22 
ROOT
HETATM    1  C   UNL     1       5.811  34.498  52.869  1.00  0.00     0.105 A 
HETATM    2  C   UNL     1       5.443  34.270  54.318  1.00  0.00     0.274 A 
HETATM    3  O   UNL     1       5.927  35.016  55.174  1.00  0.00    -0.265 OA
HETATM    4  N   UNL     1       4.546  33.230  54.596  1.00  0.00    -0.315 N 
HETATM    5  C   UNL     1       3.983  32.450  53.588  1.00  0.00     0.020 A 
HETATM    6  C   UNL     1       2.936  31.410  53.941  1.00  0.00     0.054 C 
HETATM    7  C   UNL     1       2.154  31.825  55.181  1.00  0.00     0.020 C 
HETATM    8  C   UNL     1       3.157  31.949  56.317  1.00  0.00     0.023 C 
HETATM    9  C   UNL     1       3.833  30.597  56.583  1.00  0.00     0.134 C 
HETATM   10  N   UNL     1       4.356  29.914  55.400  1.00  0.00    -0.333 N 
HETATM   11  C   UNL     1       5.259  28.880  55.651  1.00  0.00     0.318 C 
HETATM   12  N   UNL     1       5.568  28.091  54.572  1.00  0.00    -0.338 N 
HETATM   13  O   UNL     1       5.755  28.690  56.759  1.00  0.00    -0.247 OA
HETATM   14  C   UNL     1       3.581  30.031  54.161  1.00  0.00     0.138 C 
HETATM   15  C   UNL     1       4.167  33.061  56.000  1.00  0.00     0.138 C 
HETATM   16  C   UNL     1       4.346  32.649  52.310  1.00  0.00     0.028 A 
HETATM   17  C   UNL     1       5.290  33.673  51.951  1.00  0.00     0.037 A 
HETATM   18  H   UNL     1       4.886  28.039  53.838  1.00  0.00     0.164 HD
ENDROOT
BRANCH   1  19
HETATM   19  N   UNL     1       6.633  35.585  52.627  1.00  0.00    -0.304 N 
HETATM   20  C   UNL     1       6.281  36.889  52.452  1.00  0.00     0.325 C 
HETATM   21  N   UNL     1       7.274  37.820  52.397  1.00  0.00    -0.309 N 
HETATM   22  O   UNL     1       5.124  37.308  52.433  1.00  0.00    -0.247 OA
HETATM   23  H   UNL     1       6.881  38.743  52.540  1.00  0.00     0.170 HD
HETATM   24  H   UNL     1       7.615  35.376  52.765  1.00  0.00     0.171 HD
BRANCH  21  25
HETATM   25  C   UNL     1       8.664  37.764  52.215  1.00  0.00     0.036 A 
HETATM   26  C   UNL     1       9.304  37.691  50.976  1.00  0.00     0.030 A 
HETATM   27  C   UNL     1      10.706  37.667  50.901  1.00  0.00     0.017 A 
HETATM   28  C   UNL     1      11.481  37.731  52.065  1.00  0.00     0.009 A 
HETATM   29  C   UNL     1      10.840  37.826  53.304  1.00  0.00     0.017 A 
HETATM   30  C   UNL     1       9.445  37.857  53.373  1.00  0.00     0.030 A 
BRANCH  28  31
HETATM   31  C   UNL     1      12.973  37.716  52.044  1.00  0.00     0.155 C 
HETATM   32  C   UNL     1      13.726  38.681  52.922  1.00  0.00     0.096 C 
HETATM   33  O   UNL     1      13.566  36.923  51.315  1.00  0.00    -0.293 OA
ENDBRANCH  28  31
ENDBRANCH  21  25
ENDBRANCH   1  19
BRANCH  12  34
HETATM   34  C   UNL     1       6.442  26.927  54.700  1.00  0.00     0.086 C 
HETATM   35  C   UNL     1       5.624  25.646  54.922  1.00  0.00     0.025 C 
HETATM   36  C   UNL     1       4.870  25.206  53.666  1.00  0.00     0.002 C 
HETATM   37  C   UNL     1       5.801  25.073  52.465  1.00  0.00     0.000 C 
HETATM   38  C   UNL     1       6.594  26.351  52.218  1.00  0.00     0.002 C 
HETATM   39  C   UNL     1       7.348  26.800  53.469  1.00  0.00     0.025 C 
ENDBRANCH  12  34
TORSDOF 4
ENDMDL
MODEL 9
REMARK VINA RESULT:      -8.9      5.923     10.741
REMARK  4 active torsions:
REMARK  status: ('A' for Active; 'I' for Inactive)
REMARK    1  A    between atoms: C_2  and  C_3 
REMARK    2  A    between atoms: C_6  and  N_7 
REMARK       I    between atoms: N_7  and  C_8 
REMARK       I    between atoms: C_8  and  N_9 
REMARK    3  A    between atoms: N_9  and  C_10 
REMARK       I    between atoms: N_19  and  C_20 
REMARK       I    between atoms: C_20  and  N_21 
REMARK    4  A    between atoms: N_21  and  C_22 
ROOT
HETATM    1  C   UNL     1       4.207  29.079  53.152  1.00  0.00     0.105 A 
HETATM    2  C   UNL     1       3.662  28.536  51.850  1.00  0.00     0.274 A 
HETATM    3  O   UNL     1       3.775  27.328  51.621  1.00  0.00    -0.265 OA
HETATM    4  N   UNL     1       3.035  29.445  50.988  1.00  0.00    -0.315 N 
HETATM    5  C   UNL     1       2.883  30.790  51.316  1.00  0.00     0.020 A 
HETATM    6  C   UNL     1       2.100  31.704  50.391  1.00  0.00     0.054 C 
HETATM    7  C   UNL     1       1.030  30.925  49.635  1.00  0.00     0.020 C 
HETATM    8  C   UNL     1       1.750  29.863  48.819  1.00  0.00     0.023 C 
HETATM    9  C   UNL     1       2.699  30.520  47.806  1.00  0.00     0.134 C 
HETATM   10  N   UNL     1       3.583  31.549  48.351  1.00  0.00    -0.333 N 
HETATM   11  C   UNL     1       4.666  31.902  47.547  1.00  0.00     0.318 C 
HETATM   12  N   UNL     1       5.356  33.021  47.941  1.00  0.00    -0.338 N 
HETATM   13  O   UNL     1       4.991  31.253  46.555  1.00  0.00    -0.247 OA
HETATM   14  C   UNL     1       3.034  32.416  49.399  1.00  0.00     0.138 C 
HETATM   15  C   UNL     1       2.473  28.886  49.758  1.00  0.00     0.138 C 
HETATM   16  C   UNL     1       3.400  31.259  52.464  1.00  0.00     0.028 A 
HETATM   17  C   UNL     1       4.091  30.394  53.382  1.00  0.00     0.037 A 
HETATM   18  H   UNL     1       4.852  33.696  48.485  1.00  0.00     0.164 HD
ENDROOT
BRANCH   1  19
HETATM   19  N   UNL     1       4.745  28.137  54.012  1.00  0.00    -0.304 N 
HETATM   20  C   UNL     1       4.563  28.019  55.357  1.00  0.00     0.325 C 
HETATM   21  N   UNL     1       5.055  26.910  55.976  1.00  0.00    -0.309 N 
HETATM   22  O   UNL     1       3.903  28.795  56.048  1.00  0.00    -0.247 OA
HETATM   23  H   UNL     1       4.626  26.813  56.889  1.00  0.00     0.170 HD
HETATM   24  H   UNL     1       5.187  27.367  53.527  1.00  0.00     0.171 HD
BRANCH  21  25
HETATM   25  C   UNL     1       5.970  25.910  55.617  1.00  0.00     0.036 A 
HETATM   26  C   UNL     1       7.139  25.609  56.320  1.00  0.00     0.030 A 
HETATM   27  C   UNL     1       7.977  24.567  55.892  1.00  0.00     0.017 A 
HETATM   28  C   UNL     1       7.646  23.806  54.764  1.00  0.00     0.009 A 
HETATM   29  C   UNL     1       6.466  24.094  54.073  1.00  0.00     0.017 A 
HETATM   30  C   UNL     1       5.631  25.126  54.507  1.00  0.00     0.030 A 
BRANCH  28  31
HETATM   31  C   UNL     1       8.496  22.684  54.269  1.00  0.00     0.155 C 
HETATM   32  C   UNL     1       8.041  21.899  53.067  1.00  0.00     0.096 C 
HETATM   33  O   UNL     1       9.550  22.416  54.843  1.00  0.00    -0.293 OA
ENDBRANCH  28  31
ENDBRANCH  21  25
ENDBRANCH   1  19
BRANCH  12  34
HETATM   34  C   UNL     1       6.468  33.551  47.156  1.00  0.00     0.086 C 
HETATM   35  C   UNL     1       6.008  34.718  46.269  1.00  0.00     0.025 C 
HETATM   36  C   UNL     1       5.698  35.981  47.074  1.00  0.00     0.002 C 
HETATM   37  C   UNL     1       6.868  36.384  47.966  1.00  0.00     0.000 C 
HETATM   38  C   UNL     1       7.311  35.241  48.873  1.00  0.00     0.002 C 
HETATM   39  C   UNL     1       7.619  33.974  48.075  1.00  0.00     0.025 C 
ENDBRANCH  12  34
TORSDOF 4
ENDMDL
MODEL 10
REMARK VINA RESULT:      -8.8      2.271      3.340
REMARK  4 active torsions:
REMARK  status: ('A' for Active; 'I' for Inactive)
REMARK    1  A    between atoms: C_2  and  C_3 
REMARK    2  A    between atoms: C_6  and  N_7 
REMARK       I    between atoms: N_7  and  C_8 
REMARK       I    between atoms: C_8  and  N_9 
REMARK    3  A    between atoms: N_9  and  C_10 
REMARK       I    between atoms: N_19  and  C_20 
REMARK       I    between atoms: C_20  and  N_21 
REMARK    4  A    between atoms: N_21  and  C_22 
ROOT
HETATM    1  C   UNL     1       7.284  31.480  60.000  1.00  0.00     0.105 A 
HETATM    2  C   UNL     1       5.884  31.240  59.481  1.00  0.00     0.274 A 
HETATM    3  O   UNL     1       4.928  31.504  60.217  1.00  0.00    -0.265 OA
HETATM    4  N   UNL     1       5.759  30.752  58.173  1.00  0.00    -0.315 N 
HETATM    5  C   UNL     1       6.868  30.522  57.362  1.00  0.00     0.020 A 
HETATM    6  C   UNL     1       6.665  30.097  55.919  1.00  0.00     0.054 C 
HETATM    7  C   UNL     1       5.353  30.645  55.370  1.00  0.00     0.020 C 
HETATM    8  C   UNL     1       4.239  30.076  56.234  1.00  0.00     0.023 C 
HETATM    9  C   UNL     1       4.219  28.544  56.138  1.00  0.00     0.134 C 
HETATM   10  N   UNL     1       5.512  27.886  56.328  1.00  0.00    -0.333 N 
HETATM   11  C   UNL     1       5.459  26.517  56.588  1.00  0.00     0.318 C 
HETATM   12  N   UNL     1       6.662  25.858  56.532  1.00  0.00    -0.338 N 
HETATM   13  O   UNL     1       4.411  25.935  56.859  1.00  0.00    -0.247 OA
HETATM   14  C   UNL     1       6.693  28.565  55.787  1.00  0.00     0.138 C 
HETATM   15  C   UNL     1       4.393  30.575  57.677  1.00  0.00     0.138 C 
HETATM   16  C   UNL     1       8.103  30.713  57.851  1.00  0.00     0.028 A 
HETATM   17  C   UNL     1       8.312  31.177  59.197  1.00  0.00     0.037 A 
HETATM   18  H   UNL     1       7.377  26.267  55.959  1.00  0.00     0.164 HD
ENDROOT
BRANCH   1  19
HETATM   19  N   UNL     1       7.363  32.039  61.264  1.00  0.00    -0.304 N 
HETATM   20  C   UNL     1       8.330  31.864  62.206  1.00  0.00     0.325 C 
HETATM   21  N   UNL     1       8.294  32.651  63.318  1.00  0.00    -0.309 N 
HETATM   22  O   UNL     1       9.297  31.110  62.090  1.00  0.00    -0.247 OA
HETATM   23  H   UNL     1       9.191  32.615  63.788  1.00  0.00     0.170 HD
HETATM   24  H   UNL     1       6.695  32.787  61.407  1.00  0.00     0.171 HD
BRANCH  21  25
HETATM   25  C   UNL     1       7.324  33.478  63.904  1.00  0.00     0.036 A 
HETATM   26  C   UNL     1       6.425  34.277  63.196  1.00  0.00     0.030 A 
HETATM   27  C   UNL     1       5.472  35.050  63.879  1.00  0.00     0.017 A 
HETATM   28  C   UNL     1       5.402  35.020  65.277  1.00  0.00     0.009 A 
HETATM   29  C   UNL     1       6.289  34.203  65.984  1.00  0.00     0.017 A 
HETATM   30  C   UNL     1       7.229  33.430  65.300  1.00  0.00     0.030 A 
BRANCH  28  31
HETATM   31  C   UNL     1       4.406  35.815  66.053  1.00  0.00     0.155 C 
HETATM   32  C   UNL     1       3.033  35.241  66.286  1.00  0.00     0.096 C 
HETATM   33  O   UNL     1       4.715  36.922  66.490  1.00  0.00    -0.293 OA
ENDBRANCH  28  31
ENDBRANCH  21  25
ENDBRANCH   1  19
BRANCH  12  34
HETATM   34  C   UNL     1       6.751  24.412  56.711  1.00  0.00     0.086 C 
HETATM   35  C   UNL     1       6.614  23.681  55.366  1.00  0.00     0.025 C 
HETATM   36  C   UNL     1       7.843  23.860  54.473  1.00  0.00     0.002 C 
HETATM   37  C   UNL     1       9.129  23.465  55.194  1.00  0.00     0.000 C 
HETATM   38  C   UNL     1       9.289  24.209  56.515  1.00  0.00     0.002 C 
HETATM   39  C   UNL     1       8.063  24.038  57.412  1.00  0.00     0.025 C 
ENDBRANCH  12  34
TORSDOF 4
ENDMDL
