MODEL 1
REMARK VINA RESULT:     -10.5      0.000      0.000
REMARK  6 active torsions:
REMARK  status: ('A' for Active; 'I' for Inactive)
REMARK    1  A    between atoms: C_2  and  O_3 
REMARK    2  A    between atoms: O_3  and  C_4 
REMARK    3  A    between atoms: C_5  and  O_6 
REMARK    4  A    between atoms: C_9  and  C_10 
REMARK       I    between atoms: C_10  and  N_11 
REMARK    5  A    between atoms: N_11  and  N_12 
REMARK       I    between atoms: N_12  and  C_13 
REMARK    6  A    between atoms: C_13  and  C_14 
ROOT
HETATM    1  N   UNL     1       7.208  28.373  56.985  1.00  0.00    -0.263 N 
HETATM    2  C   UNL     1       7.538  27.061  57.256  1.00  0.00     0.270 C 
HETATM    3  O   UNL     1       7.764  26.672  58.401  1.00  0.00    -0.266 OA
HETATM    4  H   UNL     1       6.943  28.741  56.075  1.00  0.00     0.190 HD
ENDROOT
BRANCH   1   5
HETATM    5  N   UNL     1       7.101  29.266  58.055  1.00  0.00    -0.263 N 
HETATM    6  C   UNL     1       8.200  30.042  58.357  1.00  0.00     0.270 C 
HETATM    7  O   UNL     1       9.234  30.015  57.692  1.00  0.00    -0.266 OA
HETATM    8  H   UNL     1       6.314  29.111  58.684  1.00  0.00     0.190 HD
BRANCH   6   9
HETATM    9  C   UNL     1       8.089  30.917  59.554  1.00  0.00     0.036 A 
HETATM   10  C   UNL     1       6.907  31.646  59.735  1.00  0.00     0.056 A 
HETATM   11  C   UNL     1       6.742  32.465  60.857  1.00  0.00     0.102 A 
HETATM   12  C   UNL     1       7.769  32.539  61.822  1.00  0.00     0.102 A 
HETATM   13  C   UNL     1       8.946  31.805  61.638  1.00  0.00     0.040 A 
HETATM   14  C   UNL     1       9.107  30.995  60.510  1.00  0.00     0.020 A 
BRANCH  11  15
HETATM   15  O   UNL     1       5.622  33.217  61.110  1.00  0.00    -0.353 OA
HETATM   16  C   UNL     1       4.415  32.526  61.400  1.00  0.00     0.210 C 
ENDBRANCH  11  15
BRANCH  12  17
HETATM   17  O   UNL     1       7.526  33.354  62.898  1.00  0.00    -0.349 OA
BRANCH  17  18
HETATM   18  C   UNL     1       7.584  32.777  64.199  1.00  0.00     0.171 C 
HETATM   19  C   UNL     1       7.168  33.839  65.201  1.00  0.00     0.034 C 
ENDBRANCH  17  18
ENDBRANCH  12  17
ENDBRANCH   6   9
ENDBRANCH   1   5
BRANCH   2  20
HETATM   20  C   UNL     1       7.586  26.117  56.099  1.00  0.00     0.034 A 
HETATM   21  C   UNL     1       7.799  24.738  56.260  1.00  0.00     0.031 A 
HETATM   22  C   UNL     1       7.861  23.905  55.124  1.00  0.00    -0.000 A 
HETATM   23  C   UNL     1       7.690  24.475  53.859  1.00  0.00     0.043 A 
HETATM   24  C   UNL     1       8.078  22.514  54.928  1.00  0.00    -0.023 A 
HETATM   25  N   UNL     1       7.797  23.460  52.932  1.00  0.00    -0.358 N 
HETATM   26  C   UNL     1       7.456  25.841  53.674  1.00  0.00     0.031 A 
HETATM   27  H   UNL     1       7.711  23.583  51.932  1.00  0.00     0.166 HD
HETATM   28  C   UNL     1       8.042  22.277  53.570  1.00  0.00     0.017 A 
HETATM   29  C   UNL     1       8.213  20.960  52.901  1.00  0.00     0.057 C 
HETATM   30  C   UNL     1       8.837  19.957  53.890  1.00  0.00     0.006 C 
HETATM   31  C   UNL     1       8.191  20.039  55.286  1.00  0.00     0.005 C 
HETATM   32  C   UNL     1       8.347  21.433  55.922  1.00  0.00     0.041 C 
HETATM   33  C   UNL     1       7.409  26.650  54.816  1.00  0.00     0.019 A 
ENDBRANCH   2  20
TORSDOF 6
ENDMDL
MODEL 2
REMARK VINA RESULT:      -9.8      2.260     11.156
REMARK  6 active torsions:
REMARK  status: ('A' for Active; 'I' for Inactive)
REMARK    1  A    between atoms: C_2  and  O_3 
REMARK    2  A    between atoms: O_3  and  C_4 
REMARK    3  A    between atoms: C_5  and  O_6 
REMARK    4  A    between atoms: C_9  and  C_10 
REMARK       I    between atoms: C_10  and  N_11 
REMARK    5  A    between atoms: N_11  and  N_12 
REMARK       I    between atoms: N_12  and  C_13 
REMARK    6  A    between atoms: C_13  and  C_14 
ROOT
HETATM    1  N   UNL     1       7.202  28.535  58.276  1.00  0.00    -0.263 N 
HETATM    2  C   UNL     1       7.953  29.683  58.422  1.00  0.00     0.270 C 
HETATM    3  O   UNL     1       9.099  29.768  57.982  1.00  0.00    -0.266 OA
HETATM    4  H   UNL     1       6.229  28.425  58.554  1.00  0.00     0.190 HD
ENDROOT
BRANCH   1   5
HETATM    5  N   UNL     1       7.760  27.459  57.581  1.00  0.00    -0.263 N 
HETATM    6  C   UNL     1       6.899  26.529  57.037  1.00  0.00     0.270 C 
HETATM    7  O   UNL     1       5.676  26.644  57.095  1.00  0.00    -0.266 OA
HETATM    8  H   UNL     1       8.755  27.304  57.729  1.00  0.00     0.190 HD
BRANCH   6   9
HETATM    9  C   UNL     1       7.520  25.348  56.381  1.00  0.00     0.036 A 
HETATM   10  C   UNL     1       7.487  25.274  54.983  1.00  0.00     0.056 A 
HETATM   11  C   UNL     1       8.079  24.197  54.315  1.00  0.00     0.102 A 
HETATM   12  C   UNL     1       8.730  23.190  55.058  1.00  0.00     0.102 A 
HETATM   13  C   UNL     1       8.764  23.272  56.454  1.00  0.00     0.040 A 
HETATM   14  C   UNL     1       8.163  24.347  57.115  1.00  0.00     0.020 A 
BRANCH  11  15
HETATM   15  O   UNL     1       8.089  24.041  52.951  1.00  0.00    -0.353 OA
HETATM   16  C   UNL     1       7.701  25.153  52.157  1.00  0.00     0.210 C 
ENDBRANCH  11  15
BRANCH  12  17
HETATM   17  O   UNL     1       9.296  22.174  54.329  1.00  0.00    -0.349 OA
BRANCH  17  18
HETATM   18  C   UNL     1       8.651  20.903  54.344  1.00  0.00     0.171 C 
HETATM   19  C   UNL     1       8.364  20.507  52.907  1.00  0.00     0.034 C 
ENDBRANCH  17  18
ENDBRANCH  12  17
ENDBRANCH   6   9
ENDBRANCH   1   5
BRANCH   2  20
HETATM   20  C   UNL     1       7.308  30.836  59.117  1.00  0.00     0.034 A 
HETATM   21  C   UNL     1       7.618  31.187  60.442  1.00  0.00     0.031 A 
HETATM   22  C   UNL     1       6.952  32.272  61.049  1.00  0.00    -0.000 A 
HETATM   23  C   UNL     1       6.008  32.986  60.307  1.00  0.00     0.043 A 
HETATM   24  C   UNL     1       7.003  32.866  62.340  1.00  0.00    -0.023 A 
HETATM   25  N   UNL     1       5.508  33.980  61.122  1.00  0.00    -0.358 N 
HETATM   26  C   UNL     1       5.698  32.670  58.980  1.00  0.00     0.031 A 
HETATM   27  H   UNL     1       4.809  34.654  60.843  1.00  0.00     0.166 HD
HETATM   28  C   UNL     1       6.096  33.905  62.352  1.00  0.00     0.017 A 
HETATM   29  C   UNL     1       5.816  34.815  63.495  1.00  0.00     0.057 C 
HETATM   30  C   UNL     1       6.370  34.198  64.793  1.00  0.00     0.006 C 
HETATM   31  C   UNL     1       7.781  33.610  64.600  1.00  0.00     0.005 C 
HETATM   32  C   UNL     1       7.809  32.493  63.540  1.00  0.00     0.041 C 
HETATM   33  C   UNL     1       6.363  31.583  58.402  1.00  0.00     0.019 A 
ENDBRANCH   2  20
TORSDOF 6
ENDMDL
MODEL 3
REMARK VINA RESULT:      -9.7      1.331      2.052
REMARK  6 active torsions:
REMARK  status: ('A' for Active; 'I' for Inactive)
REMARK    1  A    between atoms: C_2  and  O_3 
REMARK    2  A    between atoms: O_3  and  C_4 
REMARK    3  A    between atoms: C_5  and  O_6 
REMARK    4  A    between atoms: C_9  and  C_10 
REMARK       I    between atoms: C_10  and  N_11 
REMARK    5  A    between atoms: N_11  and  N_12 
REMARK       I    between atoms: N_12  and  C_13 
REMARK    6  A    between atoms: C_13  and  C_14 
ROOT
HETATM    1  N   UNL     1       6.398  28.469  56.943  1.00  0.00    -0.263 N 
HETATM    2  C   UNL     1       7.317  27.448  57.079  1.00  0.00     0.270 C 
HETATM    3  O   UNL     1       8.002  27.323  58.093  1.00  0.00    -0.266 OA
HETATM    4  H   UNL     1       5.755  28.586  56.164  1.00  0.00     0.190 HD
ENDROOT
BRANCH   1   5
HETATM    5  N   UNL     1       6.232  29.359  58.007  1.00  0.00    -0.263 N 
HETATM    6  C   UNL     1       5.924  30.669  57.707  1.00  0.00     0.270 C 
HETATM    7  O   UNL     1       5.739  31.060  56.556  1.00  0.00    -0.266 OA
HETATM    8  H   UNL     1       6.585  29.043  58.909  1.00  0.00     0.190 HD
BRANCH   6   9
HETATM    9  C   UNL     1       5.841  31.614  58.852  1.00  0.00     0.036 A 
HETATM   10  C   UNL     1       6.939  31.703  59.718  1.00  0.00     0.056 A 
HETATM   11  C   UNL     1       6.922  32.594  60.796  1.00  0.00     0.102 A 
HETATM   12  C   UNL     1       5.797  33.422  60.998  1.00  0.00     0.102 A 
HETATM   13  C   UNL     1       4.706  33.332  60.126  1.00  0.00     0.040 A 
HETATM   14  C   UNL     1       4.727  32.433  59.056  1.00  0.00     0.020 A 
BRANCH  11  15
HETATM   15  O   UNL     1       7.948  32.742  61.696  1.00  0.00    -0.353 OA
HETATM   16  C   UNL     1       8.322  31.606  62.463  1.00  0.00     0.210 C 
ENDBRANCH  11  15
BRANCH  12  17
HETATM   17  O   UNL     1       5.863  34.276  62.070  1.00  0.00    -0.349 OA
BRANCH  17  18
HETATM   18  C   UNL     1       4.833  34.197  63.051  1.00  0.00     0.171 C 
HETATM   19  C   UNL     1       5.199  33.091  64.024  1.00  0.00     0.034 C 
ENDBRANCH  17  18
ENDBRANCH  12  17
ENDBRANCH   6   9
ENDBRANCH   1   5
BRANCH   2  20
HETATM   20  C   UNL     1       7.429  26.477  55.949  1.00  0.00     0.034 A 
HETATM   21  C   UNL     1       7.570  25.094  56.155  1.00  0.00     0.031 A 
HETATM   22  C   UNL     1       7.699  24.235  55.045  1.00  0.00    -0.000 A 
HETATM   23  C   UNL     1       7.665  24.782  53.760  1.00  0.00     0.043 A 
HETATM   24  C   UNL     1       7.876  22.832  54.896  1.00  0.00    -0.023 A 
HETATM   25  N   UNL     1       7.813  23.742  52.865  1.00  0.00    -0.358 N 
HETATM   26  C   UNL     1       7.504  26.151  53.528  1.00  0.00     0.031 A 
HETATM   27  H   UNL     1       7.821  23.846  51.860  1.00  0.00     0.166 HD
HETATM   28  C   UNL     1       7.952  22.566  53.545  1.00  0.00     0.017 A 
HETATM   29  C   UNL     1       8.128  21.228  52.920  1.00  0.00     0.057 C 
HETATM   30  C   UNL     1       8.621  20.224  53.979  1.00  0.00     0.006 C 
HETATM   31  C   UNL     1       7.857  20.363  55.310  1.00  0.00     0.005 C 
HETATM   32  C   UNL     1       8.012  21.764  55.931  1.00  0.00     0.041 C 
HETATM   33  C   UNL     1       7.388  26.987  54.645  1.00  0.00     0.019 A 
ENDBRANCH   2  20
TORSDOF 6
ENDMDL
MODEL 4
REMARK VINA RESULT:      -9.6      0.997      1.008
REMARK  6 active torsions:
REMARK  status: ('A' for Active; 'I' for Inactive)
REMARK    1  A    between atoms: C_2  and  O_3 
REMARK    2  A    between atoms: O_3  and  C_4 
REMARK    3  A    between atoms: C_5  and  O_6 
REMARK    4  A    between atoms: C_9  and  C_10 
REMARK       I    between atoms: C_10  and  N_11 
REMARK    5  A    between atoms: N_11  and  N_12 
REMARK       I    between atoms: N_12  and  C_13 
REMARK    6  A    between atoms: C_13  and  C_14 
ROOT
HETATM    1  N   UNL     1       7.724  28.510  56.520  1.00  0.00    -0.263 N 
HETATM    2  C   UNL     1       6.792  27.505  56.359  1.00  0.00     0.270 C 
HETATM    3  O   UNL     1       5.742  27.485  57.001  1.00  0.00    -0.266 OA
HETATM    4  H   UNL     1       8.574  28.622  55.973  1.00  0.00     0.190 HD
ENDROOT
BRANCH   1   5
HETATM    5  N   UNL     1       7.441  29.541  57.419  1.00  0.00    -0.263 N 
HETATM    6  C   UNL     1       8.423  29.899  58.318  1.00  0.00     0.270 C 
HETATM    7  O   UNL     1       9.541  29.386  58.317  1.00  0.00    -0.266 OA
HETATM    8  H   UNL     1       6.457  29.791  57.511  1.00  0.00     0.190 HD
BRANCH   6   9
HETATM    9  C   UNL     1       8.064  30.937  59.320  1.00  0.00     0.036 A 
HETATM   10  C   UNL     1       6.778  31.488  59.271  1.00  0.00     0.056 A 
HETATM   11  C   UNL     1       6.382  32.450  60.207  1.00  0.00     0.102 A 
HETATM   12  C   UNL     1       7.281  32.850  61.217  1.00  0.00     0.102 A 
HETATM   13  C   UNL     1       8.563  32.292  61.264  1.00  0.00     0.040 A 
HETATM   14  C   UNL     1       8.955  31.337  60.321  1.00  0.00     0.020 A 
BRANCH  11  15
HETATM   15  O   UNL     1       5.145  33.046  60.229  1.00  0.00    -0.353 OA
HETATM   16  C   UNL     1       4.714  33.715  59.052  1.00  0.00     0.210 C 
ENDBRANCH  11  15
BRANCH  12  17
HETATM   17  O   UNL     1       6.812  33.788  62.103  1.00  0.00    -0.349 OA
BRANCH  17  18
HETATM   18  C   UNL     1       6.661  33.402  63.466  1.00  0.00     0.171 C 
HETATM   19  C   UNL     1       6.393  34.656  64.280  1.00  0.00     0.034 C 
ENDBRANCH  17  18
ENDBRANCH  12  17
ENDBRANCH   6   9
ENDBRANCH   1   5
BRANCH   2  20
HETATM   20  C   UNL     1       7.095  26.449  55.348  1.00  0.00     0.034 A 
HETATM   21  C   UNL     1       7.246  25.095  55.694  1.00  0.00     0.031 A 
HETATM   22  C   UNL     1       7.560  24.152  54.693  1.00  0.00    -0.000 A 
HETATM   23  C   UNL     1       7.696  24.587  53.373  1.00  0.00     0.043 A 
HETATM   24  C   UNL     1       7.798  22.750  54.697  1.00  0.00    -0.023 A 
HETATM   25  N   UNL     1       8.003  23.484  52.604  1.00  0.00    -0.358 N 
HETATM   26  C   UNL     1       7.530  25.925  53.000  1.00  0.00     0.031 A 
HETATM   27  H   UNL     1       8.153  23.504  51.605  1.00  0.00     0.166 HD
HETATM   28  C   UNL     1       8.076  22.376  53.399  1.00  0.00     0.017 A 
HETATM   29  C   UNL     1       8.381  20.999  52.927  1.00  0.00     0.057 C 
HETATM   30  C   UNL     1       8.745  20.109  54.131  1.00  0.00     0.006 C 
HETATM   31  C   UNL     1       7.792  20.326  55.322  1.00  0.00     0.005 C 
HETATM   32  C   UNL     1       7.815  21.780  55.831  1.00  0.00     0.041 C 
HETATM   33  C   UNL     1       7.229  26.845  54.011  1.00  0.00     0.019 A 
ENDBRANCH   2  20
TORSDOF 6
ENDMDL
MODEL 5
REMARK VINA RESULT:      -9.2      1.698      2.445
REMARK  6 active torsions:
REMARK  status: ('A' for Active; 'I' for Inactive)
REMARK    1  A    between atoms: C_2  and  O_3 
REMARK    2  A    between atoms: O_3  and  C_4 
REMARK    3  A    between atoms: C_5  and  O_6 
REMARK    4  A    between atoms: C_9  and  C_10 
REMARK       I    between atoms: C_10  and  N_11 
REMARK    5  A    between atoms: N_11  and  N_12 
REMARK       I    between atoms: N_12  and  C_13 
REMARK    6  A    between atoms: C_13  and  C_14 
ROOT
HETATM    1  N   UNL     1       6.732  29.944  57.626  1.00  0.00    -0.263 N 
HETATM    2  C   UNL     1       7.566  28.846  57.587  1.00  0.00     0.270 C 
HETATM    3  O   UNL     1       8.307  28.561  58.528  1.00  0.00    -0.266 OA
HETATM    4  H   UNL     1       6.048  30.194  56.915  1.00  0.00     0.190 HD
ENDROOT
BRANCH   1   5
HETATM    5  N   UNL     1       6.716  30.727  58.784  1.00  0.00    -0.263 N 
HETATM    6  C   UNL     1       5.731  31.685  58.899  1.00  0.00     0.270 C 
HETATM    7  O   UNL     1       4.847  31.832  58.057  1.00  0.00    -0.266 OA
HETATM    8  H   UNL     1       7.566  30.705  59.345  1.00  0.00     0.190 HD
BRANCH   6   9
HETATM    9  C   UNL     1       5.791  32.563  60.098  1.00  0.00     0.036 A 
HETATM   10  C   UNL     1       4.697  33.396  60.363  1.00  0.00     0.056 A 
HETATM   11  C   UNL     1       4.693  34.223  61.492  1.00  0.00     0.102 A 
HETATM   12  C   UNL     1       5.792  34.200  62.376  1.00  0.00     0.102 A 
HETATM   13  C   UNL     1       6.880  33.362  62.107  1.00  0.00     0.040 A 
HETATM   14  C   UNL     1       6.880  32.544  60.974  1.00  0.00     0.020 A 
BRANCH  11  15
HETATM   15  O   UNL     1       3.668  35.074  61.826  1.00  0.00    -0.353 OA
HETATM   16  C   UNL     1       2.370  34.517  61.971  1.00  0.00     0.210 C 
ENDBRANCH  11  15
BRANCH  12  17
HETATM   17  O   UNL     1       5.706  35.031  63.465  1.00  0.00    -0.349 OA
BRANCH  17  18
HETATM   18  C   UNL     1       5.924  34.466  64.754  1.00  0.00     0.171 C 
HETATM   19  C   UNL     1       4.609  33.879  65.236  1.00  0.00     0.034 C 
ENDBRANCH  17  18
ENDBRANCH  12  17
ENDBRANCH   6   9
ENDBRANCH   1   5
BRANCH   2  20
HETATM   20  C   UNL     1       7.517  27.995  56.361  1.00  0.00     0.034 A 
HETATM   21  C   UNL     1       7.638  26.596  56.409  1.00  0.00     0.031 A 
HETATM   22  C   UNL     1       7.610  25.853  55.211  1.00  0.00    -0.000 A 
HETATM   23  C   UNL     1       7.444  26.530  54.000  1.00  0.00     0.043 A 
HETATM   24  C   UNL     1       7.725  24.470  54.902  1.00  0.00    -0.023 A 
HETATM   25  N   UNL     1       7.455  25.586  52.995  1.00  0.00    -0.358 N 
HETATM   26  C   UNL     1       7.300  27.919  53.927  1.00  0.00     0.031 A 
HETATM   27  H   UNL     1       7.349  25.793  52.011  1.00  0.00     0.166 HD
HETATM   28  C   UNL     1       7.634  24.344  53.532  1.00  0.00     0.017 A 
HETATM   29  C   UNL     1       7.695  23.074  52.760  1.00  0.00     0.057 C 
HETATM   30  C   UNL     1       8.276  21.957  53.647  1.00  0.00     0.006 C 
HETATM   31  C   UNL     1       7.676  21.972  55.067  1.00  0.00     0.005 C 
HETATM   32  C   UNL     1       7.946  23.299  55.802  1.00  0.00     0.041 C 
HETATM   33  C   UNL     1       7.341  28.637  55.128  1.00  0.00     0.019 A 
ENDBRANCH   2  20
TORSDOF 6
ENDMDL
MODEL 6
REMARK VINA RESULT:      -9.2      1.798      2.634
REMARK  6 active torsions:
REMARK  status: ('A' for Active; 'I' for Inactive)
REMARK    1  A    between atoms: C_2  and  O_3 
REMARK    2  A    between atoms: O_3  and  C_4 
REMARK    3  A    between atoms: C_5  and  O_6 
REMARK    4  A    between atoms: C_9  and  C_10 
REMARK       I    between atoms: C_10  and  N_11 
REMARK    5  A    between atoms: N_11  and  N_12 
REMARK       I    between atoms: N_12  and  C_13 
REMARK    6  A    between atoms: C_13  and  C_14 
ROOT
HETATM    1  N   UNL     1       6.420  29.549  57.339  1.00  0.00    -0.263 N 
HETATM    2  C   UNL     1       7.321  28.506  57.400  1.00  0.00     0.270 C 
HETATM    3  O   UNL     1       8.020  28.309  58.393  1.00  0.00    -0.266 OA
HETATM    4  H   UNL     1       5.767  29.724  56.579  1.00  0.00     0.190 HD
ENDROOT
BRANCH   1   5
HETATM    5  N   UNL     1       6.287  30.379  58.456  1.00  0.00    -0.263 N 
HETATM    6  C   UNL     1       5.521  31.517  58.324  1.00  0.00     0.270 C 
HETATM    7  O   UNL     1       4.915  31.792  57.290  1.00  0.00    -0.266 OA
HETATM    8  H   UNL     1       6.954  30.218  59.209  1.00  0.00     0.190 HD
BRANCH   6   9
HETATM    9  C   UNL     1       5.470  32.427  59.499  1.00  0.00     0.036 A 
HETATM   10  C   UNL     1       6.515  32.366  60.429  1.00  0.00     0.056 A 
HETATM   11  C   UNL     1       6.527  33.217  61.540  1.00  0.00     0.102 A 
HETATM   12  C   UNL     1       5.488  34.157  61.709  1.00  0.00     0.102 A 
HETATM   13  C   UNL     1       4.450  34.216  60.773  1.00  0.00     0.040 A 
HETATM   14  C   UNL     1       4.440  33.357  59.670  1.00  0.00     0.020 A 
BRANCH  11  15
HETATM   15  O   UNL     1       7.506  33.221  62.502  1.00  0.00    -0.353 OA
HETATM   16  C   UNL     1       7.955  31.966  62.993  1.00  0.00     0.210 C 
ENDBRANCH  11  15
BRANCH  12  17
HETATM   17  O   UNL     1       5.580  34.963  62.815  1.00  0.00    -0.349 OA
BRANCH  17  18
HETATM   18  C   UNL     1       5.719  36.365  62.610  1.00  0.00     0.171 C 
HETATM   19  C   UNL     1       5.174  37.075  63.836  1.00  0.00     0.034 C 
ENDBRANCH  17  18
ENDBRANCH  12  17
ENDBRANCH   6   9
ENDBRANCH   1   5
BRANCH   2  20
HETATM   20  C   UNL     1       7.397  27.601  56.214  1.00  0.00     0.034 A 
HETATM   21  C   UNL     1       7.509  26.206  56.337  1.00  0.00     0.031 A 
HETATM   22  C   UNL     1       7.604  25.411  55.176  1.00  0.00    -0.000 A 
HETATM   23  C   UNL     1       7.566  26.033  53.926  1.00  0.00     0.043 A 
HETATM   24  C   UNL     1       7.747  24.015  54.943  1.00  0.00    -0.023 A 
HETATM   25  N   UNL     1       7.679  25.045  52.970  1.00  0.00    -0.358 N 
HETATM   26  C   UNL     1       7.434  27.417  53.777  1.00  0.00     0.031 A 
HETATM   27  H   UNL     1       7.677  25.208  51.972  1.00  0.00     0.166 HD
HETATM   28  C   UNL     1       7.799  23.828  53.577  1.00  0.00     0.017 A 
HETATM   29  C   UNL     1       7.937  22.525  52.873  1.00  0.00     0.057 C 
HETATM   30  C   UNL     1       8.420  21.450  53.865  1.00  0.00     0.006 C 
HETATM   31  C   UNL     1       7.675  21.527  55.212  1.00  0.00     0.005 C 
HETATM   32  C   UNL     1       7.871  22.886  55.911  1.00  0.00     0.041 C 
HETATM   33  C   UNL     1       7.352  28.188  54.942  1.00  0.00     0.019 A 
ENDBRANCH   2  20
TORSDOF 6
ENDMDL
MODEL 7
REMARK VINA RESULT:      -9.1      6.862     10.529
REMARK  6 active torsions:
REMARK  status: ('A' for Active; 'I' for Inactive)
REMARK    1  A    between atoms: C_2  and  O_3 
REMARK    2  A    between atoms: O_3  and  C_4 
REMARK    3  A    between atoms: C_5  and  O_6 
REMARK    4  A    between atoms: C_9  and  C_10 
REMARK       I    between atoms: C_10  and  N_11 
REMARK    5  A    between atoms: N_11  and  N_12 
REMARK       I    between atoms: N_12  and  C_13 
REMARK    6  A    between atoms: C_13  and  C_14 
ROOT
HETATM    1  N   UNL     1       4.730  26.439  51.573  1.00  0.00    -0.263 N 
HETATM    2  C   UNL     1       4.694  26.717  52.924  1.00  0.00     0.270 C 
HETATM    3  O   UNL     1       4.024  27.645  53.377  1.00  0.00    -0.266 OA
HETATM    4  H   UNL     1       5.205  25.648  51.145  1.00  0.00     0.190 HD
ENDROOT
BRANCH   1   5
HETATM    5  N   UNL     1       3.956  27.220  50.712  1.00  0.00    -0.263 N 
HETATM    6  C   UNL     1       4.057  26.979  49.358  1.00  0.00     0.270 C 
HETATM    7  O   UNL     1       4.751  26.076  48.896  1.00  0.00    -0.266 OA
HETATM    8  H   UNL     1       3.559  28.067  51.118  1.00  0.00     0.190 HD
BRANCH   6   9
HETATM    9  C   UNL     1       3.291  27.884  48.460  1.00  0.00     0.036 A 
HETATM   10  C   UNL     1       3.800  29.167  48.223  1.00  0.00     0.056 A 
HETATM   11  C   UNL     1       3.131  30.048  47.367  1.00  0.00     0.102 A 
HETATM   12  C   UNL     1       1.947  29.631  46.724  1.00  0.00     0.102 A 
HETATM   13  C   UNL     1       1.447  28.346  46.962  1.00  0.00     0.040 A 
HETATM   14  C   UNL     1       2.116  27.473  47.825  1.00  0.00     0.020 A 
BRANCH  11  15
HETATM   15  O   UNL     1       3.555  31.323  47.083  1.00  0.00    -0.353 OA
HETATM   16  C   UNL     1       4.789  31.748  47.642  1.00  0.00     0.210 C 
ENDBRANCH  11  15
BRANCH  12  17
HETATM   17  O   UNL     1       1.359  30.549  45.891  1.00  0.00    -0.349 OA
BRANCH  17  18
HETATM   18  C   UNL     1       0.148  31.162  46.324  1.00  0.00     0.171 C 
HETATM   19  C   UNL     1      -0.981  30.630  45.459  1.00  0.00     0.034 C 
ENDBRANCH  17  18
ENDBRANCH  12  17
ENDBRANCH   6   9
ENDBRANCH   1   5
BRANCH   2  20
HETATM   20  C   UNL     1       5.485  25.827  53.826  1.00  0.00     0.034 A 
HETATM   21  C   UNL     1       6.108  24.654  53.368  1.00  0.00     0.031 A 
HETATM   22  C   UNL     1       6.817  23.842  54.279  1.00  0.00    -0.000 A 
HETATM   23  C   UNL     1       6.897  24.238  55.616  1.00  0.00     0.043 A 
HETATM   24  C   UNL     1       7.526  22.615  54.164  1.00  0.00    -0.023 A 
HETATM   25  N   UNL     1       7.633  23.283  56.286  1.00  0.00    -0.358 N 
HETATM   26  C   UNL     1       6.304  25.412  56.091  1.00  0.00     0.031 A 
HETATM   27  H   UNL     1       7.854  23.315  57.271  1.00  0.00     0.166 HD
HETATM   28  C   UNL     1       8.005  22.297  55.417  1.00  0.00     0.017 A 
HETATM   29  C   UNL     1       8.813  21.099  55.772  1.00  0.00     0.057 C 
HETATM   30  C   UNL     1       8.705  20.052  54.647  1.00  0.00     0.006 C 
HETATM   31  C   UNL     1       8.835  20.687  53.249  1.00  0.00     0.005 C 
HETATM   32  C   UNL     1       7.736  21.733  52.978  1.00  0.00     0.041 C 
HETATM   33  C   UNL     1       5.597  26.196  55.172  1.00  0.00     0.019 A 
ENDBRANCH   2  20
TORSDOF 6
ENDMDL
MODEL 8
REMARK VINA RESULT:      -9.1      6.523     10.286
REMARK  6 active torsions:
REMARK  status: ('A' for Active; 'I' for Inactive)
REMARK    1  A    between atoms: C_2  and  O_3 
REMARK    2  A    between atoms: O_3  and  C_4 
REMARK    3  A    between atoms: C_5  and  O_6 
REMARK    4  A    between atoms: C_9  and  C_10 
REMARK       I    between atoms: C_10  and  N_11 
REMARK    5  A    between atoms: N_11  and  N_12 
REMARK       I    between atoms: N_12  and  C_13 
REMARK    6  A    between atoms: C_13  and  C_14 
ROOT
HETATM    1  N   UNL     1       6.028  26.698  51.790  1.00  0.00    -0.263 N 
HETATM    2  C   UNL     1       6.453  27.194  53.006  1.00  0.00     0.270 C 
HETATM    3  O   UNL     1       6.401  28.395  53.270  1.00  0.00    -0.266 OA
HETATM    4  H   UNL     1       5.979  25.714  51.537  1.00  0.00     0.190 HD
ENDROOT
BRANCH   1   5
HETATM    5  N   UNL     1       5.499  27.592  50.856  1.00  0.00    -0.263 N 
HETATM    6  C   UNL     1       4.758  27.072  49.816  1.00  0.00     0.270 C 
HETATM    7  O   UNL     1       4.505  25.873  49.717  1.00  0.00    -0.266 OA
HETATM    8  H   UNL     1       5.895  28.531  50.867  1.00  0.00     0.190 HD
BRANCH   6   9
HETATM    9  C   UNL     1       4.284  28.035  48.787  1.00  0.00     0.036 A 
HETATM   10  C   UNL     1       3.052  27.789  48.168  1.00  0.00     0.056 A 
HETATM   11  C   UNL     1       2.549  28.678  47.212  1.00  0.00     0.102 A 
HETATM   12  C   UNL     1       3.282  29.838  46.885  1.00  0.00     0.102 A 
HETATM   13  C   UNL     1       4.510  30.080  47.510  1.00  0.00     0.040 A 
HETATM   14  C   UNL     1       5.010  29.184  48.459  1.00  0.00     0.020 A 
BRANCH  11  15
HETATM   15  O   UNL     1       1.355  28.513  46.553  1.00  0.00    -0.353 OA
HETATM   16  C   UNL     1       0.536  27.418  46.937  1.00  0.00     0.210 C 
ENDBRANCH  11  15
BRANCH  12  17
HETATM   17  O   UNL     1       2.715  30.664  45.947  1.00  0.00    -0.349 OA
BRANCH  17  18
HETATM   18  C   UNL     1       3.585  31.437  45.126  1.00  0.00     0.171 C 
HETATM   19  C   UNL     1       3.263  32.903  45.353  1.00  0.00     0.034 C 
ENDBRANCH  17  18
ENDBRANCH  12  17
ENDBRANCH   6   9
ENDBRANCH   1   5
BRANCH   2  20
HETATM   20  C   UNL     1       6.957  26.207  54.007  1.00  0.00     0.034 A 
HETATM   21  C   UNL     1       7.206  24.864  53.680  1.00  0.00     0.031 A 
HETATM   22  C   UNL     1       7.655  23.976  54.681  1.00  0.00    -0.000 A 
HETATM   23  C   UNL     1       7.859  24.463  55.974  1.00  0.00     0.043 A 
HETATM   24  C   UNL     1       7.974  22.590  54.702  1.00  0.00    -0.023 A 
HETATM   25  N   UNL     1       8.290  23.407  56.750  1.00  0.00    -0.358 N 
HETATM   26  C   UNL     1       7.638  25.801  56.319  1.00  0.00     0.031 A 
HETATM   27  H   UNL     1       8.519  23.472  57.732  1.00  0.00     0.166 HD
HETATM   28  C   UNL     1       8.350  22.274  55.990  1.00  0.00     0.017 A 
HETATM   29  C   UNL     1       8.776  20.935  56.478  1.00  0.00     0.057 C 
HETATM   30  C   UNL     1       8.358  19.857  55.460  1.00  0.00     0.006 C 
HETATM   31  C   UNL     1       8.655  20.283  54.009  1.00  0.00     0.005 C 
HETATM   32  C   UNL     1       7.908  21.571  53.613  1.00  0.00     0.041 C 
HETATM   33  C   UNL     1       7.183  26.661  55.313  1.00  0.00     0.019 A 
ENDBRANCH   2  20
TORSDOF 6
ENDMDL
MODEL 9
REMARK VINA RESULT:      -8.9      3.371      3.992
REMARK  6 active torsions:
REMARK  status: ('A' for Active; 'I' for Inactive)
REMARK    1  A    between atoms: C_2  and  O_3 
REMARK    2  A    between atoms: O_3  and  C_4 
REMARK    3  A    between atoms: C_5  and  O_6 
REMARK    4  A    between atoms: C_9  and  C_10 
REMARK       I    between atoms: C_10  and  N_11 
REMARK    5  A    between atoms: N_11  and  N_12 
REMARK       I    between atoms: N_12  and  C_13 
REMARK    6  A    between atoms: C_13  and  C_14 
ROOT
HETATM    1  N   UNL     1       6.287  28.729  54.842  1.00  0.00    -0.263 N 
HETATM    2  C   UNL     1       7.228  27.838  55.313  1.00  0.00     0.270 C 
HETATM    3  O   UNL     1       7.887  28.066  56.327  1.00  0.00    -0.266 OA
HETATM    4  H   UNL     1       5.663  28.570  54.054  1.00  0.00     0.190 HD
ENDROOT
BRANCH   1   5
HETATM    5  N   UNL     1       6.064  29.905  55.564  1.00  0.00    -0.263 N 
HETATM    6  C   UNL     1       4.916  29.986  56.324  1.00  0.00     0.270 C 
HETATM    7  O   UNL     1       4.124  29.052  56.429  1.00  0.00    -0.266 OA
HETATM    8  H   UNL     1       6.633  30.705  55.293  1.00  0.00     0.190 HD
BRANCH   6   9
HETATM    9  C   UNL     1       4.660  31.280  57.009  1.00  0.00     0.036 A 
HETATM   10  C   UNL     1       5.104  32.456  56.391  1.00  0.00     0.056 A 
HETATM   11  C   UNL     1       4.866  33.702  56.983  1.00  0.00     0.102 A 
HETATM   12  C   UNL     1       4.157  33.771  58.200  1.00  0.00     0.102 A 
HETATM   13  C   UNL     1       3.712  32.592  58.810  1.00  0.00     0.040 A 
HETATM   14  C   UNL     1       3.960  31.351  58.218  1.00  0.00     0.020 A 
BRANCH  11  15
HETATM   15  O   UNL     1       5.269  34.901  56.451  1.00  0.00    -0.353 OA
HETATM   16  C   UNL     1       4.733  35.278  55.190  1.00  0.00     0.210 C 
ENDBRANCH  11  15
BRANCH  12  17
HETATM   17  O   UNL     1       3.955  35.029  58.709  1.00  0.00    -0.349 OA
BRANCH  17  18
HETATM   18  C   UNL     1       2.612  35.489  58.838  1.00  0.00     0.171 C 
HETATM   19  C   UNL     1       2.439  36.689  57.925  1.00  0.00     0.034 C 
ENDBRANCH  17  18
ENDBRANCH  12  17
ENDBRANCH   6   9
ENDBRANCH   1   5
BRANCH   2  20
HETATM   20  C   UNL     1       7.401  26.563  54.554  1.00  0.00     0.034 A 
HETATM   21  C   UNL     1       7.509  25.315  55.191  1.00  0.00     0.031 A 
HETATM   22  C   UNL     1       7.698  24.152  54.416  1.00  0.00    -0.000 A 
HETATM   23  C   UNL     1       7.755  24.270  53.025  1.00  0.00     0.043 A 
HETATM   24  C   UNL     1       7.864  22.774  54.725  1.00  0.00    -0.023 A 
HETATM   25  N   UNL     1       7.947  23.004  52.511  1.00  0.00    -0.358 N 
HETATM   26  C   UNL     1       7.629  25.497  52.366  1.00  0.00     0.031 A 
HETATM   27  H   UNL     1       8.022  22.788  51.527  1.00  0.00     0.166 HD
HETATM   28  C   UNL     1       8.024  22.100  53.533  1.00  0.00     0.017 A 
HETATM   29  C   UNL     1       8.222  20.635  53.370  1.00  0.00     0.057 C 
HETATM   30  C   UNL     1       8.630  20.017  54.721  1.00  0.00     0.006 C 
HETATM   31  C   UNL     1       7.783  20.559  55.888  1.00  0.00     0.005 C 
HETATM   32  C   UNL     1       7.917  22.085  56.048  1.00  0.00     0.041 C 
HETATM   33  C   UNL     1       7.453  26.639  53.156  1.00  0.00     0.019 A 
ENDBRANCH   2  20
TORSDOF 6
ENDMDL
MODEL 10
REMARK VINA RESULT:      -8.8      7.392     11.366
REMARK  6 active torsions:
REMARK  status: ('A' for Active; 'I' for Inactive)
REMARK    1  A    between atoms: C_2  and  O_3 
REMARK    2  A    between atoms: O_3  and  C_4 
REMARK    3  A    between atoms: C_5  and  O_6 
REMARK    4  A    between atoms: C_9  and  C_10 
REMARK       I    between atoms: C_10  and  N_11 
REMARK    5  A    between atoms: N_11  and  N_12 
REMARK       I    between atoms: N_12  and  C_13 
REMARK    6  A    between atoms: C_13  and  C_14 
ROOT
HETATM    1  N   UNL     1       5.527  27.041  49.894  1.00  0.00    -0.263 N 
HETATM    2  C   UNL     1       4.424  26.672  49.151  1.00  0.00     0.270 C 
HETATM    3  O   UNL     1       3.965  25.531  49.194  1.00  0.00    -0.266 OA
HETATM    4  H   UNL     1       5.911  27.980  49.957  1.00  0.00     0.190 HD
ENDROOT
BRANCH   1   5
HETATM    5  N   UNL     1       6.110  26.090  50.735  1.00  0.00    -0.263 N 
HETATM    6  C   UNL     1       5.938  26.243  52.095  1.00  0.00     0.270 C 
HETATM    7  O   UNL     1       5.254  27.142  52.580  1.00  0.00    -0.266 OA
HETATM    8  H   UNL     1       6.817  25.494  50.308  1.00  0.00     0.190 HD
BRANCH   6   9
HETATM    9  C   UNL     1       6.643  25.269  52.970  1.00  0.00     0.036 A 
HETATM   10  C   UNL     1       6.402  25.324  54.349  1.00  0.00     0.056 A 
HETATM   11  C   UNL     1       7.021  24.414  55.214  1.00  0.00     0.102 A 
HETATM   12  C   UNL     1       7.878  23.425  54.687  1.00  0.00     0.102 A 
HETATM   13  C   UNL     1       8.111  23.373  53.308  1.00  0.00     0.040 A 
HETATM   14  C   UNL     1       7.495  24.290  52.451  1.00  0.00     0.020 A 
BRANCH  11  15
HETATM   15  O   UNL     1       6.848  24.398  56.576  1.00  0.00    -0.353 OA
HETATM   16  C   UNL     1       7.327  25.513  57.315  1.00  0.00     0.210 C 
ENDBRANCH  11  15
BRANCH  12  17
HETATM   17  O   UNL     1       8.436  22.564  55.599  1.00  0.00    -0.349 OA
BRANCH  17  18
HETATM   18  C   UNL     1       8.747  21.243  55.166  1.00  0.00     0.171 C 
HETATM   19  C   UNL     1       8.030  20.269  56.083  1.00  0.00     0.034 C 
ENDBRANCH  17  18
ENDBRANCH  12  17
ENDBRANCH   6   9
ENDBRANCH   1   5
BRANCH   2  20
HETATM   20  C   UNL     1       3.787  27.726  48.307  1.00  0.00     0.034 A 
HETATM   21  C   UNL     1       2.451  27.644  47.879  1.00  0.00     0.031 A 
HETATM   22  C   UNL     1       1.918  28.661  47.060  1.00  0.00    -0.000 A 
HETATM   23  C   UNL     1       2.732  29.741  46.708  1.00  0.00     0.043 A 
HETATM   24  C   UNL     1       0.653  28.876  46.447  1.00  0.00    -0.023 A 
HETATM   25  N   UNL     1       1.982  30.581  45.912  1.00  0.00    -0.358 N 
HETATM   26  C   UNL     1       4.058  29.856  47.139  1.00  0.00     0.031 A 
HETATM   27  H   UNL     1       2.318  31.448  45.515  1.00  0.00     0.166 HD
HETATM   28  C   UNL     1       0.732  30.059  45.742  1.00  0.00     0.017 A 
HETATM   29  C   UNL     1      -0.360  30.684  44.949  1.00  0.00     0.057 C 
HETATM   30  C   UNL     1      -1.465  29.644  44.681  1.00  0.00     0.006 C 
HETATM   31  C   UNL     1      -1.797  28.814  45.936  1.00  0.00     0.005 C 
HETATM   32  C   UNL     1      -0.577  28.031  46.459  1.00  0.00     0.041 C 
HETATM   33  C   UNL     1       4.568  28.830  47.942  1.00  0.00     0.019 A 
ENDBRANCH   2  20
TORSDOF 6
ENDMDL
