MODEL 1
REMARK VINA RESULT:      -9.3      0.000      0.000
REMARK  4 active torsions:
REMARK  status: ('A' for Active; 'I' for Inactive)
REMARK    1  A    between atoms: O_2  and  C_3 
REMARK    2  A    between atoms: C_6  and  C_7 
REMARK       I    between atoms: C_7  and  N_8 
REMARK    3  A    between atoms: N_8  and  C_9 
REMARK    4  A    between atoms: C_14  and  C_15 
ROOT
HETATM    1  C   UNL     1       8.028  27.872  56.914  1.00  0.00     0.259 C 
HETATM    2  N   UNL     1       7.637  27.823  55.589  1.00  0.00    -0.320 N 
HETATM    3  O   UNL     1       7.730  27.057  57.781  1.00  0.00    -0.267 OA
HETATM    4  H   UNL     1       7.764  28.670  55.044  1.00  0.00     0.169 HD
ENDROOT
BRANCH   2   5
HETATM    5  C   UNL     1       6.948  26.770  54.937  1.00  0.00     0.074 A 
HETATM    6  C   UNL     1       5.638  26.838  54.452  1.00  0.00     0.143 A 
HETATM    7  F   UNL     1       4.853  27.903  54.657  1.00  0.00    -0.204 F 
HETATM    8  C   UNL     1       5.056  25.746  53.811  1.00  0.00     0.045 A 
HETATM    9  C   UNL     1       5.770  24.557  53.659  1.00  0.00     0.017 A 
HETATM   10  C   UNL     1       7.072  24.440  54.163  1.00  0.00     0.000 A 
HETATM   11  C   UNL     1       7.643  25.555  54.807  1.00  0.00     0.047 A 
BRANCH  10  12
HETATM   12  C   UNL     1       7.810  23.185  54.019  1.00  0.00     0.085 A 
HETATM   13  O   UNL     1       8.683  22.874  55.024  1.00  0.00    -0.322 OA
HETATM   14  C   UNL     1       9.257  21.684  54.713  1.00  0.00     0.142 A 
HETATM   15  C   UNL     1       8.772  21.217  53.516  1.00  0.00     0.027 A 
HETATM   16  C   UNL     1       7.838  22.183  53.067  1.00  0.00     0.040 A 
ENDBRANCH  10  12
ENDBRANCH   2   5
BRANCH   1  17
HETATM   17  C   UNL     1       8.843  29.052  57.331  1.00  0.00     0.073 A 
HETATM   18  C   UNL     1       8.333  30.107  58.091  1.00  0.00     0.165 A 
HETATM   19  C   UNL     1       9.139  31.190  58.471  1.00  0.00     0.107 A 
HETATM   20  F   UNL     1       7.048  30.091  58.489  1.00  0.00    -0.202 F 
HETATM   21  C   UNL     1      10.476  31.220  58.066  1.00  0.00     0.040 A 
HETATM   22  C   UNL     1      11.000  30.174  57.304  1.00  0.00     0.004 A 
HETATM   23  C   UNL     1      10.191  29.096  56.942  1.00  0.00     0.020 A 
BRANCH  19  24
HETATM   24  O   UNL     1       8.519  32.153  59.223  1.00  0.00    -0.353 OA
HETATM   25  C   UNL     1       8.940  32.290  60.575  1.00  0.00     0.210 C 
ENDBRANCH  19  24
ENDBRANCH   1  17
TORSDOF 4
ENDMDL
MODEL 2
REMARK VINA RESULT:      -8.9      4.500      7.716
REMARK  4 active torsions:
REMARK  status: ('A' for Active; 'I' for Inactive)
REMARK    1  A    between atoms: O_2  and  C_3 
REMARK    2  A    between atoms: C_6  and  C_7 
REMARK       I    between atoms: C_7  and  N_8 
REMARK    3  A    between atoms: N_8  and  C_9 
REMARK    4  A    between atoms: C_14  and  C_15 
ROOT
HETATM    1  C   UNL     1       5.293  26.724  51.387  1.00  0.00     0.259 C 
HETATM    2  N   UNL     1       6.464  26.012  51.570  1.00  0.00    -0.320 N 
HETATM    3  O   UNL     1       4.432  26.919  52.237  1.00  0.00    -0.267 OA
HETATM    4  H   UNL     1       6.968  25.741  50.731  1.00  0.00     0.169 HD
ENDROOT
BRANCH   2   5
HETATM    5  C   UNL     1       6.970  25.493  52.786  1.00  0.00     0.074 A 
HETATM    6  C   UNL     1       7.169  26.227  53.960  1.00  0.00     0.143 A 
HETATM    7  F   UNL     1       6.990  27.552  54.014  1.00  0.00    -0.204 F 
HETATM    8  C   UNL     1       7.661  25.615  55.111  1.00  0.00     0.045 A 
HETATM    9  C   UNL     1       7.982  24.256  55.104  1.00  0.00     0.017 A 
HETATM   10  C   UNL     1       7.830  23.497  53.936  1.00  0.00     0.000 A 
HETATM   11  C   UNL     1       7.330  24.134  52.784  1.00  0.00     0.047 A 
BRANCH  10  12
HETATM   12  C   UNL     1       8.185  22.078  53.927  1.00  0.00     0.085 A 
HETATM   13  O   UNL     1       8.417  21.501  55.145  1.00  0.00    -0.322 OA
HETATM   14  C   UNL     1       8.722  20.197  54.927  1.00  0.00     0.142 A 
HETATM   15  C   UNL     1       8.695  19.916  53.584  1.00  0.00     0.027 A 
HETATM   16  C   UNL     1       8.349  21.127  52.937  1.00  0.00     0.040 A 
ENDBRANCH  10  12
ENDBRANCH   2   5
BRANCH   1  17
HETATM   17  C   UNL     1       5.038  27.258  50.015  1.00  0.00     0.073 A 
HETATM   18  C   UNL     1       4.359  26.542  49.027  1.00  0.00     0.165 A 
HETATM   19  C   UNL     1       4.131  27.088  47.755  1.00  0.00     0.107 A 
HETATM   20  F   UNL     1       3.895  25.307  49.289  1.00  0.00    -0.202 F 
HETATM   21  C   UNL     1       4.607  28.370  47.469  1.00  0.00     0.040 A 
HETATM   22  C   UNL     1       5.290  29.097  48.446  1.00  0.00     0.004 A 
HETATM   23  C   UNL     1       5.500  28.548  49.711  1.00  0.00     0.020 A 
BRANCH  19  24
HETATM   24  O   UNL     1       3.446  26.286  46.882  1.00  0.00    -0.353 OA
HETATM   25  C   UNL     1       2.030  26.413  46.861  1.00  0.00     0.210 C 
ENDBRANCH  19  24
ENDBRANCH   1  17
TORSDOF 4
ENDMDL
MODEL 3
REMARK VINA RESULT:      -8.9      3.480      6.545
REMARK  4 active torsions:
REMARK  status: ('A' for Active; 'I' for Inactive)
REMARK    1  A    between atoms: O_2  and  C_3 
REMARK    2  A    between atoms: C_6  and  C_7 
REMARK       I    between atoms: C_7  and  N_8 
REMARK    3  A    between atoms: N_8  and  C_9 
REMARK    4  A    between atoms: C_14  and  C_15 
ROOT
HETATM    1  C   UNL     1       8.151  31.194  61.775  1.00  0.00     0.259 C 
HETATM    2  N   UNL     1       7.918  31.386  60.426  1.00  0.00    -0.320 N 
HETATM    3  O   UNL     1       8.896  30.349  62.261  1.00  0.00    -0.267 OA
HETATM    4  H   UNL     1       7.117  31.959  60.179  1.00  0.00     0.169 HD
ENDROOT
BRANCH   2   5
HETATM    5  C   UNL     1       8.583  30.762  59.343  1.00  0.00     0.074 A 
HETATM    6  C   UNL     1       9.772  31.208  58.758  1.00  0.00     0.143 A 
HETATM    7  F   UNL     1      10.356  32.359  59.110  1.00  0.00    -0.204 F 
HETATM    8  C   UNL     1      10.354  30.510  57.702  1.00  0.00     0.045 A 
HETATM    9  C   UNL     1       9.746  29.358  57.198  1.00  0.00     0.017 A 
HETATM   10  C   UNL     1       8.536  28.902  57.736  1.00  0.00     0.000 A 
HETATM   11  C   UNL     1       7.964  29.621  58.804  1.00  0.00     0.047 A 
BRANCH  10  12
HETATM   12  C   UNL     1       7.891  27.706  57.193  1.00  0.00     0.085 A 
HETATM   13  O   UNL     1       7.748  26.650  58.049  1.00  0.00    -0.322 OA
HETATM   14  C   UNL     1       7.130  25.653  57.368  1.00  0.00     0.142 A 
HETATM   15  C   UNL     1       6.869  26.044  56.077  1.00  0.00     0.027 A 
HETATM   16  C   UNL     1       7.359  27.368  55.962  1.00  0.00     0.040 A 
ENDBRANCH  10  12
ENDBRANCH   2   5
BRANCH   1  17
HETATM   17  C   UNL     1       7.385  32.060  62.720  1.00  0.00     0.073 A 
HETATM   18  C   UNL     1       5.998  32.213  62.669  1.00  0.00     0.165 A 
HETATM   19  C   UNL     1       5.318  33.028  63.586  1.00  0.00     0.107 A 
HETATM   20  F   UNL     1       5.282  31.560  61.736  1.00  0.00    -0.202 F 
HETATM   21  C   UNL     1       6.048  33.712  64.561  1.00  0.00     0.040 A 
HETATM   22  C   UNL     1       7.436  33.571  64.624  1.00  0.00     0.004 A 
HETATM   23  C   UNL     1       8.099  32.748  63.714  1.00  0.00     0.020 A 
BRANCH  19  24
HETATM   24  O   UNL     1       3.958  33.085  63.432  1.00  0.00    -0.353 OA
HETATM   25  C   UNL     1       3.304  34.264  63.882  1.00  0.00     0.210 C 
ENDBRANCH  19  24
ENDBRANCH   1  17
TORSDOF 4
ENDMDL
MODEL 4
REMARK VINA RESULT:      -8.8      1.830      2.307
REMARK  4 active torsions:
REMARK  status: ('A' for Active; 'I' for Inactive)
REMARK    1  A    between atoms: O_2  and  C_3 
REMARK    2  A    between atoms: C_6  and  C_7 
REMARK       I    between atoms: C_7  and  N_8 
REMARK    3  A    between atoms: N_8  and  C_9 
REMARK    4  A    between atoms: C_14  and  C_15 
ROOT
HETATM    1  C   UNL     1       7.916  28.254  55.246  1.00  0.00     0.259 C 
HETATM    2  N   UNL     1       7.313  27.011  55.270  1.00  0.00    -0.320 N 
HETATM    3  O   UNL     1       8.695  28.658  54.389  1.00  0.00    -0.267 OA
HETATM    4  H   UNL     1       6.878  26.732  56.144  1.00  0.00     0.169 HD
ENDROOT
BRANCH   2   5
HETATM    5  C   UNL     1       7.351  26.020  54.259  1.00  0.00     0.074 A 
HETATM    6  C   UNL     1       7.025  26.221  52.914  1.00  0.00     0.143 A 
HETATM    7  F   UNL     1       6.532  27.380  52.463  1.00  0.00    -0.204 F 
HETATM    8  C   UNL     1       7.111  25.178  51.995  1.00  0.00     0.045 A 
HETATM    9  C   UNL     1       7.509  23.905  52.408  1.00  0.00     0.017 A 
HETATM   10  C   UNL     1       7.809  23.657  53.754  1.00  0.00     0.000 A 
HETATM   11  C   UNL     1       7.717  24.725  54.667  1.00  0.00     0.047 A 
BRANCH  10  12
HETATM   12  C   UNL     1       8.206  22.318  54.187  1.00  0.00     0.085 A 
HETATM   13  O   UNL     1       8.948  22.244  55.333  1.00  0.00    -0.322 OA
HETATM   14  C   UNL     1       9.208  20.933  55.568  1.00  0.00     0.142 A 
HETATM   15  C   UNL     1       8.646  20.150  54.589  1.00  0.00     0.027 A 
HETATM   16  C   UNL     1       8.000  21.041  53.698  1.00  0.00     0.040 A 
ENDBRANCH  10  12
ENDBRANCH   2   5
BRANCH   1  17
HETATM   17  C   UNL     1       7.630  29.163  56.397  1.00  0.00     0.073 A 
HETATM   18  C   UNL     1       8.536  29.396  57.435  1.00  0.00     0.165 A 
HETATM   19  C   UNL     1       8.229  30.268  58.489  1.00  0.00     0.107 A 
HETATM   20  F   UNL     1       9.737  28.790  57.429  1.00  0.00    -0.202 F 
HETATM   21  C   UNL     1       6.986  30.904  58.509  1.00  0.00     0.040 A 
HETATM   22  C   UNL     1       6.069  30.680  57.480  1.00  0.00     0.004 A 
HETATM   23  C   UNL     1       6.390  29.820  56.429  1.00  0.00     0.020 A 
BRANCH  19  24
HETATM   24  O   UNL     1       9.207  30.415  59.438  1.00  0.00    -0.353 OA
HETATM   25  C   UNL     1       8.785  30.703  60.764  1.00  0.00     0.210 C 
ENDBRANCH  19  24
ENDBRANCH   1  17
TORSDOF 4
ENDMDL
MODEL 5
REMARK VINA RESULT:      -8.6      6.773     12.799
REMARK  4 active torsions:
REMARK  status: ('A' for Active; 'I' for Inactive)
REMARK    1  A    between atoms: O_2  and  C_3 
REMARK    2  A    between atoms: C_6  and  C_7 
REMARK       I    between atoms: C_7  and  N_8 
REMARK    3  A    between atoms: N_8  and  C_9 
REMARK    4  A    between atoms: C_14  and  C_15 
ROOT
HETATM    1  C   UNL     1       6.023  32.223  63.297  1.00  0.00     0.259 C 
HETATM    2  N   UNL     1       6.376  33.311  64.073  1.00  0.00    -0.320 N 
HETATM    3  O   UNL     1       5.006  31.550  63.425  1.00  0.00    -0.267 OA
HETATM    4  H   UNL     1       7.338  33.627  64.004  1.00  0.00     0.169 HD
ENDROOT
BRANCH   2   5
HETATM    5  C   UNL     1       5.589  33.950  65.061  1.00  0.00     0.074 A 
HETATM    6  C   UNL     1       4.306  34.471  64.864  1.00  0.00     0.143 A 
HETATM    7  F   UNL     1       3.725  34.505  63.659  1.00  0.00    -0.204 F 
HETATM    8  C   UNL     1       3.610  35.070  65.912  1.00  0.00     0.045 A 
HETATM    9  C   UNL     1       4.192  35.177  67.175  1.00  0.00     0.017 A 
HETATM   10  C   UNL     1       5.490  34.699  67.401  1.00  0.00     0.000 A 
HETATM   11  C   UNL     1       6.177  34.095  66.331  1.00  0.00     0.047 A 
BRANCH  10  12
HETATM   12  C   UNL     1       6.105  34.831  68.722  1.00  0.00     0.085 A 
HETATM   13  O   UNL     1       5.329  34.483  69.792  1.00  0.00    -0.322 OA
HETATM   14  C   UNL     1       6.072  34.666  70.913  1.00  0.00     0.142 A 
HETATM   15  C   UNL     1       7.323  35.131  70.588  1.00  0.00     0.027 A 
HETATM   16  C   UNL     1       7.347  35.237  69.176  1.00  0.00     0.040 A 
ENDBRANCH  10  12
ENDBRANCH   2   5
BRANCH   1  17
HETATM   17  C   UNL     1       6.995  31.805  62.243  1.00  0.00     0.073 A 
HETATM   18  C   UNL     1       6.778  32.000  60.877  1.00  0.00     0.165 A 
HETATM   19  C   UNL     1       7.726  31.603  59.923  1.00  0.00     0.107 A 
HETATM   20  F   UNL     1       5.649  32.596  60.453  1.00  0.00    -0.202 F 
HETATM   21  C   UNL     1       8.903  30.983  60.348  1.00  0.00     0.040 A 
HETATM   22  C   UNL     1       9.133  30.778  61.710  1.00  0.00     0.004 A 
HETATM   23  C   UNL     1       8.189  31.189  62.651  1.00  0.00     0.020 A 
BRANCH  19  24
HETATM   24  O   UNL     1       7.395  31.861  58.618  1.00  0.00    -0.353 OA
HETATM   25  C   UNL     1       6.722  30.831  57.905  1.00  0.00     0.210 C 
ENDBRANCH  19  24
ENDBRANCH   1  17
TORSDOF 4
ENDMDL
MODEL 6
REMARK VINA RESULT:      -8.5      4.784      7.951
REMARK  4 active torsions:
REMARK  status: ('A' for Active; 'I' for Inactive)
REMARK    1  A    between atoms: O_2  and  C_3 
REMARK    2  A    between atoms: C_6  and  C_7 
REMARK       I    between atoms: C_7  and  N_8 
REMARK    3  A    between atoms: N_8  and  C_9 
REMARK    4  A    between atoms: C_14  and  C_15 
ROOT
HETATM    1  C   UNL     1       4.973  26.720  50.755  1.00  0.00     0.259 C 
HETATM    2  N   UNL     1       4.652  25.725  51.659  1.00  0.00    -0.320 N 
HETATM    3  O   UNL     1       5.846  27.568  50.902  1.00  0.00    -0.267 OA
HETATM    4  H   UNL     1       3.771  25.243  51.513  1.00  0.00     0.169 HD
ENDROOT
BRANCH   2   5
HETATM    5  C   UNL     1       5.343  25.393  52.851  1.00  0.00     0.074 A 
HETATM    6  C   UNL     1       5.361  26.163  54.018  1.00  0.00     0.143 A 
HETATM    7  F   UNL     1       4.793  27.374  54.086  1.00  0.00    -0.204 F 
HETATM    8  C   UNL     1       6.063  25.738  55.144  1.00  0.00     0.045 A 
HETATM    9  C   UNL     1       6.777  24.539  55.117  1.00  0.00     0.017 A 
HETATM   10  C   UNL     1       6.811  23.759  53.954  1.00  0.00     0.000 A 
HETATM   11  C   UNL     1       6.094  24.205  52.827  1.00  0.00     0.047 A 
BRANCH  10  12
HETATM   12  C   UNL     1       7.577  22.513  53.923  1.00  0.00     0.085 A 
HETATM   13  O   UNL     1       8.084  22.081  55.117  1.00  0.00    -0.322 OA
HETATM   14  C   UNL     1       8.747  20.920  54.883  1.00  0.00     0.142 A 
HETATM   15  C   UNL     1       8.682  20.591  53.552  1.00  0.00     0.027 A 
HETATM   16  C   UNL     1       7.928  21.616  52.931  1.00  0.00     0.040 A 
ENDBRANCH  10  12
ENDBRANCH   2   5
BRANCH   1  17
HETATM   17  C   UNL     1       4.144  26.795  49.515  1.00  0.00     0.073 A 
HETATM   18  C   UNL     1       3.498  27.959  49.092  1.00  0.00     0.165 A 
HETATM   19  C   UNL     1       2.740  27.986  47.912  1.00  0.00     0.107 A 
HETATM   20  F   UNL     1       3.608  29.090  49.812  1.00  0.00    -0.202 F 
HETATM   21  C   UNL     1       2.617  26.819  47.154  1.00  0.00     0.040 A 
HETATM   22  C   UNL     1       3.255  25.647  47.565  1.00  0.00     0.004 A 
HETATM   23  C   UNL     1       4.016  25.635  48.734  1.00  0.00     0.020 A 
BRANCH  19  24
HETATM   24  O   UNL     1       2.166  29.192  47.606  1.00  0.00    -0.353 OA
HETATM   25  C   UNL     1       2.848  30.013  46.667  1.00  0.00     0.210 C 
ENDBRANCH  19  24
ENDBRANCH   1  17
TORSDOF 4
ENDMDL
MODEL 7
REMARK VINA RESULT:      -8.5      5.154      7.586
REMARK  4 active torsions:
REMARK  status: ('A' for Active; 'I' for Inactive)
REMARK    1  A    between atoms: O_2  and  C_3 
REMARK    2  A    between atoms: C_6  and  C_7 
REMARK       I    between atoms: C_7  and  N_8 
REMARK    3  A    between atoms: N_8  and  C_9 
REMARK    4  A    between atoms: C_14  and  C_15 
ROOT
HETATM    1  C   UNL     1       6.096  24.813  53.311  1.00  0.00     0.259 C 
HETATM    2  N   UNL     1       6.585  25.664  52.337  1.00  0.00    -0.320 N 
HETATM    3  O   UNL     1       4.992  24.887  53.839  1.00  0.00    -0.267 OA
HETATM    4  H   UNL     1       7.583  25.626  52.158  1.00  0.00     0.169 HD
ENDROOT
BRANCH   2   5
HETATM    5  C   UNL     1       5.877  26.685  51.657  1.00  0.00     0.074 A 
HETATM    6  C   UNL     1       5.893  28.042  51.993  1.00  0.00     0.143 A 
HETATM    7  F   UNL     1       6.515  28.503  53.084  1.00  0.00    -0.204 F 
HETATM    8  C   UNL     1       5.169  28.971  51.247  1.00  0.00     0.045 A 
HETATM    9  C   UNL     1       4.401  28.555  50.158  1.00  0.00     0.017 A 
HETATM   10  C   UNL     1       4.333  27.198  49.814  1.00  0.00     0.000 A 
HETATM   11  C   UNL     1       5.072  26.276  50.580  1.00  0.00     0.047 A 
BRANCH  10  12
HETATM   12  C   UNL     1       3.510  26.763  48.685  1.00  0.00     0.085 A 
HETATM   13  O   UNL     1       2.276  27.342  48.573  1.00  0.00    -0.322 OA
HETATM   14  C   UNL     1       1.678  26.818  47.473  1.00  0.00     0.142 A 
HETATM   15  C   UNL     1       2.505  25.904  46.868  1.00  0.00     0.027 A 
HETATM   16  C   UNL     1       3.687  25.867  47.647  1.00  0.00     0.040 A 
ENDBRANCH  10  12
ENDBRANCH   2   5
BRANCH   1  17
HETATM   17  C   UNL     1       7.020  23.744  53.795  1.00  0.00     0.073 A 
HETATM   18  C   UNL     1       7.316  23.537  55.144  1.00  0.00     0.165 A 
HETATM   19  C   UNL     1       8.179  22.511  55.554  1.00  0.00     0.107 A 
HETATM   20  F   UNL     1       6.756  24.320  56.084  1.00  0.00    -0.202 F 
HETATM   21  C   UNL     1       8.768  21.690  54.590  1.00  0.00     0.040 A 
HETATM   22  C   UNL     1       8.484  21.885  53.237  1.00  0.00     0.004 A 
HETATM   23  C   UNL     1       7.613  22.901  52.842  1.00  0.00     0.020 A 
BRANCH  19  24
HETATM   24  O   UNL     1       8.378  22.411  56.906  1.00  0.00    -0.353 OA
HETATM   25  C   UNL     1       8.392  21.102  57.463  1.00  0.00     0.210 C 
ENDBRANCH  19  24
ENDBRANCH   1  17
TORSDOF 4
ENDMDL
MODEL 8
REMARK VINA RESULT:      -8.2      4.134      6.703
REMARK  4 active torsions:
REMARK  status: ('A' for Active; 'I' for Inactive)
REMARK    1  A    between atoms: O_2  and  C_3 
REMARK    2  A    between atoms: C_6  and  C_7 
REMARK       I    between atoms: C_7  and  N_8 
REMARK    3  A    between atoms: N_8  and  C_9 
REMARK    4  A    between atoms: C_14  and  C_15 
ROOT
HETATM    1  C   UNL     1       5.347  26.621  52.174  1.00  0.00     0.259 C 
HETATM    2  N   UNL     1       6.583  26.096  52.500  1.00  0.00    -0.320 N 
HETATM    3  O   UNL     1       4.369  26.665  52.912  1.00  0.00    -0.267 OA
HETATM    4  H   UNL     1       7.222  25.920  51.731  1.00  0.00     0.169 HD
ENDROOT
BRANCH   2   5
HETATM    5  C   UNL     1       7.014  25.642  53.771  1.00  0.00     0.074 A 
HETATM    6  C   UNL     1       7.214  26.449  54.895  1.00  0.00     0.143 A 
HETATM    7  F   UNL     1       7.113  27.783  54.845  1.00  0.00    -0.204 F 
HETATM    8  C   UNL     1       7.626  25.898  56.107  1.00  0.00     0.045 A 
HETATM    9  C   UNL     1       7.864  24.527  56.212  1.00  0.00     0.017 A 
HETATM   10  C   UNL     1       7.708  23.691  55.098  1.00  0.00     0.000 A 
HETATM   11  C   UNL     1       7.290  24.267  53.883  1.00  0.00     0.047 A 
BRANCH  10  12
HETATM   12  C   UNL     1       7.977  22.258  55.206  1.00  0.00     0.085 A 
HETATM   13  O   UNL     1       8.068  21.565  54.031  1.00  0.00    -0.322 OA
HETATM   14  C   UNL     1       8.325  20.268  54.340  1.00  0.00     0.142 A 
HETATM   15  C   UNL     1       8.401  20.107  55.702  1.00  0.00     0.027 A 
HETATM   16  C   UNL     1       8.178  21.388  56.262  1.00  0.00     0.040 A 
ENDBRANCH  10  12
ENDBRANCH   2   5
BRANCH   1  17
HETATM   17  C   UNL     1       5.181  27.132  50.780  1.00  0.00     0.073 A 
HETATM   18  C   UNL     1       5.419  28.459  50.415  1.00  0.00     0.165 A 
HETATM   19  C   UNL     1       5.262  28.891  49.090  1.00  0.00     0.107 A 
HETATM   20  F   UNL     1       5.824  29.349  51.339  1.00  0.00    -0.202 F 
HETATM   21  C   UNL     1       4.843  27.978  48.120  1.00  0.00     0.040 A 
HETATM   22  C   UNL     1       4.598  26.649  48.470  1.00  0.00     0.004 A 
HETATM   23  C   UNL     1       4.770  26.227  49.788  1.00  0.00     0.020 A 
BRANCH  19  24
HETATM   24  O   UNL     1       5.536  30.215  48.864  1.00  0.00    -0.353 OA
HETATM   25  C   UNL     1       4.426  31.094  48.737  1.00  0.00     0.210 C 
ENDBRANCH  19  24
ENDBRANCH   1  17
TORSDOF 4
ENDMDL
MODEL 9
REMARK VINA RESULT:      -8.1      2.067      7.909
REMARK  4 active torsions:
REMARK  status: ('A' for Active; 'I' for Inactive)
REMARK    1  A    between atoms: O_2  and  C_3 
REMARK    2  A    between atoms: C_6  and  C_7 
REMARK       I    between atoms: C_7  and  N_8 
REMARK    3  A    between atoms: N_8  and  C_9 
REMARK    4  A    between atoms: C_14  and  C_15 
ROOT
HETATM    1  C   UNL     1       7.181  26.202  55.412  1.00  0.00     0.259 C 
HETATM    2  N   UNL     1       6.559  26.634  56.567  1.00  0.00    -0.320 N 
HETATM    3  O   UNL     1       7.384  26.879  54.409  1.00  0.00    -0.267 OA
HETATM    4  H   UNL     1       6.257  25.917  57.219  1.00  0.00     0.169 HD
ENDROOT
BRANCH   2   5
HETATM    5  C   UNL     1       6.164  27.957  56.885  1.00  0.00     0.074 A 
HETATM    6  C   UNL     1       4.940  28.541  56.546  1.00  0.00     0.143 A 
HETATM    7  F   UNL     1       4.039  27.919  55.776  1.00  0.00    -0.204 F 
HETATM    8  C   UNL     1       4.645  29.851  56.920  1.00  0.00     0.045 A 
HETATM    9  C   UNL     1       5.579  30.608  57.628  1.00  0.00     0.017 A 
HETATM   10  C   UNL     1       6.830  30.069  57.954  1.00  0.00     0.000 A 
HETATM   11  C   UNL     1       7.109  28.744  57.568  1.00  0.00     0.047 A 
BRANCH  10  12
HETATM   12  C   UNL     1       7.815  30.873  58.679  1.00  0.00     0.085 A 
HETATM   13  O   UNL     1       9.108  30.789  58.243  1.00  0.00    -0.322 OA
HETATM   14  C   UNL     1       9.857  31.603  59.029  1.00  0.00     0.142 A 
HETATM   15  C   UNL     1       9.070  32.215  59.973  1.00  0.00     0.027 A 
HETATM   16  C   UNL     1       7.753  31.746  59.749  1.00  0.00     0.040 A 
ENDBRANCH  10  12
ENDBRANCH   2   5
BRANCH   1  17
HETATM   17  C   UNL     1       7.594  24.767  55.367  1.00  0.00     0.073 A 
HETATM   18  C   UNL     1       7.399  23.946  54.254  1.00  0.00     0.165 A 
HETATM   19  C   UNL     1       7.814  22.606  54.253  1.00  0.00     0.107 A 
HETATM   20  F   UNL     1       6.815  24.439  53.147  1.00  0.00    -0.202 F 
HETATM   21  C   UNL     1       8.422  22.080  55.395  1.00  0.00     0.040 A 
HETATM   22  C   UNL     1       8.623  22.887  56.516  1.00  0.00     0.004 A 
HETATM   23  C   UNL     1       8.216  24.222  56.502  1.00  0.00     0.020 A 
BRANCH  19  24
HETATM   24  O   UNL     1       7.572  21.913  53.096  1.00  0.00    -0.353 OA
HETATM   25  C   UNL     1       8.072  20.585  53.020  1.00  0.00     0.210 C 
ENDBRANCH  19  24
ENDBRANCH   1  17
TORSDOF 4
ENDMDL
MODEL 10
REMARK VINA RESULT:      -8.1      3.788      6.083
REMARK  4 active torsions:
REMARK  status: ('A' for Active; 'I' for Inactive)
REMARK    1  A    between atoms: O_2  and  C_3 
REMARK    2  A    between atoms: C_6  and  C_7 
REMARK       I    between atoms: C_7  and  N_8 
REMARK    3  A    between atoms: N_8  and  C_9 
REMARK    4  A    between atoms: C_14  and  C_15 
ROOT
HETATM    1  C   UNL     1       6.221  27.663  53.741  1.00  0.00     0.259 C 
HETATM    2  N   UNL     1       5.871  26.508  54.413  1.00  0.00    -0.320 N 
HETATM    3  O   UNL     1       7.336  28.175  53.725  1.00  0.00    -0.267 OA
HETATM    4  H   UNL     1       4.879  26.328  54.525  1.00  0.00     0.169 HD
ENDROOT
BRANCH   2   5
HETATM    5  C   UNL     1       6.737  25.614  55.090  1.00  0.00     0.074 A 
HETATM    6  C   UNL     1       7.359  25.863  56.318  1.00  0.00     0.143 A 
HETATM    7  F   UNL     1       7.273  27.046  56.938  1.00  0.00    -0.204 F 
HETATM    8  C   UNL     1       8.185  24.907  56.907  1.00  0.00     0.045 A 
HETATM    9  C   UNL     1       8.418  23.688  56.268  1.00  0.00     0.017 A 
HETATM   10  C   UNL     1       7.841  23.418  55.020  1.00  0.00     0.000 A 
HETATM   11  C   UNL     1       7.009  24.396  54.442  1.00  0.00     0.047 A 
BRANCH  10  12
HETATM   12  C   UNL     1       8.104  22.148  54.345  1.00  0.00     0.085 A 
HETATM   13  O   UNL     1       8.582  21.131  55.125  1.00  0.00    -0.322 OA
HETATM   14  C   UNL     1       8.753  20.049  54.324  1.00  0.00     0.142 A 
HETATM   15  C   UNL     1       8.396  20.346  53.032  1.00  0.00     0.027 A 
HETATM   16  C   UNL     1       7.977  21.699  53.043  1.00  0.00     0.040 A 
ENDBRANCH  10  12
ENDBRANCH   2   5
BRANCH   1  17
HETATM   17  C   UNL     1       5.128  28.375  53.012  1.00  0.00     0.073 A 
HETATM   18  C   UNL     1       4.686  28.005  51.740  1.00  0.00     0.165 A 
HETATM   19  C   UNL     1       3.646  28.694  51.099  1.00  0.00     0.107 A 
HETATM   20  F   UNL     1       5.248  26.958  51.110  1.00  0.00    -0.202 F 
HETATM   21  C   UNL     1       3.053  29.783  51.741  1.00  0.00     0.040 A 
HETATM   22  C   UNL     1       3.485  30.167  53.012  1.00  0.00     0.004 A 
HETATM   23  C   UNL     1       4.512  29.466  53.646  1.00  0.00     0.020 A 
BRANCH  19  24
HETATM   24  O   UNL     1       3.302  28.225  49.858  1.00  0.00    -0.353 OA
HETATM   25  C   UNL     1       2.002  28.546  49.382  1.00  0.00     0.210 C 
ENDBRANCH  19  24
ENDBRANCH   1  17
TORSDOF 4
ENDMDL
