MODEL 1
REMARK VINA RESULT:      -9.6      0.000      0.000
REMARK  4 active torsions:
REMARK  status: ('A' for Active; 'I' for Inactive)
REMARK    1  A    between atoms: C_5  and  C_6 
REMARK    2  A    between atoms: C_16  and  C_17 
REMARK       I    between atoms: C_17  and  N_18 
REMARK    3  A    between atoms: N_18  and  C_19 
REMARK    4  A    between atoms: C_20  and  O_21 
ROOT
HETATM    1  C   UNL     1       5.744  27.713  55.327  1.00  0.00     0.202 C 
HETATM    2  N   UNL     1       4.890  28.839  54.937  1.00  0.00    -0.083 N 
HETATM    3  C   UNL     1       4.545  29.118  53.642  1.00  0.00     0.726 A 
HETATM    4  N   UNL     1       3.762  30.166  53.615  1.00  0.00    -0.046 NA
HETATM    5  C   UNL     1       3.611  30.470  54.950  1.00  0.00     0.162 A 
HETATM    6  C   UNL     1       2.746  31.571  55.416  1.00  0.00     0.096 C 
HETATM    7  N   UNL     1       4.274  29.672  55.800  1.00  0.00    -0.141 NA
HETATM    8  N   UNL     1       4.972  28.303  52.654  1.00  0.00    -0.192 N 
HETATM    9  C   UNL     1       5.498  27.037  52.915  1.00  0.00     0.037 C 
HETATM   10  C   UNL     1       5.501  26.078  51.751  1.00  0.00     0.070 C 
HETATM   11  C   UNL     1       5.872  26.718  54.180  1.00  0.00     0.062 C 
HETATM   12  H   UNL     1       4.579  28.455  51.727  1.00  0.00     0.184 HD
ENDROOT
BRANCH  11  13
HETATM   13  C   UNL     1       6.237  25.343  54.600  1.00  0.00     0.256 C 
HETATM   14  N   UNL     1       7.383  24.864  54.019  1.00  0.00    -0.321 N 
HETATM   15  H   UNL     1       7.971  25.506  53.495  1.00  0.00     0.169 HD
HETATM   16  O   UNL     1       5.526  24.773  55.418  1.00  0.00    -0.267 OA
BRANCH  14  17
HETATM   17  C   UNL     1       7.855  23.529  54.025  1.00  0.00     0.068 A 
HETATM   18  C   UNL     1       8.727  23.156  55.070  1.00  0.00     0.095 A 
HETATM   19  C   UNL     1       9.274  21.869  55.090  1.00  0.00     0.039 A 
HETATM   20  C   UNL     1       8.956  20.953  54.085  1.00  0.00     0.003 A 
HETATM   21  C   UNL     1       8.089  21.317  53.060  1.00  0.00     0.002 A 
HETATM   22  C   UNL     1       7.540  22.600  53.029  1.00  0.00     0.032 A 
BRANCH  18  23
HETATM   23  O   UNL     1       8.993  24.134  56.001  1.00  0.00    -0.354 OA
HETATM   24  C   UNL     1       8.567  23.872  57.334  1.00  0.00     0.210 C 
ENDBRANCH  18  23
ENDBRANCH  14  17
ENDBRANCH  11  13
BRANCH   1  25
HETATM   25  C   UNL     1       7.107  28.227  55.791  1.00  0.00    -0.028 A 
HETATM   26  C   UNL     1       7.402  28.287  57.161  1.00  0.00     0.010 A 
HETATM   27  C   UNL     1       8.631  28.784  57.606  1.00  0.00     0.007 A 
HETATM   28  C   UNL     1       9.590  29.233  56.692  1.00  0.00    -0.062 A 
HETATM   29  C   UNL     1      10.907  29.781  57.157  1.00  0.00     0.048 C 
HETATM   30  C   UNL     1       9.316  29.146  55.324  1.00  0.00     0.007 A 
HETATM   31  C   UNL     1       8.089  28.648  54.877  1.00  0.00     0.010 A 
ENDBRANCH   1  25
TORSDOF 4
ENDMDL
MODEL 2
REMARK VINA RESULT:      -9.3      2.144      6.154
REMARK  4 active torsions:
REMARK  status: ('A' for Active; 'I' for Inactive)
REMARK    1  A    between atoms: C_5  and  C_6 
REMARK    2  A    between atoms: C_16  and  C_17 
REMARK       I    between atoms: C_17  and  N_18 
REMARK    3  A    between atoms: N_18  and  C_19 
REMARK    4  A    between atoms: C_20  and  O_21 
ROOT
HETATM    1  C   UNL     1       6.648  27.190  53.530  1.00  0.00     0.202 C 
HETATM    2  N   UNL     1       5.664  27.512  52.492  1.00  0.00    -0.083 N 
HETATM    3  C   UNL     1       4.351  27.801  52.752  1.00  0.00     0.726 A 
HETATM    4  N   UNL     1       3.731  28.065  51.631  1.00  0.00    -0.046 NA
HETATM    5  C   UNL     1       4.739  27.971  50.695  1.00  0.00     0.162 A 
HETATM    6  C   UNL     1       4.513  28.249  49.263  1.00  0.00     0.096 C 
HETATM    7  N   UNL     1       5.947  27.648  51.180  1.00  0.00    -0.141 NA
HETATM    8  N   UNL     1       3.924  27.836  54.033  1.00  0.00    -0.192 N 
HETATM    9  C   UNL     1       4.812  27.880  55.108  1.00  0.00     0.037 C 
HETATM   10  C   UNL     1       4.235  28.372  56.412  1.00  0.00     0.070 C 
HETATM   11  C   UNL     1       6.121  27.583  54.904  1.00  0.00     0.062 C 
HETATM   12  H   UNL     1       2.986  28.196  54.197  1.00  0.00     0.184 HD
ENDROOT
BRANCH  11  13
HETATM   13  C   UNL     1       7.176  27.807  55.924  1.00  0.00     0.256 C 
HETATM   14  N   UNL     1       7.613  29.105  56.004  1.00  0.00    -0.321 N 
HETATM   15  H   UNL     1       7.099  29.826  55.506  1.00  0.00     0.169 HD
HETATM   16  O   UNL     1       7.543  26.857  56.603  1.00  0.00    -0.267 OA
BRANCH  14  17
HETATM   17  C   UNL     1       8.754  29.585  56.691  1.00  0.00     0.068 A 
HETATM   18  C   UNL     1       8.533  30.357  57.851  1.00  0.00     0.095 A 
HETATM   19  C   UNL     1       9.622  30.910  58.533  1.00  0.00     0.039 A 
HETATM   20  C   UNL     1      10.923  30.695  58.073  1.00  0.00     0.003 A 
HETATM   21  C   UNL     1      11.141  29.926  56.935  1.00  0.00     0.002 A 
HETATM   22  C   UNL     1      10.062  29.372  56.245  1.00  0.00     0.032 A 
BRANCH  18  23
HETATM   23  O   UNL     1       7.216  30.526  58.213  1.00  0.00    -0.354 OA
HETATM   24  C   UNL     1       6.925  31.648  59.038  1.00  0.00     0.210 C 
ENDBRANCH  18  23
ENDBRANCH  14  17
ENDBRANCH  11  13
BRANCH   1  25
HETATM   25  C   UNL     1       7.014  25.708  53.462  1.00  0.00    -0.028 A 
HETATM   26  C   UNL     1       7.860  25.242  52.444  1.00  0.00     0.010 A 
HETATM   27  C   UNL     1       8.181  23.885  52.347  1.00  0.00     0.007 A 
HETATM   28  C   UNL     1       7.663  22.964  53.263  1.00  0.00    -0.062 A 
HETATM   29  C   UNL     1       7.988  21.503  53.161  1.00  0.00     0.048 C 
HETATM   30  C   UNL     1       6.845  23.424  54.299  1.00  0.00     0.007 A 
HETATM   31  C   UNL     1       6.525  24.781  54.400  1.00  0.00     0.010 A 
ENDBRANCH   1  25
TORSDOF 4
ENDMDL
MODEL 3
REMARK VINA RESULT:      -8.5      3.211      6.013
REMARK  4 active torsions:
REMARK  status: ('A' for Active; 'I' for Inactive)
REMARK    1  A    between atoms: C_5  and  C_6 
REMARK    2  A    between atoms: C_16  and  C_17 
REMARK       I    between atoms: C_17  and  N_18 
REMARK    3  A    between atoms: N_18  and  C_19 
REMARK    4  A    between atoms: C_20  and  O_21 
ROOT
HETATM    1  C   UNL     1       5.263  28.574  50.814  1.00  0.00     0.202 C 
HETATM    2  N   UNL     1       5.468  29.999  50.535  1.00  0.00    -0.083 N 
HETATM    3  C   UNL     1       5.027  31.004  51.353  1.00  0.00     0.726 A 
HETATM    4  N   UNL     1       5.376  32.160  50.852  1.00  0.00    -0.046 NA
HETATM    5  C   UNL     1       6.089  31.803  49.727  1.00  0.00     0.162 A 
HETATM    6  C   UNL     1       6.738  32.801  48.855  1.00  0.00     0.096 C 
HETATM    7  N   UNL     1       6.184  30.485  49.501  1.00  0.00    -0.141 NA
HETATM    8  N   UNL     1       4.398  30.690  52.507  1.00  0.00    -0.192 N 
HETATM    9  C   UNL     1       4.436  29.402  53.042  1.00  0.00     0.037 C 
HETATM   10  C   UNL     1       4.107  29.295  54.511  1.00  0.00     0.070 C 
HETATM   11  C   UNL     1       4.849  28.368  52.265  1.00  0.00     0.062 C 
HETATM   12  H   UNL     1       4.216  31.452  53.156  1.00  0.00     0.184 HD
ENDROOT
BRANCH  11  13
HETATM   13  C   UNL     1       5.128  27.011  52.796  1.00  0.00     0.256 C 
HETATM   14  N   UNL     1       6.450  26.779  53.079  1.00  0.00    -0.321 N 
HETATM   15  H   UNL     1       7.097  27.562  53.067  1.00  0.00     0.169 HD
HETATM   16  O   UNL     1       4.190  26.241  52.955  1.00  0.00    -0.267 OA
BRANCH  14  17
HETATM   17  C   UNL     1       7.062  25.535  53.362  1.00  0.00     0.068 A 
HETATM   18  C   UNL     1       7.345  25.247  54.714  1.00  0.00     0.095 A 
HETATM   19  C   UNL     1       8.007  24.059  55.046  1.00  0.00     0.039 A 
HETATM   20  C   UNL     1       8.379  23.158  54.046  1.00  0.00     0.003 A 
HETATM   21  C   UNL     1       8.091  23.438  52.714  1.00  0.00     0.002 A 
HETATM   22  C   UNL     1       7.435  24.621  52.372  1.00  0.00     0.032 A 
BRANCH  18  23
HETATM   23  O   UNL     1       6.954  26.204  55.622  1.00  0.00    -0.354 OA
HETATM   24  C   UNL     1       5.905  25.842  56.513  1.00  0.00     0.210 C 
ENDBRANCH  18  23
ENDBRANCH  14  17
ENDBRANCH  11  13
BRANCH   1  25
HETATM   25  C   UNL     1       4.237  27.994  49.840  1.00  0.00    -0.028 A 
HETATM   26  C   UNL     1       4.562  26.866  49.071  1.00  0.00     0.010 A 
HETATM   27  C   UNL     1       3.648  26.340  48.153  1.00  0.00     0.007 A 
HETATM   28  C   UNL     1       2.392  26.930  47.982  1.00  0.00    -0.062 A 
HETATM   29  C   UNL     1       1.408  26.384  46.989  1.00  0.00     0.048 C 
HETATM   30  C   UNL     1       2.048  28.034  48.767  1.00  0.00     0.007 A 
HETATM   31  C   UNL     1       2.959  28.560  49.688  1.00  0.00     0.010 A 
ENDBRANCH   1  25
TORSDOF 4
ENDMDL
MODEL 4
REMARK VINA RESULT:      -8.3      2.313      4.064
REMARK  4 active torsions:
REMARK  status: ('A' for Active; 'I' for Inactive)
REMARK    1  A    between atoms: C_5  and  C_6 
REMARK    2  A    between atoms: C_16  and  C_17 
REMARK       I    between atoms: C_17  and  N_18 
REMARK    3  A    between atoms: N_18  and  C_19 
REMARK    4  A    between atoms: C_20  and  O_21 
ROOT
HETATM    1  C   UNL     1       5.948  28.445  54.752  1.00  0.00     0.202 C 
HETATM    2  N   UNL     1       5.470  29.420  55.737  1.00  0.00    -0.083 N 
HETATM    3  C   UNL     1       4.773  29.082  56.864  1.00  0.00     0.726 A 
HETATM    4  N   UNL     1       4.505  30.162  57.553  1.00  0.00    -0.046 NA
HETATM    5  C   UNL     1       5.115  31.153  56.816  1.00  0.00     0.162 A 
HETATM    6  C   UNL     1       5.124  32.565  57.247  1.00  0.00     0.096 C 
HETATM    7  N   UNL     1       5.734  30.742  55.699  1.00  0.00    -0.141 NA
HETATM    8  N   UNL     1       4.532  27.779  57.127  1.00  0.00    -0.192 N 
HETATM    9  C   UNL     1       5.207  26.754  56.463  1.00  0.00     0.037 C 
HETATM   10  C   UNL     1       5.191  25.410  57.148  1.00  0.00     0.070 C 
HETATM   11  C   UNL     1       5.898  27.036  55.329  1.00  0.00     0.062 C 
HETATM   12  H   UNL     1       4.143  27.556  58.040  1.00  0.00     0.184 HD
ENDROOT
BRANCH  11  13
HETATM   13  C   UNL     1       6.816  26.072  54.673  1.00  0.00     0.256 C 
HETATM   14  N   UNL     1       6.402  24.766  54.742  1.00  0.00    -0.321 N 
HETATM   15  H   UNL     1       5.462  24.568  55.072  1.00  0.00     0.169 HD
HETATM   16  O   UNL     1       7.822  26.503  54.124  1.00  0.00    -0.267 OA
BRANCH  14  17
HETATM   17  C   UNL     1       7.156  23.609  54.434  1.00  0.00     0.068 A 
HETATM   18  C   UNL     1       7.898  23.023  55.481  1.00  0.00     0.095 A 
HETATM   19  C   UNL     1       8.712  21.915  55.218  1.00  0.00     0.039 A 
HETATM   20  C   UNL     1       8.786  21.387  53.927  1.00  0.00     0.003 A 
HETATM   21  C   UNL     1       8.047  21.959  52.897  1.00  0.00     0.002 A 
HETATM   22  C   UNL     1       7.235  23.066  53.148  1.00  0.00     0.032 A 
BRANCH  18  23
HETATM   23  O   UNL     1       7.773  23.626  56.711  1.00  0.00    -0.354 OA
HETATM   24  C   UNL     1       8.931  24.280  57.217  1.00  0.00     0.210 C 
ENDBRANCH  18  23
ENDBRANCH  14  17
ENDBRANCH  11  13
BRANCH   1  25
HETATM   25  C   UNL     1       5.136  28.563  53.463  1.00  0.00    -0.028 A 
HETATM   26  C   UNL     1       5.793  28.659  52.227  1.00  0.00     0.010 A 
HETATM   27  C   UNL     1       5.067  28.799  51.040  1.00  0.00     0.007 A 
HETATM   28  C   UNL     1       3.669  28.848  51.063  1.00  0.00    -0.062 A 
HETATM   29  C   UNL     1       2.880  29.013  49.798  1.00  0.00     0.048 C 
HETATM   30  C   UNL     1       3.006  28.722  52.286  1.00  0.00     0.007 A 
HETATM   31  C   UNL     1       3.729  28.579  53.474  1.00  0.00     0.010 A 
ENDBRANCH   1  25
TORSDOF 4
ENDMDL
MODEL 5
REMARK VINA RESULT:      -7.9      3.263      6.081
REMARK  4 active torsions:
REMARK  status: ('A' for Active; 'I' for Inactive)
REMARK    1  A    between atoms: C_5  and  C_6 
REMARK    2  A    between atoms: C_16  and  C_17 
REMARK       I    between atoms: C_17  and  N_18 
REMARK    3  A    between atoms: N_18  and  C_19 
REMARK    4  A    between atoms: C_20  and  O_21 
ROOT
HETATM    1  C   UNL     1       4.051  28.558  51.149  1.00  0.00     0.202 C 
HETATM    2  N   UNL     1       3.659  27.943  49.877  1.00  0.00    -0.083 N 
HETATM    3  C   UNL     1       4.341  26.913  49.288  1.00  0.00     0.726 A 
HETATM    4  N   UNL     1       3.741  26.568  48.178  1.00  0.00    -0.046 NA
HETATM    5  C   UNL     1       2.643  27.401  48.154  1.00  0.00     0.162 A 
HETATM    6  C   UNL     1       1.624  27.331  47.088  1.00  0.00     0.096 C 
HETATM    7  N   UNL     1       2.543  28.253  49.185  1.00  0.00    -0.141 NA
HETATM    8  N   UNL     1       5.417  26.389  49.915  1.00  0.00    -0.192 N 
HETATM    9  C   UNL     1       5.690  26.651  51.258  1.00  0.00     0.037 C 
HETATM   10  C   UNL     1       6.617  25.674  51.939  1.00  0.00     0.070 C 
HETATM   11  C   UNL     1       5.052  27.674  51.881  1.00  0.00     0.062 C 
HETATM   12  H   UNL     1       5.809  25.535  49.524  1.00  0.00     0.184 HD
ENDROOT
BRANCH  11  13
HETATM   13  C   UNL     1       5.109  27.897  53.347  1.00  0.00     0.256 C 
HETATM   14  N   UNL     1       6.300  28.412  53.791  1.00  0.00    -0.321 N 
HETATM   15  H   UNL     1       6.972  28.748  53.108  1.00  0.00     0.169 HD
HETATM   16  O   UNL     1       4.118  27.635  54.017  1.00  0.00    -0.267 OA
BRANCH  14  17
HETATM   17  C   UNL     1       6.747  28.509  55.131  1.00  0.00     0.068 A 
HETATM   18  C   UNL     1       7.424  27.394  55.669  1.00  0.00     0.095 A 
HETATM   19  C   UNL     1       7.831  27.410  57.007  1.00  0.00     0.039 A 
HETATM   20  C   UNL     1       7.577  28.526  57.807  1.00  0.00     0.003 A 
HETATM   21  C   UNL     1       6.919  29.630  57.274  1.00  0.00     0.002 A 
HETATM   22  C   UNL     1       6.505  29.623  55.941  1.00  0.00     0.032 A 
BRANCH  18  23
HETATM   23  O   UNL     1       7.611  26.338  54.807  1.00  0.00    -0.354 OA
HETATM   24  C   UNL     1       7.600  25.038  55.387  1.00  0.00     0.210 C 
ENDBRANCH  18  23
ENDBRANCH  14  17
ENDBRANCH  11  13
BRANCH   1  25
HETATM   25  C   UNL     1       4.601  29.962  50.903  1.00  0.00    -0.028 A 
HETATM   26  C   UNL     1       4.100  31.048  51.635  1.00  0.00     0.010 A 
HETATM   27  C   UNL     1       4.569  32.345  51.402  1.00  0.00     0.007 A 
HETATM   28  C   UNL     1       5.547  32.584  50.432  1.00  0.00    -0.062 A 
HETATM   29  C   UNL     1       6.048  33.972  50.162  1.00  0.00     0.048 C 
HETATM   30  C   UNL     1       6.074  31.503  49.720  1.00  0.00     0.007 A 
HETATM   31  C   UNL     1       5.609  30.206  49.953  1.00  0.00     0.010 A 
ENDBRANCH   1  25
TORSDOF 4
ENDMDL
MODEL 6
REMARK VINA RESULT:      -7.8      7.699     10.967
REMARK  4 active torsions:
REMARK  status: ('A' for Active; 'I' for Inactive)
REMARK    1  A    between atoms: C_5  and  C_6 
REMARK    2  A    between atoms: C_16  and  C_17 
REMARK       I    between atoms: C_17  and  N_18 
REMARK    3  A    between atoms: N_18  and  C_19 
REMARK    4  A    between atoms: C_20  and  O_21 
ROOT
HETATM    1  C   UNL     1       5.206  35.186  61.685  1.00  0.00     0.202 C 
HETATM    2  N   UNL     1       5.472  36.528  62.213  1.00  0.00    -0.083 N 
HETATM    3  C   UNL     1       5.851  36.775  63.505  1.00  0.00     0.726 A 
HETATM    4  N   UNL     1       6.033  38.060  63.669  1.00  0.00    -0.046 NA
HETATM    5  C   UNL     1       5.796  38.565  62.409  1.00  0.00     0.162 A 
HETATM    6  C   UNL     1       5.941  40.000  62.095  1.00  0.00     0.096 C 
HETATM    7  N   UNL     1       5.463  37.659  61.478  1.00  0.00    -0.141 NA
HETATM    8  N   UNL     1       6.034  35.737  64.350  1.00  0.00    -0.192 N 
HETATM    9  C   UNL     1       6.140  34.423  63.894  1.00  0.00     0.037 C 
HETATM   10  C   UNL     1       6.787  33.450  64.849  1.00  0.00     0.070 C 
HETATM   11  C   UNL     1       5.759  34.124  62.626  1.00  0.00     0.062 C 
HETATM   12  H   UNL     1       6.455  35.945  65.253  1.00  0.00     0.184 HD
ENDROOT
BRANCH  11  13
HETATM   13  C   UNL     1       6.030  32.815  61.981  1.00  0.00     0.256 C 
HETATM   14  N   UNL     1       6.872  32.885  60.900  1.00  0.00    -0.321 N 
HETATM   15  H   UNL     1       7.364  33.754  60.719  1.00  0.00     0.169 HD
HETATM   16  O   UNL     1       5.519  31.810  62.459  1.00  0.00    -0.267 OA
BRANCH  14  17
HETATM   17  C   UNL     1       7.127  31.872  59.945  1.00  0.00     0.068 A 
HETATM   18  C   UNL     1       8.289  31.092  60.125  1.00  0.00     0.095 A 
HETATM   19  C   UNL     1       8.625  30.119  59.177  1.00  0.00     0.039 A 
HETATM   20  C   UNL     1       7.811  29.915  58.060  1.00  0.00     0.003 A 
HETATM   21  C   UNL     1       6.661  30.677  57.888  1.00  0.00     0.002 A 
HETATM   22  C   UNL     1       6.319  31.653  58.826  1.00  0.00     0.032 A 
BRANCH  18  23
HETATM   23  O   UNL     1       9.033  31.381  61.246  1.00  0.00    -0.354 OA
HETATM   24  C   UNL     1       9.059  30.386  62.263  1.00  0.00     0.210 C 
ENDBRANCH  18  23
ENDBRANCH  14  17
ENDBRANCH  11  13
BRANCH   1  25
HETATM   25  C   UNL     1       3.708  35.008  61.441  1.00  0.00    -0.028 A 
HETATM   26  C   UNL     1       3.188  35.145  60.145  1.00  0.00     0.010 A 
HETATM   27  C   UNL     1       1.816  35.017  59.908  1.00  0.00     0.007 A 
HETATM   28  C   UNL     1       0.934  34.750  60.959  1.00  0.00    -0.062 A 
HETATM   29  C   UNL     1      -0.541  34.625  60.719  1.00  0.00     0.048 C 
HETATM   30  C   UNL     1       1.447  34.580  62.248  1.00  0.00     0.007 A 
HETATM   31  C   UNL     1       2.819  34.705  62.488  1.00  0.00     0.010 A 
ENDBRANCH   1  25
TORSDOF 4
ENDMDL
MODEL 7
REMARK VINA RESULT:      -7.8      2.409      6.319
REMARK  4 active torsions:
REMARK  status: ('A' for Active; 'I' for Inactive)
REMARK    1  A    between atoms: C_5  and  C_6 
REMARK    2  A    between atoms: C_16  and  C_17 
REMARK       I    between atoms: C_17  and  N_18 
REMARK    3  A    between atoms: N_18  and  C_19 
REMARK    4  A    between atoms: C_20  and  O_21 
ROOT
HETATM    1  C   UNL     1       6.274  28.327  54.601  1.00  0.00     0.202 C 
HETATM    2  N   UNL     1       5.654  28.608  53.302  1.00  0.00    -0.083 N 
HETATM    3  C   UNL     1       4.347  28.984  53.149  1.00  0.00     0.726 A 
HETATM    4  N   UNL     1       4.095  29.182  51.881  1.00  0.00    -0.046 NA
HETATM    5  C   UNL     1       5.318  28.958  51.288  1.00  0.00     0.162 A 
HETATM    6  C   UNL     1       5.533  29.124  49.837  1.00  0.00     0.096 C 
HETATM    7  N   UNL     1       6.310  28.617  52.124  1.00  0.00    -0.141 NA
HETATM    8  N   UNL     1       3.575  29.150  54.245  1.00  0.00    -0.192 N 
HETATM    9  C   UNL     1       4.119  29.241  55.526  1.00  0.00     0.037 C 
HETATM   10  C   UNL     1       3.231  29.871  56.570  1.00  0.00     0.070 C 
HETATM   11  C   UNL     1       5.406  28.862  55.732  1.00  0.00     0.062 C 
HETATM   12  H   UNL     1       2.658  29.570  54.105  1.00  0.00     0.184 HD
ENDROOT
BRANCH  11  13
HETATM   13  C   UNL     1       6.139  29.118  56.998  1.00  0.00     0.256 C 
HETATM   14  N   UNL     1       6.593  30.405  57.133  1.00  0.00    -0.321 N 
HETATM   15  H   UNL     1       6.273  31.108  56.473  1.00  0.00     0.169 HD
HETATM   16  O   UNL     1       6.256  28.202  57.801  1.00  0.00    -0.267 OA
BRANCH  14  17
HETATM   17  C   UNL     1       7.513  30.894  58.090  1.00  0.00     0.068 A 
HETATM   18  C   UNL     1       8.867  30.532  57.930  1.00  0.00     0.095 A 
HETATM   19  C   UNL     1       9.810  30.934  58.882  1.00  0.00     0.039 A 
HETATM   20  C   UNL     1       9.417  31.697  59.983  1.00  0.00     0.003 A 
HETATM   21  C   UNL     1       8.084  32.063  60.136  1.00  0.00     0.002 A 
HETATM   22  C   UNL     1       7.134  31.664  59.194  1.00  0.00     0.032 A 
BRANCH  18  23
HETATM   23  O   UNL     1       9.152  29.765  56.823  1.00  0.00    -0.354 OA
HETATM   24  C   UNL     1      10.516  29.713  56.422  1.00  0.00     0.210 C 
ENDBRANCH  18  23
ENDBRANCH  14  17
ENDBRANCH  11  13
BRANCH   1  25
HETATM   25  C   UNL     1       6.535  26.827  54.741  1.00  0.00    -0.028 A 
HETATM   26  C   UNL     1       7.655  26.375  55.455  1.00  0.00     0.010 A 
HETATM   27  C   UNL     1       7.927  25.008  55.568  1.00  0.00     0.007 A 
HETATM   28  C   UNL     1       7.087  24.064  54.969  1.00  0.00    -0.062 A 
HETATM   29  C   UNL     1       7.376  22.596  55.071  1.00  0.00     0.048 C 
HETATM   30  C   UNL     1       5.951  24.505  54.283  1.00  0.00     0.007 A 
HETATM   31  C   UNL     1       5.676  25.870  54.172  1.00  0.00     0.010 A 
ENDBRANCH   1  25
TORSDOF 4
ENDMDL
MODEL 8
REMARK VINA RESULT:      -7.8      7.672     11.630
REMARK  4 active torsions:
REMARK  status: ('A' for Active; 'I' for Inactive)
REMARK    1  A    between atoms: C_5  and  C_6 
REMARK    2  A    between atoms: C_16  and  C_17 
REMARK       I    between atoms: C_17  and  N_18 
REMARK    3  A    between atoms: N_18  and  C_19 
REMARK    4  A    between atoms: C_20  and  O_21 
ROOT
HETATM    1  C   UNL     1       4.129  32.445  60.503  1.00  0.00     0.202 C 
HETATM    2  N   UNL     1       4.382  31.811  59.206  1.00  0.00    -0.083 N 
HETATM    3  C   UNL     1       5.635  31.568  58.710  1.00  0.00     0.726 A 
HETATM    4  N   UNL     1       5.538  30.977  57.547  1.00  0.00    -0.046 NA
HETATM    5  C   UNL     1       4.177  30.830  57.392  1.00  0.00     0.162 A 
HETATM    6  C   UNL     1       3.585  30.148  56.224  1.00  0.00     0.096 C 
HETATM    7  N   UNL     1       3.427  31.314  58.393  1.00  0.00    -0.141 NA
HETATM    8  N   UNL     1       6.714  31.887  59.457  1.00  0.00    -0.192 N 
HETATM    9  C   UNL     1       6.612  32.178  60.818  1.00  0.00     0.037 C 
HETATM   10  C   UNL     1       7.891  32.062  61.609  1.00  0.00     0.070 C 
HETATM   11  C   UNL     1       5.393  32.444  61.353  1.00  0.00     0.062 C 
HETATM   12  H   UNL     1       7.619  31.561  59.124  1.00  0.00     0.184 HD
ENDROOT
BRANCH  11  13
HETATM   13  C   UNL     1       5.150  32.553  62.813  1.00  0.00     0.256 C 
HETATM   14  N   UNL     1       5.406  33.795  63.334  1.00  0.00    -0.321 N 
HETATM   15  H   UNL     1       5.575  34.567  62.696  1.00  0.00     0.169 HD
HETATM   16  O   UNL     1       4.735  31.568  63.411  1.00  0.00    -0.267 OA
BRANCH  14  17
HETATM   17  C   UNL     1       5.503  34.149  64.701  1.00  0.00     0.068 A 
HETATM   18  C   UNL     1       4.514  35.011  65.217  1.00  0.00     0.095 A 
HETATM   19  C   UNL     1       4.596  35.445  66.546  1.00  0.00     0.039 A 
HETATM   20  C   UNL     1       5.648  35.021  67.360  1.00  0.00     0.003 A 
HETATM   21  C   UNL     1       6.619  34.163  66.853  1.00  0.00     0.002 A 
HETATM   22  C   UNL     1       6.548  33.727  65.529  1.00  0.00     0.032 A 
BRANCH  18  23
HETATM   23  O   UNL     1       3.529  35.387  64.332  1.00  0.00    -0.354 OA
HETATM   24  C   UNL     1       3.719  36.626  63.661  1.00  0.00     0.210 C 
ENDBRANCH  18  23
ENDBRANCH  14  17
ENDBRANCH  11  13
BRANCH   1  25
HETATM   25  C   UNL     1       3.580  33.856  60.296  1.00  0.00    -0.028 A 
HETATM   26  C   UNL     1       4.363  34.824  59.651  1.00  0.00     0.010 A 
HETATM   27  C   UNL     1       3.891  36.129  59.480  1.00  0.00     0.007 A 
HETATM   28  C   UNL     1       2.626  36.495  59.952  1.00  0.00    -0.062 A 
HETATM   29  C   UNL     1       2.114  37.895  59.788  1.00  0.00     0.048 C 
HETATM   30  C   UNL     1       1.826  35.528  60.568  1.00  0.00     0.007 A 
HETATM   31  C   UNL     1       2.296  34.222  60.737  1.00  0.00     0.010 A 
ENDBRANCH   1  25
TORSDOF 4
ENDMDL
MODEL 9
REMARK VINA RESULT:      -7.7      3.309      6.530
REMARK  4 active torsions:
REMARK  status: ('A' for Active; 'I' for Inactive)
REMARK    1  A    between atoms: C_5  and  C_6 
REMARK    2  A    between atoms: C_16  and  C_17 
REMARK       I    between atoms: C_17  and  N_18 
REMARK    3  A    between atoms: N_18  and  C_19 
REMARK    4  A    between atoms: C_20  and  O_21 
ROOT
HETATM    1  C   UNL     1       5.326  29.616  51.330  1.00  0.00     0.202 C 
HETATM    2  N   UNL     1       5.460  30.876  50.593  1.00  0.00    -0.083 N 
HETATM    3  C   UNL     1       4.694  31.984  50.836  1.00  0.00     0.726 A 
HETATM    4  N   UNL     1       5.060  32.953  50.037  1.00  0.00    -0.046 NA
HETATM    5  C   UNL     1       6.110  32.394  49.341  1.00  0.00     0.162 A 
HETATM    6  C   UNL     1       6.889  33.154  48.343  1.00  0.00     0.096 C 
HETATM    7  N   UNL     1       6.402  31.124  49.660  1.00  0.00    -0.141 NA
HETATM    8  N   UNL     1       3.782  31.952  51.832  1.00  0.00    -0.192 N 
HETATM    9  C   UNL     1       3.787  30.953  52.806  1.00  0.00     0.037 C 
HETATM   10  C   UNL     1       3.042  31.277  54.078  1.00  0.00     0.070 C 
HETATM   11  C   UNL     1       4.517  29.827  52.603  1.00  0.00     0.062 C 
HETATM   12  H   UNL     1       3.337  32.833  52.080  1.00  0.00     0.184 HD
ENDROOT
BRANCH  11  13
HETATM   13  C   UNL     1       4.758  28.811  53.658  1.00  0.00     0.256 C 
HETATM   14  N   UNL     1       5.919  29.000  54.364  1.00  0.00    -0.321 N 
HETATM   15  H   UNL     1       6.429  29.870  54.242  1.00  0.00     0.169 HD
HETATM   16  O   UNL     1       3.924  27.931  53.825  1.00  0.00    -0.267 OA
BRANCH  14  17
HETATM   17  C   UNL     1       6.542  28.090  55.252  1.00  0.00     0.068 A 
HETATM   18  C   UNL     1       6.706  28.502  56.591  1.00  0.00     0.095 A 
HETATM   19  C   UNL     1       7.372  27.668  57.496  1.00  0.00     0.039 A 
HETATM   20  C   UNL     1       7.866  26.430  57.080  1.00  0.00     0.003 A 
HETATM   21  C   UNL     1       7.695  26.020  55.762  1.00  0.00     0.002 A 
HETATM   22  C   UNL     1       7.036  26.845  54.850  1.00  0.00     0.032 A 
BRANCH  18  23
HETATM   23  O   UNL     1       6.201  29.744  56.898  1.00  0.00    -0.354 OA
HETATM   24  C   UNL     1       6.873  30.466  57.924  1.00  0.00     0.210 C 
ENDBRANCH  18  23
ENDBRANCH  14  17
ENDBRANCH  11  13
BRANCH   1  25
HETATM   25  C   UNL     1       4.706  28.548  50.430  1.00  0.00    -0.028 A 
HETATM   26  C   UNL     1       3.572  28.852  49.661  1.00  0.00     0.010 A 
HETATM   27  C   UNL     1       2.973  27.879  48.856  1.00  0.00     0.007 A 
HETATM   28  C   UNL     1       3.492  26.582  48.801  1.00  0.00    -0.062 A 
HETATM   29  C   UNL     1       2.849  25.525  47.952  1.00  0.00     0.048 C 
HETATM   30  C   UNL     1       4.640  26.279  49.539  1.00  0.00     0.007 A 
HETATM   31  C   UNL     1       5.242  27.250  50.343  1.00  0.00     0.010 A 
ENDBRANCH   1  25
TORSDOF 4
ENDMDL
MODEL 10
REMARK VINA RESULT:      -7.7      6.130      8.949
REMARK  4 active torsions:
REMARK  status: ('A' for Active; 'I' for Inactive)
REMARK    1  A    between atoms: C_5  and  C_6 
REMARK    2  A    between atoms: C_16  and  C_17 
REMARK       I    between atoms: C_17  and  N_18 
REMARK    3  A    between atoms: N_18  and  C_19 
REMARK    4  A    between atoms: C_20  and  O_21 
ROOT
HETATM    1  C   UNL     1       4.497  32.505  61.874  1.00  0.00     0.202 C 
HETATM    2  N   UNL     1       4.230  33.457  62.956  1.00  0.00    -0.083 N 
HETATM    3  C   UNL     1       3.779  34.734  62.752  1.00  0.00     0.726 A 
HETATM    4  N   UNL     1       3.616  35.329  63.905  1.00  0.00    -0.046 NA
HETATM    5  C   UNL     1       3.939  34.340  64.809  1.00  0.00     0.162 A 
HETATM    6  C   UNL     1       3.845  34.543  66.268  1.00  0.00     0.096 C 
HETATM    7  N   UNL     1       4.308  33.168  64.271  1.00  0.00    -0.141 NA
HETATM    8  N   UNL     1       3.522  35.150  61.493  1.00  0.00    -0.192 N 
HETATM    9  C   UNL     1       3.415  34.257  60.427  1.00  0.00     0.037 C 
HETATM   10  C   UNL     1       2.690  34.777  59.210  1.00  0.00     0.070 C 
HETATM   11  C   UNL     1       3.865  32.985  60.574  1.00  0.00     0.062 C 
HETATM   12  H   UNL     1       3.052  36.047  61.391  1.00  0.00     0.184 HD
ENDROOT
BRANCH  11  13
HETATM   13  C   UNL     1       3.604  31.909  59.585  1.00  0.00     0.256 C 
HETATM   14  N   UNL     1       4.376  31.987  58.454  1.00  0.00    -0.321 N 
HETATM   15  H   UNL     1       5.152  32.642  58.436  1.00  0.00     0.169 HD
HETATM   16  O   UNL     1       2.769  31.056  59.856  1.00  0.00    -0.267 OA
BRANCH  14  17
HETATM   17  C   UNL     1       4.203  31.270  57.246  1.00  0.00     0.068 A 
HETATM   18  C   UNL     1       5.130  30.246  56.964  1.00  0.00     0.095 A 
HETATM   19  C   UNL     1       5.045  29.547  55.754  1.00  0.00     0.039 A 
HETATM   20  C   UNL     1       4.042  29.856  54.833  1.00  0.00     0.003 A 
HETATM   21  C   UNL     1       3.121  30.859  55.116  1.00  0.00     0.002 A 
HETATM   22  C   UNL     1       3.200  31.564  56.317  1.00  0.00     0.032 A 
BRANCH  18  23
HETATM   23  O   UNL     1       6.090  30.029  57.926  1.00  0.00    -0.354 OA
HETATM   24  C   UNL     1       7.159  29.159  57.570  1.00  0.00     0.210 C 
ENDBRANCH  18  23
ENDBRANCH  14  17
ENDBRANCH  11  13
BRANCH   1  25
HETATM   25  C   UNL     1       6.003  32.288  61.730  1.00  0.00    -0.028 A 
HETATM   26  C   UNL     1       6.678  31.448  62.628  1.00  0.00     0.010 A 
HETATM   27  C   UNL     1       8.061  31.262  62.531  1.00  0.00     0.007 A 
HETATM   28  C   UNL     1       8.798  31.910  61.536  1.00  0.00    -0.062 A 
HETATM   29  C   UNL     1      10.284  31.730  61.431  1.00  0.00     0.048 C 
HETATM   30  C   UNL     1       8.128  32.723  60.617  1.00  0.00     0.007 A 
HETATM   31  C   UNL     1       6.747  32.909  60.710  1.00  0.00     0.010 A 
ENDBRANCH   1  25
TORSDOF 4
ENDMDL
