MODEL 1
REMARK VINA RESULT:      -9.3      0.000      0.000
REMARK  5 active torsions:
REMARK  status: ('A' for Active; 'I' for Inactive)
REMARK    1  A    between atoms: C_3  and  C_4 
REMARK    2  A    between atoms: C_15  and  C_16 
REMARK       I    between atoms: C_16  and  N_17 
REMARK    3  A    between atoms: N_17  and  C_18 
REMARK    4  A    between atoms: C_18  and  C_19 
REMARK    5  A    between atoms: C_22  and  O_23 
ROOT
HETATM    1  C   UNL     1       3.446  30.258  56.521  1.00  0.00     0.055 C 
HETATM    2  C   UNL     1       4.840  30.420  57.048  1.00  0.00     0.024 A 
HETATM    3  C   UNL     1       5.253  31.269  58.006  1.00  0.00     0.096 A 
HETATM    4  O   UNL     1       6.538  31.346  58.502  1.00  0.00    -0.307 OA
HETATM    5  C   UNL     1       7.527  30.572  57.952  1.00  0.00     0.106 A 
HETATM    6  C   UNL     1       7.251  29.684  56.910  1.00  0.00     0.050 A 
HETATM    7  C   UNL     1       5.864  29.537  56.438  1.00  0.00     0.193 A 
HETATM    8  O   UNL     1       5.577  28.722  55.568  1.00  0.00    -0.287 OA
HETATM    9  C   UNL     1       8.840  30.682  58.443  1.00  0.00     0.066 A 
HETATM   10  C   UNL     1       9.857  29.924  57.832  1.00  0.00     0.020 A 
HETATM   11  C   UNL     1       9.576  29.055  56.777  1.00  0.00     0.002 A 
HETATM   12  C   UNL     1       8.268  28.925  56.321  1.00  0.00     0.018 A 
ENDROOT
BRANCH   9  13
HETATM   13  C   UNL     1       9.245  31.517  59.622  1.00  0.00     0.254 C 
HETATM   14  N   UNL     1       8.596  31.301  60.815  1.00  0.00    -0.353 N 
HETATM   15  H   UNL     1       7.781  30.702  60.843  1.00  0.00     0.163 HD
HETATM   16  O   UNL     1      10.163  32.323  59.509  1.00  0.00    -0.268 OA
BRANCH  14  17
HETATM   17  C   UNL     1       8.990  31.948  62.042  1.00  0.00     0.161 C 
BRANCH  17  18
HETATM   18  C   UNL     1       7.801  32.344  62.875  1.00  0.00    -0.040 A 
HETATM   19  C   UNL     1       6.500  32.020  62.471  1.00  0.00     0.011 A 
HETATM   20  C   UNL     1       5.409  32.356  63.276  1.00  0.00     0.037 A 
HETATM   21  C   UNL     1       5.595  33.015  64.492  1.00  0.00     0.068 A 
HETATM   22  C   UNL     1       6.886  33.374  64.882  1.00  0.00     0.037 A 
HETATM   23  C   UNL     1       7.981  33.045  64.075  1.00  0.00     0.011 A 
BRANCH  21  24
HETATM   24  O   UNL     1       4.449  33.258  65.198  1.00  0.00    -0.356 OA
HETATM   25  C   UNL     1       4.587  34.022  66.390  1.00  0.00     0.210 C 
ENDBRANCH  21  24
ENDBRANCH  17  18
ENDBRANCH  14  17
ENDBRANCH   9  13
BRANCH   3  26
HETATM   26  C   UNL     1       4.360  32.249  58.642  1.00  0.00    -0.002 A 
HETATM   27  C   UNL     1       3.714  31.944  59.845  1.00  0.00     0.014 A 
HETATM   28  C   UNL     1       2.885  32.889  60.455  1.00  0.00     0.001 A 
HETATM   29  C   UNL     1       2.702  34.142  59.868  1.00  0.00     0.000 A 
HETATM   30  C   UNL     1       3.347  34.454  58.672  1.00  0.00     0.001 A 
HETATM   31  C   UNL     1       4.176  33.512  58.062  1.00  0.00     0.014 A 
ENDBRANCH   3  26
TORSDOF 5
ENDMDL
MODEL 2
REMARK VINA RESULT:      -9.0      6.314     11.736
REMARK  5 active torsions:
REMARK  status: ('A' for Active; 'I' for Inactive)
REMARK    1  A    between atoms: C_3  and  C_4 
REMARK    2  A    between atoms: C_15  and  C_16 
REMARK       I    between atoms: C_16  and  N_17 
REMARK    3  A    between atoms: N_17  and  C_18 
REMARK    4  A    between atoms: C_18  and  C_19 
REMARK    5  A    between atoms: C_22  and  O_23 
ROOT
HETATM    1  C   UNL     1       8.743  24.229  57.515  1.00  0.00     0.055 C 
HETATM    2  C   UNL     1       7.921  25.090  56.604  1.00  0.00     0.024 A 
HETATM    3  C   UNL     1       7.404  24.749  55.410  1.00  0.00     0.096 A 
HETATM    4  O   UNL     1       6.604  25.556  54.628  1.00  0.00    -0.307 OA
HETATM    5  C   UNL     1       6.353  26.847  55.017  1.00  0.00     0.106 A 
HETATM    6  C   UNL     1       6.875  27.354  56.209  1.00  0.00     0.050 A 
HETATM    7  C   UNL     1       7.657  26.468  57.087  1.00  0.00     0.193 A 
HETATM    8  O   UNL     1       8.076  26.863  58.170  1.00  0.00    -0.287 OA
HETATM    9  C   UNL     1       5.564  27.672  54.196  1.00  0.00     0.066 A 
HETATM   10  C   UNL     1       5.361  29.012  54.578  1.00  0.00     0.020 A 
HETATM   11  C   UNL     1       5.905  29.516  55.759  1.00  0.00     0.002 A 
HETATM   12  C   UNL     1       6.654  28.684  56.584  1.00  0.00     0.018 A 
ENDROOT
BRANCH   9  13
HETATM   13  C   UNL     1       4.862  27.218  52.950  1.00  0.00     0.254 C 
HETATM   14  N   UNL     1       5.622  26.644  51.958  1.00  0.00    -0.353 N 
HETATM   15  H   UNL     1       6.630  26.667  52.020  1.00  0.00     0.163 HD
HETATM   16  O   UNL     1       3.642  27.324  52.867  1.00  0.00    -0.268 OA
BRANCH  14  17
HETATM   17  C   UNL     1       5.040  26.054  50.778  1.00  0.00     0.161 C 
BRANCH  17  18
HETATM   18  C   UNL     1       4.832  27.069  49.686  1.00  0.00    -0.040 A 
HETATM   19  C   UNL     1       4.013  26.786  48.587  1.00  0.00     0.011 A 
HETATM   20  C   UNL     1       3.794  27.754  47.604  1.00  0.00     0.037 A 
HETATM   21  C   UNL     1       4.385  29.015  47.700  1.00  0.00     0.068 A 
HETATM   22  C   UNL     1       5.232  29.290  48.774  1.00  0.00     0.037 A 
HETATM   23  C   UNL     1       5.459  28.321  49.757  1.00  0.00     0.011 A 
BRANCH  21  24
HETATM   24  O   UNL     1       4.066  29.880  46.689  1.00  0.00    -0.356 OA
HETATM   25  C   UNL     1       2.694  30.229  46.562  1.00  0.00     0.210 C 
ENDBRANCH  21  24
ENDBRANCH  17  18
ENDBRANCH  14  17
ENDBRANCH   9  13
BRANCH   3  26
HETATM   26  C   UNL     1       7.649  23.444  54.779  1.00  0.00    -0.002 A 
HETATM   27  C   UNL     1       7.576  22.266  55.531  1.00  0.00     0.014 A 
HETATM   28  C   UNL     1       7.788  21.029  54.919  1.00  0.00     0.001 A 
HETATM   29  C   UNL     1       8.069  20.963  53.554  1.00  0.00     0.000 A 
HETATM   30  C   UNL     1       8.138  22.131  52.798  1.00  0.00     0.001 A 
HETATM   31  C   UNL     1       7.926  23.368  53.407  1.00  0.00     0.014 A 
ENDBRANCH   3  26
TORSDOF 5
ENDMDL
MODEL 3
REMARK VINA RESULT:      -8.9      2.017      7.731
REMARK  5 active torsions:
REMARK  status: ('A' for Active; 'I' for Inactive)
REMARK    1  A    between atoms: C_3  and  C_4 
REMARK    2  A    between atoms: C_15  and  C_16 
REMARK       I    between atoms: C_16  and  N_17 
REMARK    3  A    between atoms: N_17  and  C_18 
REMARK    4  A    between atoms: C_18  and  C_19 
REMARK    5  A    between atoms: C_22  and  O_23 
ROOT
HETATM    1  C   UNL     1       7.248  33.195  64.736  1.00  0.00     0.055 C 
HETATM    2  C   UNL     1       6.251  33.244  63.617  1.00  0.00     0.024 A 
HETATM    3  C   UNL     1       6.398  32.752  62.375  1.00  0.00     0.096 A 
HETATM    4  O   UNL     1       5.431  32.769  61.391  1.00  0.00    -0.307 OA
HETATM    5  C   UNL     1       4.236  33.399  61.623  1.00  0.00     0.106 A 
HETATM    6  C   UNL     1       3.968  34.005  62.852  1.00  0.00     0.050 A 
HETATM    7  C   UNL     1       4.964  33.912  63.933  1.00  0.00     0.193 A 
HETATM    8  O   UNL     1       4.735  34.379  65.043  1.00  0.00    -0.287 OA
HETATM    9  C   UNL     1       3.270  33.440  60.602  1.00  0.00     0.066 A 
HETATM   10  C   UNL     1       2.069  34.139  60.833  1.00  0.00     0.020 A 
HETATM   11  C   UNL     1       1.819  34.760  62.057  1.00  0.00     0.002 A 
HETATM   12  C   UNL     1       2.765  34.684  63.074  1.00  0.00     0.018 A 
ENDROOT
BRANCH   9  13
HETATM   13  C   UNL     1       3.392  32.740  59.280  1.00  0.00     0.254 C 
HETATM   14  N   UNL     1       3.843  31.441  59.280  1.00  0.00    -0.353 N 
HETATM   15  H   UNL     1       4.210  31.037  60.131  1.00  0.00     0.163 HD
HETATM   16  O   UNL     1       3.047  33.317  58.253  1.00  0.00    -0.268 OA
BRANCH  14  17
HETATM   17  C   UNL     1       3.875  30.630  58.088  1.00  0.00     0.161 C 
BRANCH  17  18
HETATM   18  C   UNL     1       5.248  30.072  57.826  1.00  0.00    -0.040 A 
HETATM   19  C   UNL     1       6.396  30.820  58.114  1.00  0.00     0.011 A 
HETATM   20  C   UNL     1       7.663  30.272  57.907  1.00  0.00     0.037 A 
HETATM   21  C   UNL     1       7.809  28.974  57.412  1.00  0.00     0.068 A 
HETATM   22  C   UNL     1       6.668  28.238  57.088  1.00  0.00     0.037 A 
HETATM   23  C   UNL     1       5.397  28.787  57.289  1.00  0.00     0.011 A 
BRANCH  21  24
HETATM   24  O   UNL     1       9.101  28.547  57.284  1.00  0.00    -0.356 OA
HETATM   25  C   UNL     1      10.104  29.555  57.264  1.00  0.00     0.210 C 
ENDBRANCH  21  24
ENDBRANCH  17  18
ENDBRANCH  14  17
ENDBRANCH   9  13
BRANCH   3  26
HETATM   26  C   UNL     1       7.646  32.132  61.906  1.00  0.00    -0.002 A 
HETATM   27  C   UNL     1       8.101  30.935  62.471  1.00  0.00     0.014 A 
HETATM   28  C   UNL     1       9.276  30.341  62.005  1.00  0.00     0.001 A 
HETATM   29  C   UNL     1       9.997  30.937  60.969  1.00  0.00     0.000 A 
HETATM   30  C   UNL     1       9.547  32.125  60.397  1.00  0.00     0.001 A 
HETATM   31  C   UNL     1       8.373  32.720  60.861  1.00  0.00     0.014 A 
ENDBRANCH   3  26
TORSDOF 5
ENDMDL
MODEL 4
REMARK VINA RESULT:      -8.9      2.347      8.077
REMARK  5 active torsions:
REMARK  status: ('A' for Active; 'I' for Inactive)
REMARK    1  A    between atoms: C_3  and  C_4 
REMARK    2  A    between atoms: C_15  and  C_16 
REMARK       I    between atoms: C_16  and  N_17 
REMARK    3  A    between atoms: N_17  and  C_18 
REMARK    4  A    between atoms: C_18  and  C_19 
REMARK    5  A    between atoms: C_22  and  O_23 
ROOT
HETATM    1  C   UNL     1       9.621  31.626  61.359  1.00  0.00     0.055 C 
HETATM    2  C   UNL     1       8.275  31.791  60.720  1.00  0.00     0.024 A 
HETATM    3  C   UNL     1       7.879  31.317  59.525  1.00  0.00     0.096 A 
HETATM    4  O   UNL     1       6.610  31.445  58.998  1.00  0.00    -0.307 OA
HETATM    5  C   UNL     1       5.664  32.174  59.672  1.00  0.00     0.106 A 
HETATM    6  C   UNL     1       5.955  32.772  60.900  1.00  0.00     0.050 A 
HETATM    7  C   UNL     1       7.281  32.564  61.505  1.00  0.00     0.193 A 
HETATM    8  O   UNL     1       7.549  33.023  62.610  1.00  0.00    -0.287 OA
HETATM    9  C   UNL     1       4.384  32.326  59.110  1.00  0.00     0.066 A 
HETATM   10  C   UNL     1       3.439  33.124  59.783  1.00  0.00     0.020 A 
HETATM   11  C   UNL     1       3.746  33.735  60.999  1.00  0.00     0.002 A 
HETATM   12  C   UNL     1       5.003  33.551  61.566  1.00  0.00     0.018 A 
ENDROOT
BRANCH   9  13
HETATM   13  C   UNL     1       3.915  31.650  57.855  1.00  0.00     0.254 C 
HETATM   14  N   UNL     1       4.460  30.427  57.542  1.00  0.00    -0.353 N 
HETATM   15  H   UNL     1       5.249  30.078  58.069  1.00  0.00     0.163 HD
HETATM   16  O   UNL     1       3.036  32.173  57.175  1.00  0.00    -0.268 OA
BRANCH  14  17
HETATM   17  C   UNL     1       3.992  29.628  56.436  1.00  0.00     0.161 C 
BRANCH  17  18
HETATM   18  C   UNL     1       4.987  28.567  56.049  1.00  0.00    -0.040 A 
HETATM   19  C   UNL     1       5.030  27.342  56.725  1.00  0.00     0.011 A 
HETATM   20  C   UNL     1       5.929  26.350  56.326  1.00  0.00     0.037 A 
HETATM   21  C   UNL     1       6.794  26.561  55.251  1.00  0.00     0.068 A 
HETATM   22  C   UNL     1       6.782  27.794  54.598  1.00  0.00     0.037 A 
HETATM   23  C   UNL     1       5.886  28.792  54.999  1.00  0.00     0.011 A 
BRANCH  21  24
HETATM   24  O   UNL     1       7.602  25.500  54.944  1.00  0.00    -0.356 OA
HETATM   25  C   UNL     1       6.959  24.244  54.766  1.00  0.00     0.210 C 
ENDBRANCH  21  24
ENDBRANCH  17  18
ENDBRANCH  14  17
ENDBRANCH   9  13
BRANCH   3  26
HETATM   26  C   UNL     1       8.781  30.599  58.613  1.00  0.00    -0.002 A 
HETATM   27  C   UNL     1       8.401  29.372  58.059  1.00  0.00     0.014 A 
HETATM   28  C   UNL     1       9.255  28.707  57.175  1.00  0.00     0.001 A 
HETATM   29  C   UNL     1      10.488  29.267  56.840  1.00  0.00     0.000 A 
HETATM   30  C   UNL     1      10.870  30.492  57.383  1.00  0.00     0.001 A 
HETATM   31  C   UNL     1      10.019  31.159  58.265  1.00  0.00     0.014 A 
ENDBRANCH   3  26
TORSDOF 5
ENDMDL
MODEL 5
REMARK VINA RESULT:      -8.8      1.443      6.512
REMARK  5 active torsions:
REMARK  status: ('A' for Active; 'I' for Inactive)
REMARK    1  A    between atoms: C_3  and  C_4 
REMARK    2  A    between atoms: C_15  and  C_16 
REMARK       I    between atoms: C_16  and  N_17 
REMARK    3  A    between atoms: N_17  and  C_18 
REMARK    4  A    between atoms: C_18  and  C_19 
REMARK    5  A    between atoms: C_22  and  O_23 
ROOT
HETATM    1  C   UNL     1       2.625  34.280  60.292  1.00  0.00     0.055 C 
HETATM    2  C   UNL     1       3.948  33.768  60.779  1.00  0.00     0.024 A 
HETATM    3  C   UNL     1       4.814  32.989  60.108  1.00  0.00     0.096 A 
HETATM    4  O   UNL     1       6.049  32.586  60.575  1.00  0.00    -0.307 OA
HETATM    5  C   UNL     1       6.435  32.913  61.849  1.00  0.00     0.106 A 
HETATM    6  C   UNL     1       5.607  33.672  62.679  1.00  0.00     0.050 A 
HETATM    7  C   UNL     1       4.327  34.176  62.154  1.00  0.00     0.193 A 
HETATM    8  O   UNL     1       3.606  34.897  62.835  1.00  0.00    -0.287 OA
HETATM    9  C   UNL     1       7.680  32.469  62.326  1.00  0.00     0.066 A 
HETATM   10  C   UNL     1       8.040  32.763  63.655  1.00  0.00     0.020 A 
HETATM   11  C   UNL     1       7.198  33.503  64.485  1.00  0.00     0.002 A 
HETATM   12  C   UNL     1       5.983  33.969  63.994  1.00  0.00     0.018 A 
ENDROOT
BRANCH   9  13
HETATM   13  C   UNL     1       8.702  31.740  61.502  1.00  0.00     0.254 C 
HETATM   14  N   UNL     1       8.888  32.148  60.202  1.00  0.00    -0.353 N 
HETATM   15  H   UNL     1       8.252  32.817  59.789  1.00  0.00     0.163 HD
HETATM   16  O   UNL     1       9.369  30.846  62.014  1.00  0.00    -0.268 OA
BRANCH  14  17
HETATM   17  C   UNL     1       9.929  31.611  59.362  1.00  0.00     0.161 C 
BRANCH  17  18
HETATM   18  C   UNL     1       9.372  30.759  58.253  1.00  0.00    -0.040 A 
HETATM   19  C   UNL     1       7.997  30.513  58.157  1.00  0.00     0.011 A 
HETATM   20  C   UNL     1       7.490  29.758  57.097  1.00  0.00     0.037 A 
HETATM   21  C   UNL     1       8.340  29.238  56.119  1.00  0.00     0.068 A 
HETATM   22  C   UNL     1       9.715  29.449  56.230  1.00  0.00     0.037 A 
HETATM   23  C   UNL     1      10.227  30.200  57.294  1.00  0.00     0.011 A 
BRANCH  21  24
HETATM   24  O   UNL     1       7.715  28.544  55.120  1.00  0.00    -0.356 OA
HETATM   25  C   UNL     1       6.297  28.634  55.076  1.00  0.00     0.210 C 
ENDBRANCH  21  24
ENDBRANCH  17  18
ENDBRANCH  14  17
ENDBRANCH   9  13
BRANCH   3  26
HETATM   26  C   UNL     1       4.533  32.452  58.769  1.00  0.00    -0.002 A 
HETATM   27  C   UNL     1       4.979  33.125  57.626  1.00  0.00     0.014 A 
HETATM   28  C   UNL     1       4.727  32.597  56.358  1.00  0.00     0.001 A 
HETATM   29  C   UNL     1       4.032  31.394  56.226  1.00  0.00     0.000 A 
HETATM   30  C   UNL     1       3.590  30.716  57.361  1.00  0.00     0.001 A 
HETATM   31  C   UNL     1       3.842  31.241  58.629  1.00  0.00     0.014 A 
ENDBRANCH   3  26
TORSDOF 5
ENDMDL
MODEL 6
REMARK VINA RESULT:      -8.5      4.659     10.115
REMARK  5 active torsions:
REMARK  status: ('A' for Active; 'I' for Inactive)
REMARK    1  A    between atoms: C_3  and  C_4 
REMARK    2  A    between atoms: C_15  and  C_16 
REMARK       I    between atoms: C_16  and  N_17 
REMARK    3  A    between atoms: N_17  and  C_18 
REMARK    4  A    between atoms: C_18  and  C_19 
REMARK    5  A    between atoms: C_22  and  O_23 
ROOT
HETATM    1  C   UNL     1       8.160  26.211  56.904  1.00  0.00     0.055 C 
HETATM    2  C   UNL     1       7.329  27.410  56.561  1.00  0.00     0.024 A 
HETATM    3  C   UNL     1       6.568  27.585  55.466  1.00  0.00     0.096 A 
HETATM    4  O   UNL     1       5.773  28.685  55.216  1.00  0.00    -0.307 OA
HETATM    5  C   UNL     1       5.787  29.746  56.084  1.00  0.00     0.106 A 
HETATM    6  C   UNL     1       6.577  29.724  57.235  1.00  0.00     0.050 A 
HETATM    7  C   UNL     1       7.360  28.517  57.548  1.00  0.00     0.193 A 
HETATM    8  O   UNL     1       8.015  28.440  58.582  1.00  0.00    -0.287 OA
HETATM    9  C   UNL     1       4.998  30.876  55.803  1.00  0.00     0.066 A 
HETATM   10  C   UNL     1       5.066  31.982  56.672  1.00  0.00     0.020 A 
HETATM   11  C   UNL     1       5.875  31.960  57.808  1.00  0.00     0.002 A 
HETATM   12  C   UNL     1       6.624  30.824  58.098  1.00  0.00     0.018 A 
ENDROOT
BRANCH   9  13
HETATM   13  C   UNL     1       4.031  30.981  54.660  1.00  0.00     0.254 C 
HETATM   14  N   UNL     1       4.540  30.944  53.384  1.00  0.00    -0.353 N 
HETATM   15  H   UNL     1       5.539  30.990  53.239  1.00  0.00     0.163 HD
HETATM   16  O   UNL     1       2.826  31.047  54.888  1.00  0.00    -0.268 OA
BRANCH  14  17
HETATM   17  C   UNL     1       3.698  30.904  52.214  1.00  0.00     0.161 C 
BRANCH  17  18
HETATM   18  C   UNL     1       3.958  29.682  51.375  1.00  0.00    -0.040 A 
HETATM   19  C   UNL     1       3.078  29.312  50.351  1.00  0.00     0.011 A 
HETATM   20  C   UNL     1       3.356  28.201  49.552  1.00  0.00     0.037 A 
HETATM   21  C   UNL     1       4.510  27.442  49.759  1.00  0.00     0.068 A 
HETATM   22  C   UNL     1       5.371  27.784  50.803  1.00  0.00     0.037 A 
HETATM   23  C   UNL     1       5.093  28.894  51.609  1.00  0.00     0.011 A 
BRANCH  21  24
HETATM   24  O   UNL     1       4.679  26.400  48.890  1.00  0.00    -0.356 OA
HETATM   25  C   UNL     1       3.496  25.765  48.423  1.00  0.00     0.210 C 
ENDBRANCH  21  24
ENDBRANCH  17  18
ENDBRANCH  14  17
ENDBRANCH   9  13
BRANCH   3  26
HETATM   26  C   UNL     1       6.504  26.603  54.374  1.00  0.00    -0.002 A 
HETATM   27  C   UNL     1       7.595  26.421  53.517  1.00  0.00     0.014 A 
HETATM   28  C   UNL     1       7.534  25.470  52.496  1.00  0.00     0.001 A 
HETATM   29  C   UNL     1       6.385  24.695  52.330  1.00  0.00     0.000 A 
HETATM   30  C   UNL     1       5.297  24.867  53.183  1.00  0.00     0.001 A 
HETATM   31  C   UNL     1       5.356  25.816  54.204  1.00  0.00     0.014 A 
ENDBRANCH   3  26
TORSDOF 5
ENDMDL
MODEL 7
REMARK VINA RESULT:      -8.5      5.832      9.622
REMARK  5 active torsions:
REMARK  status: ('A' for Active; 'I' for Inactive)
REMARK    1  A    between atoms: C_3  and  C_4 
REMARK    2  A    between atoms: C_15  and  C_16 
REMARK       I    between atoms: C_16  and  N_17 
REMARK    3  A    between atoms: N_17  and  C_18 
REMARK    4  A    between atoms: C_18  and  C_19 
REMARK    5  A    between atoms: C_22  and  O_23 
ROOT
HETATM    1  C   UNL     1       4.570  31.269  56.367  1.00  0.00     0.055 C 
HETATM    2  C   UNL     1       4.500  30.506  55.078  1.00  0.00     0.024 A 
HETATM    3  C   UNL     1       5.134  29.358  54.778  1.00  0.00     0.096 A 
HETATM    4  O   UNL     1       4.998  28.658  53.597  1.00  0.00    -0.307 OA
HETATM    5  C   UNL     1       4.229  29.174  52.585  1.00  0.00     0.106 A 
HETATM    6  C   UNL     1       3.558  30.389  52.739  1.00  0.00     0.050 A 
HETATM    7  C   UNL     1       3.632  31.094  54.029  1.00  0.00     0.193 A 
HETATM    8  O   UNL     1       3.005  32.131  54.218  1.00  0.00    -0.287 OA
HETATM    9  C   UNL     1       4.124  28.469  51.374  1.00  0.00     0.066 A 
HETATM   10  C   UNL     1       3.378  29.036  50.322  1.00  0.00     0.020 A 
HETATM   11  C   UNL     1       2.729  30.261  50.477  1.00  0.00     0.002 A 
HETATM   12  C   UNL     1       2.809  30.935  51.691  1.00  0.00     0.018 A 
ENDROOT
BRANCH   9  13
HETATM   13  C   UNL     1       4.707  27.109  51.121  1.00  0.00     0.254 C 
HETATM   14  N   UNL     1       4.713  26.210  52.161  1.00  0.00    -0.353 N 
HETATM   15  H   UNL     1       4.463  26.516  53.092  1.00  0.00     0.163 HD
HETATM   16  O   UNL     1       5.114  26.821  49.999  1.00  0.00    -0.268 OA
BRANCH  14  17
HETATM   17  C   UNL     1       5.125  24.838  51.999  1.00  0.00     0.161 C 
BRANCH  17  18
HETATM   18  C   UNL     1       6.179  24.446  52.999  1.00  0.00    -0.040 A 
HETATM   19  C   UNL     1       6.059  24.804  54.348  1.00  0.00     0.011 A 
HETATM   20  C   UNL     1       7.023  24.395  55.272  1.00  0.00     0.037 A 
HETATM   21  C   UNL     1       8.117  23.626  54.871  1.00  0.00     0.068 A 
HETATM   22  C   UNL     1       8.262  23.299  53.522  1.00  0.00     0.037 A 
HETATM   23  C   UNL     1       7.301  23.712  52.592  1.00  0.00     0.011 A 
BRANCH  21  24
HETATM   24  O   UNL     1       8.970  23.268  55.878  1.00  0.00    -0.356 OA
HETATM   25  C   UNL     1       8.659  23.754  57.178  1.00  0.00     0.210 C 
ENDBRANCH  21  24
ENDBRANCH  17  18
ENDBRANCH  14  17
ENDBRANCH   9  13
BRANCH   3  26
HETATM   26  C   UNL     1       6.080  28.707  55.695  1.00  0.00    -0.002 A 
HETATM   27  C   UNL     1       5.634  27.751  56.615  1.00  0.00     0.014 A 
HETATM   28  C   UNL     1       6.542  27.120  57.468  1.00  0.00     0.001 A 
HETATM   29  C   UNL     1       7.900  27.438  57.402  1.00  0.00     0.000 A 
HETATM   30  C   UNL     1       8.352  28.384  56.484  1.00  0.00     0.001 A 
HETATM   31  C   UNL     1       7.446  29.015  55.631  1.00  0.00     0.014 A 
ENDBRANCH   3  26
TORSDOF 5
ENDMDL
MODEL 8
REMARK VINA RESULT:      -8.4      2.101      4.763
REMARK  5 active torsions:
REMARK  status: ('A' for Active; 'I' for Inactive)
REMARK    1  A    between atoms: C_3  and  C_4 
REMARK    2  A    between atoms: C_15  and  C_16 
REMARK       I    between atoms: C_16  and  N_17 
REMARK    3  A    between atoms: N_17  and  C_18 
REMARK    4  A    between atoms: C_18  and  C_19 
REMARK    5  A    between atoms: C_22  and  O_23 
ROOT
HETATM    1  C   UNL     1      10.333  30.130  57.756  1.00  0.00     0.055 C 
HETATM    2  C   UNL     1       8.854  30.049  57.524  1.00  0.00     0.024 A 
HETATM    3  C   UNL     1       7.878  30.478  58.344  1.00  0.00     0.096 A 
HETATM    4  O   UNL     1       6.527  30.435  58.065  1.00  0.00    -0.307 OA
HETATM    5  C   UNL     1       6.090  29.843  56.909  1.00  0.00     0.106 A 
HETATM    6  C   UNL     1       6.993  29.303  55.990  1.00  0.00     0.050 A 
HETATM    7  C   UNL     1       8.438  29.425  56.244  1.00  0.00     0.193 A 
HETATM    8  O   UNL     1       9.258  29.018  55.429  1.00  0.00    -0.287 OA
HETATM    9  C   UNL     1       4.710  29.775  56.650  1.00  0.00     0.066 A 
HETATM   10  C   UNL     1       4.271  29.114  55.487  1.00  0.00     0.020 A 
HETATM   11  C   UNL     1       5.179  28.558  54.585  1.00  0.00     0.002 A 
HETATM   12  C   UNL     1       6.544  28.662  54.831  1.00  0.00     0.018 A 
ENDROOT
BRANCH   9  13
HETATM   13  C   UNL     1       3.647  30.407  57.501  1.00  0.00     0.254 C 
HETATM   14  N   UNL     1       3.813  30.372  58.866  1.00  0.00    -0.353 N 
HETATM   15  H   UNL     1       4.553  29.812  59.268  1.00  0.00     0.163 HD
HETATM   16  O   UNL     1       2.698  30.973  56.967  1.00  0.00    -0.268 OA
BRANCH  14  17
HETATM   17  C   UNL     1       2.928  31.059  59.773  1.00  0.00     0.161 C 
BRANCH  17  18
HETATM   18  C   UNL     1       3.603  32.226  60.441  1.00  0.00    -0.040 A 
HETATM   19  C   UNL     1       3.907  33.389  59.722  1.00  0.00     0.011 A 
HETATM   20  C   UNL     1       4.493  34.481  60.366  1.00  0.00     0.037 A 
HETATM   21  C   UNL     1       4.785  34.434  61.731  1.00  0.00     0.068 A 
HETATM   22  C   UNL     1       4.520  33.264  62.443  1.00  0.00     0.037 A 
HETATM   23  C   UNL     1       3.938  32.166  61.800  1.00  0.00     0.011 A 
BRANCH  21  24
HETATM   24  O   UNL     1       5.330  35.579  62.244  1.00  0.00    -0.356 OA
HETATM   25  C   UNL     1       5.575  35.592  63.645  1.00  0.00     0.210 C 
ENDBRANCH  21  24
ENDBRANCH  17  18
ENDBRANCH  14  17
ENDBRANCH   9  13
BRANCH   3  26
HETATM   26  C   UNL     1       8.146  31.047  59.673  1.00  0.00    -0.002 A 
HETATM   27  C   UNL     1       7.654  32.312  60.016  1.00  0.00     0.014 A 
HETATM   28  C   UNL     1       7.894  32.836  61.288  1.00  0.00     0.001 A 
HETATM   29  C   UNL     1       8.620  32.097  62.223  1.00  0.00     0.000 A 
HETATM   30  C   UNL     1       9.107  30.835  61.891  1.00  0.00     0.001 A 
HETATM   31  C   UNL     1       8.869  30.309  60.621  1.00  0.00     0.014 A 
ENDBRANCH   3  26
TORSDOF 5
ENDMDL
MODEL 9
REMARK VINA RESULT:      -8.4      7.013     12.279
REMARK  5 active torsions:
REMARK  status: ('A' for Active; 'I' for Inactive)
REMARK    1  A    between atoms: C_3  and  C_4 
REMARK    2  A    between atoms: C_15  and  C_16 
REMARK       I    between atoms: C_16  and  N_17 
REMARK    3  A    between atoms: N_17  and  C_18 
REMARK    4  A    between atoms: C_18  and  C_19 
REMARK    5  A    between atoms: C_22  and  O_23 
ROOT
HETATM    1  C   UNL     1       6.112  25.435  57.175  1.00  0.00     0.055 C 
HETATM    2  C   UNL     1       5.827  26.196  55.915  1.00  0.00     0.024 A 
HETATM    3  C   UNL     1       6.178  25.854  54.662  1.00  0.00     0.096 A 
HETATM    4  O   UNL     1       5.845  26.557  53.522  1.00  0.00    -0.307 OA
HETATM    5  C   UNL     1       5.174  27.747  53.628  1.00  0.00     0.106 A 
HETATM    6  C   UNL     1       4.796  28.252  54.874  1.00  0.00     0.050 A 
HETATM    7  C   UNL     1       5.073  27.462  56.085  1.00  0.00     0.193 A 
HETATM    8  O   UNL     1       4.699  27.846  57.188  1.00  0.00    -0.287 OA
HETATM    9  C   UNL     1       4.869  28.471  52.463  1.00  0.00     0.066 A 
HETATM   10  C   UNL     1       4.229  29.720  52.588  1.00  0.00     0.020 A 
HETATM   11  C   UNL     1       3.875  30.227  53.839  1.00  0.00     0.002 A 
HETATM   12  C   UNL     1       4.148  29.487  54.985  1.00  0.00     0.018 A 
ENDROOT
BRANCH   9  13
HETATM   13  C   UNL     1       5.125  27.990  51.064  1.00  0.00     0.254 C 
HETATM   14  N   UNL     1       4.508  26.829  50.662  1.00  0.00    -0.353 N 
HETATM   15  H   UNL     1       4.020  26.258  51.339  1.00  0.00     0.163 HD
HETATM   16  O   UNL     1       5.828  28.657  50.311  1.00  0.00    -0.268 OA
BRANCH  14  17
HETATM   17  C   UNL     1       4.575  26.344  49.306  1.00  0.00     0.161 C 
BRANCH  17  18
HETATM   18  C   UNL     1       3.338  26.690  48.523  1.00  0.00    -0.040 A 
HETATM   19  C   UNL     1       2.951  25.926  47.415  1.00  0.00     0.011 A 
HETATM   20  C   UNL     1       1.776  26.233  46.725  1.00  0.00     0.037 A 
HETATM   21  C   UNL     1       0.970  27.300  47.126  1.00  0.00     0.068 A 
HETATM   22  C   UNL     1       1.370  28.088  48.206  1.00  0.00     0.037 A 
HETATM   23  C   UNL     1       2.550  27.787  48.896  1.00  0.00     0.011 A 
BRANCH  21  24
HETATM   24  O   UNL     1      -0.167  27.475  46.385  1.00  0.00    -0.356 OA
HETATM   25  C   UNL     1      -0.576  28.817  46.157  1.00  0.00     0.210 C 
ENDBRANCH  21  24
ENDBRANCH  17  18
ENDBRANCH  14  17
ENDBRANCH   9  13
BRANCH   3  26
HETATM   26  C   UNL     1       6.989  24.667  54.357  1.00  0.00    -0.002 A 
HETATM   27  C   UNL     1       6.786  23.954  53.170  1.00  0.00     0.014 A 
HETATM   28  C   UNL     1       7.575  22.840  52.877  1.00  0.00     0.001 A 
HETATM   29  C   UNL     1       8.573  22.436  53.766  1.00  0.00     0.000 A 
HETATM   30  C   UNL     1       8.785  23.145  54.947  1.00  0.00     0.001 A 
HETATM   31  C   UNL     1       7.998  24.259  55.241  1.00  0.00     0.014 A 
ENDBRANCH   3  26
TORSDOF 5
ENDMDL
MODEL 10
REMARK VINA RESULT:      -8.2      2.653      5.340
REMARK  5 active torsions:
REMARK  status: ('A' for Active; 'I' for Inactive)
REMARK    1  A    between atoms: C_3  and  C_4 
REMARK    2  A    between atoms: C_15  and  C_16 
REMARK       I    between atoms: C_16  and  N_17 
REMARK    3  A    between atoms: N_17  and  C_18 
REMARK    4  A    between atoms: C_18  and  C_19 
REMARK    5  A    between atoms: C_22  and  O_23 
ROOT
HETATM    1  C   UNL     1       9.714  31.621  61.433  1.00  0.00     0.055 C 
HETATM    2  C   UNL     1       8.438  31.704  60.649  1.00  0.00     0.024 A 
HETATM    3  C   UNL     1       7.315  32.359  60.992  1.00  0.00     0.096 A 
HETATM    4  O   UNL     1       6.180  32.456  60.212  1.00  0.00    -0.307 OA
HETATM    5  C   UNL     1       6.114  31.782  59.020  1.00  0.00     0.106 A 
HETATM    6  C   UNL     1       7.189  31.015  58.566  1.00  0.00     0.050 A 
HETATM    7  C   UNL     1       8.432  30.980  59.354  1.00  0.00     0.193 A 
HETATM    8  O   UNL     1       9.416  30.368  58.953  1.00  0.00    -0.287 OA
HETATM    9  C   UNL     1       4.941  31.861  58.249  1.00  0.00     0.066 A 
HETATM   10  C   UNL     1       4.863  31.119  57.055  1.00  0.00     0.020 A 
HETATM   11  C   UNL     1       5.934  30.338  56.620  1.00  0.00     0.002 A 
HETATM   12  C   UNL     1       7.105  30.294  57.370  1.00  0.00     0.018 A 
ENDROOT
BRANCH   9  13
HETATM   13  C   UNL     1       3.761  32.731  58.573  1.00  0.00     0.254 C 
HETATM   14  N   UNL     1       3.528  33.030  59.895  1.00  0.00    -0.353 N 
HETATM   15  H   UNL     1       4.053  32.557  60.618  1.00  0.00     0.163 HD
HETATM   16  O   UNL     1       3.074  33.186  57.664  1.00  0.00    -0.268 OA
BRANCH  14  17
HETATM   17  C   UNL     1       2.507  33.959  60.312  1.00  0.00     0.161 C 
BRANCH  17  18
HETATM   18  C   UNL     1       3.095  35.200  60.929  1.00  0.00    -0.040 A 
HETATM   19  C   UNL     1       3.976  36.013  60.207  1.00  0.00     0.011 A 
HETATM   20  C   UNL     1       4.479  37.185  60.777  1.00  0.00     0.037 A 
HETATM   21  C   UNL     1       4.113  37.565  62.070  1.00  0.00     0.068 A 
HETATM   22  C   UNL     1       3.265  36.739  62.808  1.00  0.00     0.037 A 
HETATM   23  C   UNL     1       2.764  35.561  62.242  1.00  0.00     0.011 A 
BRANCH  21  24
HETATM   24  O   UNL     1       4.651  38.748  62.498  1.00  0.00    -0.356 OA
HETATM   25  C   UNL     1       5.784  38.658  63.352  1.00  0.00     0.210 C 
ENDBRANCH  21  24
ENDBRANCH  17  18
ENDBRANCH  14  17
ENDBRANCH   9  13
BRANCH   3  26
HETATM   26  C   UNL     1       7.158  33.055  62.277  1.00  0.00    -0.002 A 
HETATM   27  C   UNL     1       6.412  34.236  62.359  1.00  0.00     0.014 A 
HETATM   28  C   UNL     1       6.249  34.879  63.588  1.00  0.00     0.001 A 
HETATM   29  C   UNL     1       6.827  34.343  64.739  1.00  0.00     0.000 A 
HETATM   30  C   UNL     1       7.566  33.165  64.666  1.00  0.00     0.001 A 
HETATM   31  C   UNL     1       7.730  32.520  63.440  1.00  0.00     0.014 A 
ENDBRANCH   3  26
TORSDOF 5
ENDMDL
