MODEL 1
REMARK VINA RESULT:      -8.7      0.000      0.000
REMARK  3 active torsions:
REMARK  status: ('A' for Active; 'I' for Inactive)
REMARK    1  A    between atoms: C_4  and  N_5 
REMARK       I    between atoms: N_5  and  C_6 
REMARK    2  A    between atoms: C_6  and  C_7 
REMARK    3  A    between atoms: C_7  and  C_8 
ROOT
HETATM    1  C   UNL     1       7.202  24.994  55.224  1.00  0.00     0.286 C 
HETATM    2  N   UNL     1       7.143  23.705  54.412  1.00  0.00    -0.056 N 
HETATM    3  H   UNL     1       6.499  23.074  54.936  1.00  0.00     0.278 HD
HETATM    4  H   UNL     1       6.704  23.871  53.500  1.00  0.00     0.278 HD
HETATM    5  C   UNL     1       8.502  23.069  54.263  1.00  0.00     0.209 C 
HETATM    6  C   UNL     1       9.071  22.755  55.671  1.00  0.00     0.115 C 
HETATM    7  N   UNL     1       8.986  23.906  56.571  1.00  0.00    -0.353 N 
HETATM    8  C   UNL     1       7.969  24.831  56.555  1.00  0.00     0.249 C 
HETATM    9  O   UNL     1       7.773  25.553  57.525  1.00  0.00    -0.271 OA
HETATM   10  C   UNL     1       8.386  21.832  53.371  1.00  0.00     0.035 C 
HETATM   11  C   UNL     1       7.704  20.655  54.061  1.00  0.00     0.002 C 
HETATM   12  C   UNL     1       8.372  20.329  55.391  1.00  0.00     0.002 C 
HETATM   13  C   UNL     1       8.394  21.539  56.319  1.00  0.00     0.027 C 
HETATM   14  H   UNL     1       9.466  23.850  57.468  1.00  0.00     0.163 HD
ENDROOT
BRANCH   1  15
HETATM   15  C   UNL     1       5.802  25.580  55.438  1.00  0.00     0.146 C 
BRANCH  15  16
HETATM   16  C   UNL     1       5.564  26.744  54.511  1.00  0.00     0.224 C 
HETATM   17  N   UNL     1       6.041  27.988  54.775  1.00  0.00    -0.327 N 
HETATM   18  H   UNL     1       5.657  28.687  54.145  1.00  0.00     0.169 HD
HETATM   19  O   UNL     1       4.925  26.544  53.469  1.00  0.00    -0.273 OA
BRANCH  17  20
HETATM   20  C   UNL     1       6.926  28.492  55.749  1.00  0.00     0.035 A 
HETATM   21  C   UNL     1       8.275  28.786  55.533  1.00  0.00     0.036 A 
HETATM   22  C   UNL     1       9.080  29.296  56.568  1.00  0.00    -0.060 A 
HETATM   23  C   UNL     1      10.519  29.644  56.319  1.00  0.00     0.048 C 
HETATM   24  C   UNL     1       8.512  29.545  57.819  1.00  0.00     0.007 A 
HETATM   25  C   UNL     1       7.164  29.281  58.039  1.00  0.00     0.003 A 
HETATM   26  C   UNL     1       6.377  28.765  57.008  1.00  0.00     0.029 A 
ENDBRANCH  17  20
ENDBRANCH  15  16
ENDBRANCH   1  15
TORSDOF 3
ENDMDL
MODEL 2
REMARK VINA RESULT:      -8.6      2.447      6.120
REMARK  3 active torsions:
REMARK  status: ('A' for Active; 'I' for Inactive)
REMARK    1  A    between atoms: C_4  and  N_5 
REMARK       I    between atoms: N_5  and  C_6 
REMARK    2  A    between atoms: C_6  and  C_7 
REMARK    3  A    between atoms: C_7  and  C_8 
ROOT
HETATM    1  C   UNL     1       5.379  25.492  56.043  1.00  0.00     0.286 C 
HETATM    2  N   UNL     1       5.737  25.033  54.634  1.00  0.00    -0.056 N 
HETATM    3  H   UNL     1       6.675  25.441  54.437  1.00  0.00     0.278 HD
HETATM    4  H   UNL     1       5.854  24.015  54.603  1.00  0.00     0.278 HD
HETATM    5  C   UNL     1       4.730  25.504  53.614  1.00  0.00     0.209 C 
HETATM    6  C   UNL     1       4.669  27.054  53.643  1.00  0.00     0.115 C 
HETATM    7  N   UNL     1       4.512  27.576  55.001  1.00  0.00    -0.353 N 
HETATM    8  C   UNL     1       5.065  27.002  56.122  1.00  0.00     0.249 C 
HETATM    9  O   UNL     1       5.189  27.652  57.153  1.00  0.00    -0.271 OA
HETATM   10  C   UNL     1       5.100  24.942  52.242  1.00  0.00     0.035 C 
HETATM   11  C   UNL     1       6.321  25.616  51.624  1.00  0.00     0.002 C 
HETATM   12  C   UNL     1       6.157  27.131  51.586  1.00  0.00     0.002 C 
HETATM   13  C   UNL     1       5.890  27.701  52.975  1.00  0.00     0.027 C 
HETATM   14  H   UNL     1       4.313  28.569  55.113  1.00  0.00     0.163 HD
ENDROOT
BRANCH   1  15
HETATM   15  C   UNL     1       6.457  25.078  57.052  1.00  0.00     0.146 C 
BRANCH  15  16
HETATM   16  C   UNL     1       7.833  25.375  56.513  1.00  0.00     0.224 C 
HETATM   17  N   UNL     1       8.645  24.401  56.028  1.00  0.00    -0.327 N 
HETATM   18  H   UNL     1       9.590  24.737  55.861  1.00  0.00     0.169 HD
HETATM   19  O   UNL     1       8.218  26.552  56.503  1.00  0.00    -0.273 OA
BRANCH  17  20
HETATM   20  C   UNL     1       8.445  23.035  55.741  1.00  0.00     0.035 A 
HETATM   21  C   UNL     1       8.324  22.492  54.460  1.00  0.00     0.036 A 
HETATM   22  C   UNL     1       8.135  21.112  54.273  1.00  0.00    -0.060 A 
HETATM   23  C   UNL     1       8.043  20.530  52.891  1.00  0.00     0.048 C 
HETATM   24  C   UNL     1       8.103  20.266  55.385  1.00  0.00     0.007 A 
HETATM   25  C   UNL     1       8.249  20.791  56.665  1.00  0.00     0.003 A 
HETATM   26  C   UNL     1       8.425  22.165  56.839  1.00  0.00     0.029 A 
ENDBRANCH  17  20
ENDBRANCH  15  16
ENDBRANCH   1  15
TORSDOF 3
ENDMDL
MODEL 3
REMARK VINA RESULT:      -8.2      1.654      5.938
REMARK  3 active torsions:
REMARK  status: ('A' for Active; 'I' for Inactive)
REMARK    1  A    between atoms: C_4  and  N_5 
REMARK       I    between atoms: N_5  and  C_6 
REMARK    2  A    between atoms: C_6  and  C_7 
REMARK    3  A    between atoms: C_7  and  C_8 
ROOT
HETATM    1  C   UNL     1       5.272  26.585  55.068  1.00  0.00     0.286 C 
HETATM    2  N   UNL     1       6.253  27.746  54.954  1.00  0.00    -0.056 N 
HETATM    3  H   UNL     1       7.164  27.317  54.687  1.00  0.00     0.278 HD
HETATM    4  H   UNL     1       5.991  28.368  54.182  1.00  0.00     0.278 HD
HETATM    5  C   UNL     1       6.385  28.503  56.252  1.00  0.00     0.209 C 
HETATM    6  C   UNL     1       6.875  27.530  57.357  1.00  0.00     0.115 C 
HETATM    7  N   UNL     1       6.087  26.297  57.399  1.00  0.00    -0.353 N 
HETATM    8  C   UNL     1       5.544  25.686  56.293  1.00  0.00     0.249 C 
HETATM    9  O   UNL     1       5.201  24.511  56.343  1.00  0.00    -0.271 OA
HETATM   10  C   UNL     1       7.314  29.699  56.048  1.00  0.00     0.035 C 
HETATM   11  C   UNL     1       8.781  29.306  55.912  1.00  0.00     0.002 C 
HETATM   12  C   UNL     1       9.232  28.435  57.080  1.00  0.00     0.002 C 
HETATM   13  C   UNL     1       8.365  27.189  57.217  1.00  0.00     0.027 C 
HETATM   14  H   UNL     1       6.232  25.662  58.181  1.00  0.00     0.163 HD
ENDROOT
BRANCH   1  15
HETATM   15  C   UNL     1       5.216  25.777  53.766  1.00  0.00     0.146 C 
BRANCH  15  16
HETATM   16  C   UNL     1       6.391  26.109  52.881  1.00  0.00     0.224 C 
HETATM   17  N   UNL     1       7.538  25.383  52.901  1.00  0.00    -0.327 N 
HETATM   18  H   UNL     1       8.284  25.830  52.374  1.00  0.00     0.169 HD
HETATM   19  O   UNL     1       6.288  27.067  52.104  1.00  0.00    -0.273 OA
BRANCH  17  20
HETATM   20  C   UNL     1       7.897  24.166  53.516  1.00  0.00     0.035 A 
HETATM   21  C   UNL     1       7.877  22.915  52.896  1.00  0.00     0.036 A 
HETATM   22  C   UNL     1       8.263  21.755  53.591  1.00  0.00    -0.060 A 
HETATM   23  C   UNL     1       8.275  20.419  52.906  1.00  0.00     0.048 C 
HETATM   24  C   UNL     1       8.707  21.863  54.912  1.00  0.00     0.007 A 
HETATM   25  C   UNL     1       8.756  23.106  55.532  1.00  0.00     0.003 A 
HETATM   26  C   UNL     1       8.360  24.250  54.836  1.00  0.00     0.029 A 
ENDBRANCH  17  20
ENDBRANCH  15  16
ENDBRANCH   1  15
TORSDOF 3
ENDMDL
MODEL 4
REMARK VINA RESULT:      -8.1      1.304      2.032
REMARK  3 active torsions:
REMARK  status: ('A' for Active; 'I' for Inactive)
REMARK    1  A    between atoms: C_4  and  N_5 
REMARK       I    between atoms: N_5  and  C_6 
REMARK    2  A    between atoms: C_6  and  C_7 
REMARK    3  A    between atoms: C_7  and  C_8 
ROOT
HETATM    1  C   UNL     1       6.896  24.612  54.226  1.00  0.00     0.286 C 
HETATM    2  N   UNL     1       7.202  23.238  53.642  1.00  0.00    -0.056 N 
HETATM    3  H   UNL     1       6.490  22.596  54.049  1.00  0.00     0.278 HD
HETATM    4  H   UNL     1       7.048  23.232  52.627  1.00  0.00     0.278 HD
HETATM    5  C   UNL     1       8.594  22.773  53.991  1.00  0.00     0.209 C 
HETATM    6  C   UNL     1       8.734  22.710  55.534  1.00  0.00     0.115 C 
HETATM    7  N   UNL     1       8.276  23.942  56.182  1.00  0.00    -0.353 N 
HETATM    8  C   UNL     1       7.233  24.715  55.729  1.00  0.00     0.249 C 
HETATM    9  O   UNL     1       6.688  25.517  56.478  1.00  0.00    -0.271 OA
HETATM   10  C   UNL     1       8.866  21.434  53.307  1.00  0.00     0.035 C 
HETATM   11  C   UNL     1       8.115  20.269  53.945  1.00  0.00     0.002 C 
HETATM   12  C   UNL     1       8.373  20.198  55.445  1.00  0.00     0.002 C 
HETATM   13  C   UNL     1       8.003  21.504  56.140  1.00  0.00     0.027 C 
HETATM   14  H   UNL     1       8.464  24.059  57.176  1.00  0.00     0.163 HD
ENDROOT
BRANCH   1  15
HETATM   15  C   UNL     1       5.450  25.030  53.933  1.00  0.00     0.146 C 
BRANCH  15  16
HETATM   16  C   UNL     1       5.404  26.052  52.826  1.00  0.00     0.224 C 
HETATM   17  N   UNL     1       5.714  27.358  53.035  1.00  0.00    -0.327 N 
HETATM   18  H   UNL     1       5.475  27.940  52.237  1.00  0.00     0.169 HD
HETATM   19  O   UNL     1       5.088  25.673  51.691  1.00  0.00    -0.273 OA
BRANCH  17  20
HETATM   20  C   UNL     1       6.267  28.053  54.129  1.00  0.00     0.035 A 
HETATM   21  C   UNL     1       5.536  28.610  55.181  1.00  0.00     0.036 A 
HETATM   22  C   UNL     1       6.180  29.279  56.237  1.00  0.00    -0.060 A 
HETATM   23  C   UNL     1       5.390  29.842  57.383  1.00  0.00     0.048 C 
HETATM   24  C   UNL     1       7.575  29.357  56.250  1.00  0.00     0.007 A 
HETATM   25  C   UNL     1       8.316  28.784  55.222  1.00  0.00     0.003 A 
HETATM   26  C   UNL     1       7.666  28.132  54.173  1.00  0.00     0.029 A 
ENDBRANCH  17  20
ENDBRANCH  15  16
ENDBRANCH   1  15
TORSDOF 3
ENDMDL
MODEL 5
REMARK VINA RESULT:      -8.0      1.856      6.796
REMARK  3 active torsions:
REMARK  status: ('A' for Active; 'I' for Inactive)
REMARK    1  A    between atoms: C_4  and  N_5 
REMARK       I    between atoms: N_5  and  C_6 
REMARK    2  A    between atoms: C_6  and  C_7 
REMARK    3  A    between atoms: C_7  and  C_8 
ROOT
HETATM    1  C   UNL     1       6.725  26.206  55.662  1.00  0.00     0.286 C 
HETATM    2  N   UNL     1       5.778  27.305  55.195  1.00  0.00    -0.056 N 
HETATM    3  H   UNL     1       6.384  28.023  54.745  1.00  0.00     0.278 HD
HETATM    4  H   UNL     1       5.151  26.957  54.462  1.00  0.00     0.278 HD
HETATM    5  C   UNL     1       5.005  27.909  56.341  1.00  0.00     0.209 C 
HETATM    6  C   UNL     1       6.004  28.503  57.368  1.00  0.00     0.115 C 
HETATM    7  N   UNL     1       7.061  27.555  57.724  1.00  0.00    -0.353 N 
HETATM    8  C   UNL     1       7.605  26.638  56.855  1.00  0.00     0.249 C 
HETATM    9  O   UNL     1       8.690  26.124  57.099  1.00  0.00    -0.271 OA
HETATM   10  C   UNL     1       4.017  28.941  55.796  1.00  0.00     0.035 C 
HETATM   11  C   UNL     1       4.688  30.227  55.327  1.00  0.00     0.002 C 
HETATM   12  C   UNL     1       5.577  30.818  56.415  1.00  0.00     0.002 C 
HETATM   13  C   UNL     1       6.629  29.819  56.884  1.00  0.00     0.027 C 
HETATM   14  H   UNL     1       7.678  27.793  58.498  1.00  0.00     0.163 HD
ENDROOT
BRANCH   1  15
HETATM   15  C   UNL     1       7.563  25.665  54.499  1.00  0.00     0.146 C 
BRANCH  15  16
HETATM   16  C   UNL     1       6.679  25.029  53.455  1.00  0.00     0.224 C 
HETATM   17  N   UNL     1       6.748  23.706  53.158  1.00  0.00    -0.327 N 
HETATM   18  H   UNL     1       6.211  23.471  52.328  1.00  0.00     0.169 HD
HETATM   19  O   UNL     1       5.857  25.745  52.869  1.00  0.00    -0.273 OA
BRANCH  17  20
HETATM   20  C   UNL     1       7.425  22.620  53.751  1.00  0.00     0.035 A 
HETATM   21  C   UNL     1       7.573  22.418  55.125  1.00  0.00     0.036 A 
HETATM   22  C   UNL     1       8.260  21.297  55.622  1.00  0.00    -0.060 A 
HETATM   23  C   UNL     1       8.381  21.066  57.101  1.00  0.00     0.048 C 
HETATM   24  C   UNL     1       8.771  20.353  54.728  1.00  0.00     0.007 A 
HETATM   25  C   UNL     1       8.609  20.530  53.358  1.00  0.00     0.003 A 
HETATM   26  C   UNL     1       7.935  21.653  52.875  1.00  0.00     0.029 A 
ENDBRANCH  17  20
ENDBRANCH  15  16
ENDBRANCH   1  15
TORSDOF 3
ENDMDL
MODEL 6
REMARK VINA RESULT:      -7.9      2.246      7.164
REMARK  3 active torsions:
REMARK  status: ('A' for Active; 'I' for Inactive)
REMARK    1  A    between atoms: C_4  and  N_5 
REMARK       I    between atoms: N_5  and  C_6 
REMARK    2  A    between atoms: C_6  and  C_7 
REMARK    3  A    between atoms: C_7  and  C_8 
ROOT
HETATM    1  C   UNL     1       6.466  27.800  57.057  1.00  0.00     0.286 C 
HETATM    2  N   UNL     1       5.162  28.478  57.460  1.00  0.00    -0.056 N 
HETATM    3  H   UNL     1       4.473  28.220  56.722  1.00  0.00     0.278 HD
HETATM    4  H   UNL     1       4.804  28.085  58.337  1.00  0.00     0.278 HD
HETATM    5  C   UNL     1       5.308  29.977  57.546  1.00  0.00     0.209 C 
HETATM    6  C   UNL     1       5.756  30.522  56.165  1.00  0.00     0.115 C 
HETATM    7  N   UNL     1       6.901  29.786  55.626  1.00  0.00    -0.353 N 
HETATM    8  C   UNL     1       7.116  28.440  55.811  1.00  0.00     0.249 C 
HETATM    9  O   UNL     1       7.878  27.828  55.072  1.00  0.00    -0.271 OA
HETATM   10  C   UNL     1       3.993  30.585  58.035  1.00  0.00     0.035 C 
HETATM   11  C   UNL     1       2.892  30.566  56.980  1.00  0.00     0.002 C 
HETATM   12  C   UNL     1       3.360  31.207  55.679  1.00  0.00     0.002 C 
HETATM   13  C   UNL     1       4.614  30.529  55.139  1.00  0.00     0.027 C 
HETATM   14  H   UNL     1       7.364  30.158  54.798  1.00  0.00     0.163 HD
ENDROOT
BRANCH   1  15
HETATM   15  C   UNL     1       6.277  26.288  56.891  1.00  0.00     0.146 C 
BRANCH  15  16
HETATM   16  C   UNL     1       7.447  25.537  57.476  1.00  0.00     0.224 C 
HETATM   17  N   UNL     1       8.028  24.491  56.834  1.00  0.00    -0.327 N 
HETATM   18  H   UNL     1       8.686  23.995  57.428  1.00  0.00     0.169 HD
HETATM   19  O   UNL     1       7.892  25.906  58.570  1.00  0.00    -0.273 OA
BRANCH  17  20
HETATM   20  C   UNL     1       7.882  23.955  55.538  1.00  0.00     0.035 A 
HETATM   21  C   UNL     1       7.749  24.706  54.368  1.00  0.00     0.036 A 
HETATM   22  C   UNL     1       7.617  24.080  53.116  1.00  0.00    -0.060 A 
HETATM   23  C   UNL     1       7.513  24.894  51.858  1.00  0.00     0.048 C 
HETATM   24  C   UNL     1       7.655  22.685  53.039  1.00  0.00     0.007 A 
HETATM   25  C   UNL     1       7.813  21.927  54.194  1.00  0.00     0.003 A 
HETATM   26  C   UNL     1       7.932  22.559  55.433  1.00  0.00     0.029 A 
ENDBRANCH  17  20
ENDBRANCH  15  16
ENDBRANCH   1  15
TORSDOF 3
ENDMDL
MODEL 7
REMARK VINA RESULT:      -7.9      3.044      5.056
REMARK  3 active torsions:
REMARK  status: ('A' for Active; 'I' for Inactive)
REMARK    1  A    between atoms: C_4  and  N_5 
REMARK       I    between atoms: N_5  and  C_6 
REMARK    2  A    between atoms: C_6  and  C_7 
REMARK    3  A    between atoms: C_7  and  C_8 
ROOT
HETATM    1  C   UNL     1       6.757  28.220  57.578  1.00  0.00     0.286 C 
HETATM    2  N   UNL     1       7.586  27.032  57.104  1.00  0.00    -0.056 N 
HETATM    3  H   UNL     1       7.727  27.179  56.082  1.00  0.00     0.278 HD
HETATM    4  H   UNL     1       8.520  27.049  57.528  1.00  0.00     0.278 HD
HETATM    5  C   UNL     1       6.888  25.720  57.359  1.00  0.00     0.209 C 
HETATM    6  C   UNL     1       5.528  25.718  56.615  1.00  0.00     0.115 C 
HETATM    7  N   UNL     1       4.750  26.930  56.879  1.00  0.00    -0.353 N 
HETATM    8  C   UNL     1       5.299  28.176  57.072  1.00  0.00     0.249 C 
HETATM    9  O   UNL     1       4.610  29.181  56.947  1.00  0.00    -0.271 OA
HETATM   10  C   UNL     1       7.805  24.571  56.940  1.00  0.00     0.035 C 
HETATM   11  C   UNL     1       7.933  24.423  55.427  1.00  0.00     0.002 C 
HETATM   12  C   UNL     1       6.565  24.324  54.763  1.00  0.00     0.002 C 
HETATM   13  C   UNL     1       5.688  25.524  55.100  1.00  0.00     0.027 C 
HETATM   14  H   UNL     1       3.784  26.960  56.558  1.00  0.00     0.163 HD
ENDROOT
BRANCH   1  15
HETATM   15  C   UNL     1       7.443  29.548  57.234  1.00  0.00     0.146 C 
BRANCH  15  16
HETATM   16  C   UNL     1       8.884  29.533  57.675  1.00  0.00     0.224 C 
HETATM   17  N   UNL     1       9.303  30.170  58.799  1.00  0.00    -0.327 N 
HETATM   18  H   UNL     1      10.317  30.204  58.865  1.00  0.00     0.169 HD
HETATM   19  O   UNL     1       9.701  28.903  56.990  1.00  0.00    -0.273 OA
BRANCH  17  20
HETATM   20  C   UNL     1       8.620  30.802  59.858  1.00  0.00     0.035 A 
HETATM   21  C   UNL     1       7.493  31.615  59.717  1.00  0.00     0.036 A 
HETATM   22  C   UNL     1       6.874  32.196  60.837  1.00  0.00    -0.060 A 
HETATM   23  C   UNL     1       5.640  33.038  60.681  1.00  0.00     0.048 C 
HETATM   24  C   UNL     1       7.374  31.928  62.114  1.00  0.00     0.007 A 
HETATM   25  C   UNL     1       8.480  31.099  62.270  1.00  0.00     0.003 A 
HETATM   26  C   UNL     1       9.094  30.536  61.150  1.00  0.00     0.029 A 
ENDBRANCH  17  20
ENDBRANCH  15  16
ENDBRANCH   1  15
TORSDOF 3
ENDMDL
MODEL 8
REMARK VINA RESULT:      -7.8      3.575      7.491
REMARK  3 active torsions:
REMARK  status: ('A' for Active; 'I' for Inactive)
REMARK    1  A    between atoms: C_4  and  N_5 
REMARK       I    between atoms: N_5  and  C_6 
REMARK    2  A    between atoms: C_6  and  C_7 
REMARK    3  A    between atoms: C_7  and  C_8 
ROOT
HETATM    1  C   UNL     1       5.057  27.097  52.368  1.00  0.00     0.286 C 
HETATM    2  N   UNL     1       3.766  27.888  52.191  1.00  0.00    -0.056 N 
HETATM    3  H   UNL     1       3.046  27.190  51.911  1.00  0.00     0.278 HD
HETATM    4  H   UNL     1       3.455  28.279  53.087  1.00  0.00     0.278 HD
HETATM    5  C   UNL     1       3.901  28.960  51.139  1.00  0.00     0.209 C 
HETATM    6  C   UNL     1       4.279  28.298  49.788  1.00  0.00     0.115 C 
HETATM    7  N   UNL     1       5.404  27.371  49.922  1.00  0.00    -0.353 N 
HETATM    8  C   UNL     1       5.641  26.593  51.031  1.00  0.00     0.249 C 
HETATM    9  O   UNL     1       6.373  25.614  50.953  1.00  0.00    -0.271 OA
HETATM   10  C   UNL     1       2.605  29.768  51.072  1.00  0.00     0.035 C 
HETATM   11  C   UNL     1       1.455  29.009  50.417  1.00  0.00     0.002 C 
HETATM   12  C   UNL     1       1.855  28.469  49.049  1.00  0.00     0.002 C 
HETATM   13  C   UNL     1       3.089  27.579  49.135  1.00  0.00     0.027 C 
HETATM   14  H   UNL     1       5.823  27.000  49.071  1.00  0.00     0.163 HD
ENDROOT
BRANCH   1  15
HETATM   15  C   UNL     1       4.876  25.958  53.379  1.00  0.00     0.146 C 
BRANCH  15  16
HETATM   16  C   UNL     1       5.557  26.289  54.682  1.00  0.00     0.224 C 
HETATM   17  N   UNL     1       6.447  25.446  55.267  1.00  0.00    -0.327 N 
HETATM   18  H   UNL     1       6.687  25.736  56.211  1.00  0.00     0.169 HD
HETATM   19  O   UNL     1       5.302  27.375  55.219  1.00  0.00    -0.273 OA
BRANCH  17  20
HETATM   20  C   UNL     1       7.071  24.257  54.838  1.00  0.00     0.035 A 
HETATM   21  C   UNL     1       7.125  23.068  55.569  1.00  0.00     0.036 A 
HETATM   22  C   UNL     1       7.765  21.928  55.052  1.00  0.00    -0.060 A 
HETATM   23  C   UNL     1       7.786  20.642  55.829  1.00  0.00     0.048 C 
HETATM   24  C   UNL     1       8.324  21.975  53.773  1.00  0.00     0.007 A 
HETATM   25  C   UNL     1       8.255  23.145  53.024  1.00  0.00     0.003 A 
HETATM   26  C   UNL     1       7.627  24.274  53.551  1.00  0.00     0.029 A 
ENDBRANCH  17  20
ENDBRANCH  15  16
ENDBRANCH   1  15
TORSDOF 3
ENDMDL
MODEL 9
REMARK VINA RESULT:      -7.8      1.800      6.834
REMARK  3 active torsions:
REMARK  status: ('A' for Active; 'I' for Inactive)
REMARK    1  A    between atoms: C_4  and  N_5 
REMARK       I    between atoms: N_5  and  C_6 
REMARK    2  A    between atoms: C_6  and  C_7 
REMARK    3  A    between atoms: C_7  and  C_8 
ROOT
HETATM    1  C   UNL     1       6.949  27.053  54.150  1.00  0.00     0.286 C 
HETATM    2  N   UNL     1       7.879  27.440  55.294  1.00  0.00    -0.056 N 
HETATM    3  H   UNL     1       7.449  27.038  56.153  1.00  0.00     0.278 HD
HETATM    4  H   UNL     1       8.792  26.984  55.190  1.00  0.00     0.278 HD
HETATM    5  C   UNL     1       8.021  28.936  55.424  1.00  0.00     0.209 C 
HETATM    6  C   UNL     1       6.622  29.557  55.676  1.00  0.00     0.115 C 
HETATM    7  N   UNL     1       5.624  29.078  54.718  1.00  0.00    -0.353 N 
HETATM    8  C   UNL     1       5.604  27.810  54.187  1.00  0.00     0.249 C 
HETATM    9  O   UNL     1       4.581  27.370  53.676  1.00  0.00    -0.271 OA
HETATM   10  C   UNL     1       9.028  29.254  56.530  1.00  0.00     0.035 C 
HETATM   11  C   UNL     1       8.485  28.996  57.932  1.00  0.00     0.002 C 
HETATM   12  C   UNL     1       7.159  29.714  58.153  1.00  0.00     0.002 C 
HETATM   13  C   UNL     1       6.124  29.316  57.108  1.00  0.00     0.027 C 
HETATM   14  H   UNL     1       4.714  29.536  54.704  1.00  0.00     0.163 HD
ENDROOT
BRANCH   1  15
HETATM   15  C   UNL     1       6.750  25.534  54.088  1.00  0.00     0.146 C 
BRANCH  15  16
HETATM   16  C   UNL     1       7.135  25.001  52.731  1.00  0.00     0.224 C 
HETATM   17  N   UNL     1       7.707  23.780  52.569  1.00  0.00    -0.327 N 
HETATM   18  H   UNL     1       8.054  23.642  51.624  1.00  0.00     0.169 HD
HETATM   19  O   UNL     1       6.902  25.703  51.737  1.00  0.00    -0.273 OA
BRANCH  17  20
HETATM   20  C   UNL     1       7.932  22.699  53.446  1.00  0.00     0.035 A 
HETATM   21  C   UNL     1       8.034  22.799  54.835  1.00  0.00     0.036 A 
HETATM   22  C   UNL     1       8.251  21.659  55.629  1.00  0.00    -0.060 A 
HETATM   23  C   UNL     1       8.322  21.768  57.125  1.00  0.00     0.048 C 
HETATM   24  C   UNL     1       8.330  20.403  55.021  1.00  0.00     0.007 A 
HETATM   25  C   UNL     1       8.204  20.288  53.640  1.00  0.00     0.003 A 
HETATM   26  C   UNL     1       8.000  21.428  52.861  1.00  0.00     0.029 A 
ENDBRANCH  17  20
ENDBRANCH  15  16
ENDBRANCH   1  15
TORSDOF 3
ENDMDL
MODEL 10
REMARK VINA RESULT:      -7.8      2.526      4.057
REMARK  3 active torsions:
REMARK  status: ('A' for Active; 'I' for Inactive)
REMARK    1  A    between atoms: C_4  and  N_5 
REMARK       I    between atoms: N_5  and  C_6 
REMARK    2  A    between atoms: C_6  and  C_7 
REMARK    3  A    between atoms: C_7  and  C_8 
ROOT
HETATM    1  C   UNL     1       5.284  27.636  55.206  1.00  0.00     0.286 C 
HETATM    2  N   UNL     1       6.348  26.545  55.161  1.00  0.00    -0.056 N 
HETATM    3  H   UNL     1       7.085  26.900  54.516  1.00  0.00     0.278 HD
HETATM    4  H   UNL     1       6.796  26.438  56.078  1.00  0.00     0.278 HD
HETATM    5  C   UNL     1       5.793  25.235  54.662  1.00  0.00     0.209 C 
HETATM    6  C   UNL     1       5.218  25.439  53.236  1.00  0.00     0.115 C 
HETATM    7  N   UNL     1       4.323  26.596  53.162  1.00  0.00    -0.353 N 
HETATM    8  C   UNL     1       4.488  27.753  53.888  1.00  0.00     0.249 C 
HETATM    9  O   UNL     1       3.928  28.786  53.540  1.00  0.00    -0.271 OA
HETATM   10  C   UNL     1       6.886  24.168  54.722  1.00  0.00     0.035 C 
HETATM   11  C   UNL     1       7.954  24.339  53.647  1.00  0.00     0.002 C 
HETATM   12  C   UNL     1       7.333  24.432  52.259  1.00  0.00     0.002 C 
HETATM   13  C   UNL     1       6.318  25.565  52.173  1.00  0.00     0.027 C 
HETATM   14  H   UNL     1       3.779  26.728  52.310  1.00  0.00     0.163 HD
ENDROOT
BRANCH   1  15
HETATM   15  C   UNL     1       5.884  28.980  55.633  1.00  0.00     0.146 C 
BRANCH  15  16
HETATM   16  C   UNL     1       5.251  29.463  56.913  1.00  0.00     0.224 C 
HETATM   17  N   UNL     1       5.988  29.949  57.945  1.00  0.00    -0.327 N 
HETATM   18  H   UNL     1       5.433  30.075  58.787  1.00  0.00     0.169 HD
HETATM   19  O   UNL     1       4.017  29.427  57.009  1.00  0.00    -0.273 OA
BRANCH  17  20
HETATM   20  C   UNL     1       7.351  30.282  58.082  1.00  0.00     0.035 A 
HETATM   21  C   UNL     1       8.400  29.678  57.384  1.00  0.00     0.036 A 
HETATM   22  C   UNL     1       9.731  30.085  57.582  1.00  0.00    -0.060 A 
HETATM   23  C   UNL     1      10.850  29.457  56.801  1.00  0.00     0.048 C 
HETATM   24  C   UNL     1      10.004  31.134  58.464  1.00  0.00     0.007 A 
HETATM   25  C   UNL     1       8.966  31.761  59.145  1.00  0.00     0.003 A 
HETATM   26  C   UNL     1       7.649  31.341  58.950  1.00  0.00     0.029 A 
ENDBRANCH  17  20
ENDBRANCH  15  16
ENDBRANCH   1  15
TORSDOF 3
ENDMDL
