MODEL 1
REMARK VINA RESULT:      -9.1      0.000      0.000
REMARK  9 active torsions:
REMARK  status: ('A' for Active; 'I' for Inactive)
REMARK    1  A    between atoms: O_2  and  C_3 
REMARK    2  A    between atoms: C_6  and  C_7 
REMARK    3  A    between atoms: C_13  and  C_14 
REMARK       I    between atoms: C_14  and  N_15 
REMARK    4  A    between atoms: N_15  and  N_16 
REMARK    5  A    between atoms: N_16  and  C_17 
REMARK    6  A    between atoms: C_17  and  N_18 
REMARK    7  A    between atoms: N_18  and  C_19 
REMARK    8  A    between atoms: C_19  and  C_20 
REMARK    9  A    between atoms: C_27  and  C_28 
ROOT
HETATM    1  C   UNL     1       5.753  26.305  51.876  1.00  0.00     0.118 C 
HETATM    2  N   UNL     1       5.501  27.235  52.966  1.00  0.00    -0.365 N 
HETATM    3  C   UNL     1       5.669  26.877  54.262  1.00  0.00     0.138 A 
HETATM    4  N   UNL     1       5.882  25.566  54.600  1.00  0.00    -0.240 N 
HETATM    5  N   UNL     1       5.912  25.347  55.925  1.00  0.00    -0.181 NA
HETATM    6  C   UNL     1       5.758  26.575  56.434  1.00  0.00     0.160 A 
HETATM    7  C   UNL     1       5.662  27.589  55.446  1.00  0.00     0.098 A 
HETATM    8  C   UNL     1       6.012  24.487  53.639  1.00  0.00     0.221 C 
HETATM    9  C   UNL     1       5.336  24.884  52.312  1.00  0.00     0.066 C 
HETATM   10  H   UNL     1       5.371  28.219  52.716  1.00  0.00     0.161 HD
ENDROOT
BRANCH   7  11
HETATM   11  C   UNL     1       5.522  29.029  55.572  1.00  0.00     0.275 C 
HETATM   12  N   UNL     1       6.632  29.785  55.896  1.00  0.00    -0.263 N 
HETATM   13  H   UNL     1       6.484  30.792  55.926  1.00  0.00     0.190 HD
HETATM   14  O   UNL     1       4.451  29.603  55.374  1.00  0.00    -0.266 OA
BRANCH  12  15
HETATM   15  N   UNL     1       7.969  29.363  55.749  1.00  0.00    -0.274 N 
HETATM   16  H   UNL     1       8.349  29.418  54.808  1.00  0.00     0.189 HD
BRANCH  15  17
HETATM   17  C   UNL     1       8.867  29.607  56.763  1.00  0.00     0.186 C 
HETATM   18  S   UNL     1      10.531  29.620  56.607  1.00  0.00    -0.040 SA
BRANCH  17  19
HETATM   19  N   UNL     1       8.326  29.894  57.981  1.00  0.00    -0.364 N 
HETATM   20  H   UNL     1       8.478  29.152  58.663  1.00  0.00     0.162 HD
BRANCH  19  21
HETATM   21  C   UNL     1       8.192  31.221  58.577  1.00  0.00     0.154 C 
BRANCH  21  22
HETATM   22  C   UNL     1       7.980  31.121  60.089  1.00  0.00     0.139 C 
HETATM   23  O   UNL     1       8.799  30.059  60.626  1.00  0.00    -0.384 OA
HETATM   24  C   UNL     1       9.412  30.521  61.837  1.00  0.00     0.168 C 
HETATM   25  C   UNL     1       8.736  31.826  62.199  1.00  0.00     0.029 C 
HETATM   26  C   UNL     1       8.376  32.380  60.843  1.00  0.00     0.035 C 
ENDBRANCH  21  22
ENDBRANCH  19  21
ENDBRANCH  17  19
ENDBRANCH  15  17
ENDBRANCH  12  15
ENDBRANCH   7  11
BRANCH   1  27
HETATM   27  C   UNL     1       5.059  26.794  50.618  1.00  0.00    -0.035 A 
HETATM   28  C   UNL     1       4.909  28.175  50.406  1.00  0.00     0.012 A 
HETATM   29  C   UNL     1       4.293  28.669  49.250  1.00  0.00     0.037 A 
HETATM   30  C   UNL     1       3.810  27.790  48.284  1.00  0.00     0.068 A 
HETATM   31  C   UNL     1       3.914  26.416  48.504  1.00  0.00     0.037 A 
HETATM   32  C   UNL     1       4.524  25.920  49.662  1.00  0.00     0.012 A 
BRANCH  30  33
HETATM   33  O   UNL     1       3.211  28.139  47.105  1.00  0.00    -0.356 OA
HETATM   34  C   UNL     1       1.827  27.834  46.977  1.00  0.00     0.210 C 
ENDBRANCH  30  33
ENDBRANCH   1  27
BRANCH   8  35
HETATM   35  C   UNL     1       7.472  24.137  53.460  1.00  0.00     0.409 C 
HETATM   36  F   UNL     1       8.297  25.195  53.614  1.00  0.00    -0.169 F 
HETATM   37  F   UNL     1       7.886  23.171  54.310  1.00  0.00    -0.169 F 
HETATM   38  F   UNL     1       7.684  23.660  52.206  1.00  0.00    -0.169 F 
ENDBRANCH   8  35
TORSDOF 9
ENDMDL
MODEL 2
REMARK VINA RESULT:      -9.1      5.480     11.093
REMARK  9 active torsions:
REMARK  status: ('A' for Active; 'I' for Inactive)
REMARK    1  A    between atoms: O_2  and  C_3 
REMARK    2  A    between atoms: C_6  and  C_7 
REMARK    3  A    between atoms: C_13  and  C_14 
REMARK       I    between atoms: C_14  and  N_15 
REMARK    4  A    between atoms: N_15  and  N_16 
REMARK    5  A    between atoms: N_16  and  C_17 
REMARK    6  A    between atoms: C_17  and  N_18 
REMARK    7  A    between atoms: N_18  and  C_19 
REMARK    8  A    between atoms: C_19  and  C_20 
REMARK    9  A    between atoms: C_27  and  C_28 
ROOT
HETATM    1  C   UNL     1       6.928  32.201  62.354  1.00  0.00     0.118 C 
HETATM    2  N   UNL     1       5.835  32.137  61.396  1.00  0.00    -0.365 N 
HETATM    3  C   UNL     1       6.058  31.964  60.071  1.00  0.00     0.138 A 
HETATM    4  N   UNL     1       7.326  32.052  59.561  1.00  0.00    -0.240 N 
HETATM    5  N   UNL     1       7.377  31.976  58.221  1.00  0.00    -0.181 NA
HETATM    6  C   UNL     1       6.096  31.788  57.884  1.00  0.00     0.160 A 
HETATM    7  C   UNL     1       5.223  31.709  59.000  1.00  0.00     0.098 A 
HETATM    8  C   UNL     1       8.516  32.261  60.365  1.00  0.00     0.221 C 
HETATM    9  C   UNL     1       8.133  32.917  61.706  1.00  0.00     0.066 C 
HETATM   10  H   UNL     1       4.890  32.042  61.778  1.00  0.00     0.161 HD
ENDROOT
BRANCH   7  11
HETATM   11  C   UNL     1       3.790  31.485  59.073  1.00  0.00     0.275 C 
HETATM   12  N   UNL     1       3.230  30.474  58.315  1.00  0.00    -0.263 N 
HETATM   13  H   UNL     1       2.229  30.334  58.442  1.00  0.00     0.190 HD
HETATM   14  O   UNL     1       3.059  32.151  59.807  1.00  0.00    -0.266 OA
BRANCH  12  15
HETATM   15  N   UNL     1       3.939  29.387  57.767  1.00  0.00    -0.274 N 
HETATM   16  H   UNL     1       3.844  28.503  58.259  1.00  0.00     0.189 HD
BRANCH  15  17
HETATM   17  C   UNL     1       4.071  29.290  56.400  1.00  0.00     0.186 C 
HETATM   18  S   UNL     1       3.617  30.458  55.294  1.00  0.00    -0.040 SA
BRANCH  17  19
HETATM   19  N   UNL     1       4.657  28.149  55.938  1.00  0.00    -0.364 N 
HETATM   20  H   UNL     1       5.026  28.253  54.993  1.00  0.00     0.162 HD
BRANCH  19  21
HETATM   21  C   UNL     1       5.365  27.155  56.740  1.00  0.00     0.154 C 
BRANCH  21  22
HETATM   22  C   UNL     1       6.879  27.352  56.640  1.00  0.00     0.139 C 
HETATM   23  O   UNL     1       7.187  28.194  55.508  1.00  0.00    -0.384 OA
HETATM   24  C   UNL     1       8.182  29.149  55.904  1.00  0.00     0.168 C 
HETATM   25  C   UNL     1       8.698  28.706  57.256  1.00  0.00     0.029 C 
HETATM   26  C   UNL     1       7.483  28.040  57.854  1.00  0.00     0.035 C 
ENDBRANCH  21  22
ENDBRANCH  19  21
ENDBRANCH  17  19
ENDBRANCH  15  17
ENDBRANCH  12  15
ENDBRANCH   7  11
BRANCH   1  27
HETATM   27  C   UNL     1       6.444  32.848  63.639  1.00  0.00    -0.035 A 
HETATM   28  C   UNL     1       7.378  33.197  64.629  1.00  0.00     0.012 A 
HETATM   29  C   UNL     1       6.977  33.814  65.820  1.00  0.00     0.037 A 
HETATM   30  C   UNL     1       5.630  34.091  66.046  1.00  0.00     0.068 A 
HETATM   31  C   UNL     1       4.690  33.710  65.088  1.00  0.00     0.037 A 
HETATM   32  C   UNL     1       5.088  33.088  63.900  1.00  0.00     0.012 A 
BRANCH  30  33
HETATM   33  O   UNL     1       5.110  34.707  67.150  1.00  0.00    -0.356 OA
HETATM   34  C   UNL     1       5.357  34.083  68.405  1.00  0.00     0.210 C 
ENDBRANCH  30  33
ENDBRANCH   1  27
BRANCH   8  35
HETATM   35  C   UNL     1       9.241  30.947  60.553  1.00  0.00     0.409 C 
HETATM   36  F   UNL     1       8.411  29.884  60.618  1.00  0.00    -0.169 F 
HETATM   37  F   UNL     1      10.140  30.702  59.575  1.00  0.00    -0.169 F 
HETATM   38  F   UNL     1       9.939  30.966  61.718  1.00  0.00    -0.169 F 
ENDBRANCH   8  35
TORSDOF 9
ENDMDL
MODEL 3
REMARK VINA RESULT:      -9.1      2.054      2.585
REMARK  9 active torsions:
REMARK  status: ('A' for Active; 'I' for Inactive)
REMARK    1  A    between atoms: O_2  and  C_3 
REMARK    2  A    between atoms: C_6  and  C_7 
REMARK    3  A    between atoms: C_13  and  C_14 
REMARK       I    between atoms: C_14  and  N_15 
REMARK    4  A    between atoms: N_15  and  N_16 
REMARK    5  A    between atoms: N_16  and  C_17 
REMARK    6  A    between atoms: C_17  and  N_18 
REMARK    7  A    between atoms: N_18  and  C_19 
REMARK    8  A    between atoms: C_19  and  C_20 
REMARK    9  A    between atoms: C_27  and  C_28 
ROOT
HETATM    1  C   UNL     1       6.617  26.125  53.230  1.00  0.00     0.118 C 
HETATM    2  N   UNL     1       7.006  26.946  54.367  1.00  0.00    -0.365 N 
HETATM    3  C   UNL     1       7.233  26.408  55.589  1.00  0.00     0.138 A 
HETATM    4  N   UNL     1       6.904  25.104  55.849  1.00  0.00    -0.240 N 
HETATM    5  N   UNL     1       7.077  24.747  57.132  1.00  0.00    -0.181 NA
HETATM    6  C   UNL     1       7.577  25.858  57.686  1.00  0.00     0.160 A 
HETATM    7  C   UNL     1       7.759  26.919  56.761  1.00  0.00     0.098 A 
HETATM    8  C   UNL     1       6.365  24.188  54.861  1.00  0.00     0.221 C 
HETATM    9  C   UNL     1       5.703  24.980  53.717  1.00  0.00     0.066 C 
HETATM   10  H   UNL     1       7.280  27.913  54.169  1.00  0.00     0.161 HD
ENDROOT
BRANCH   7  11
HETATM   11  C   UNL     1       8.294  28.257  56.941  1.00  0.00     0.275 C 
HETATM   12  N   UNL     1       7.425  29.294  57.221  1.00  0.00    -0.263 N 
HETATM   13  H   UNL     1       7.862  30.201  57.382  1.00  0.00     0.190 HD
HETATM   14  O   UNL     1       9.501  28.494  56.877  1.00  0.00    -0.266 OA
BRANCH  12  15
HETATM   15  N   UNL     1       6.119  29.141  57.727  1.00  0.00    -0.274 N 
HETATM   16  H   UNL     1       6.030  28.555  58.553  1.00  0.00     0.189 HD
BRANCH  15  17
HETATM   17  C   UNL     1       5.242  30.200  57.658  1.00  0.00     0.186 C 
HETATM   18  S   UNL     1       4.137  30.469  56.433  1.00  0.00    -0.040 SA
BRANCH  17  19
HETATM   19  N   UNL     1       5.275  31.070  58.708  1.00  0.00    -0.364 N 
HETATM   20  H   UNL     1       4.852  30.681  59.551  1.00  0.00     0.162 HD
BRANCH  19  21
HETATM   21  C   UNL     1       6.308  32.066  58.973  1.00  0.00     0.154 C 
BRANCH  21  22
HETATM   22  C   UNL     1       7.171  31.653  60.167  1.00  0.00     0.139 C 
HETATM   23  O   UNL     1       7.941  30.479  59.828  1.00  0.00    -0.384 OA
HETATM   24  C   UNL     1       9.281  30.656  60.307  1.00  0.00     0.168 C 
HETATM   25  C   UNL     1       9.266  31.872  61.209  1.00  0.00     0.029 C 
HETATM   26  C   UNL     1       8.178  32.711  60.585  1.00  0.00     0.035 C 
ENDBRANCH  21  22
ENDBRANCH  19  21
ENDBRANCH  17  19
ENDBRANCH  15  17
ENDBRANCH  12  15
ENDBRANCH   7  11
BRANCH   1  27
HETATM   27  C   UNL     1       5.992  27.001  52.160  1.00  0.00    -0.035 A 
HETATM   28  C   UNL     1       5.453  26.402  51.008  1.00  0.00     0.012 A 
HETATM   29  C   UNL     1       4.849  27.169  50.005  1.00  0.00     0.037 A 
HETATM   30  C   UNL     1       4.776  28.555  50.133  1.00  0.00     0.068 A 
HETATM   31  C   UNL     1       5.346  29.164  51.251  1.00  0.00     0.037 A 
HETATM   32  C   UNL     1       5.955  28.398  52.252  1.00  0.00     0.012 A 
BRANCH  30  33
HETATM   33  O   UNL     1       4.196  29.415  49.242  1.00  0.00    -0.356 OA
HETATM   34  C   UNL     1       3.417  28.831  48.204  1.00  0.00     0.210 C 
ENDBRANCH  30  33
ENDBRANCH   1  27
BRANCH   8  35
HETATM   35  C   UNL     1       7.460  23.269  54.368  1.00  0.00     0.409 C 
HETATM   36  F   UNL     1       8.692  23.818  54.444  1.00  0.00    -0.169 F 
HETATM   37  F   UNL     1       7.497  22.094  55.034  1.00  0.00    -0.169 F 
HETATM   38  F   UNL     1       7.254  22.962  53.061  1.00  0.00    -0.169 F 
ENDBRANCH   8  35
TORSDOF 9
ENDMDL
MODEL 4
REMARK VINA RESULT:      -9.0      1.974      2.714
REMARK  9 active torsions:
REMARK  status: ('A' for Active; 'I' for Inactive)
REMARK    1  A    between atoms: O_2  and  C_3 
REMARK    2  A    between atoms: C_6  and  C_7 
REMARK    3  A    between atoms: C_13  and  C_14 
REMARK       I    between atoms: C_14  and  N_15 
REMARK    4  A    between atoms: N_15  and  N_16 
REMARK    5  A    between atoms: N_16  and  C_17 
REMARK    6  A    between atoms: C_17  and  N_18 
REMARK    7  A    between atoms: N_18  and  C_19 
REMARK    8  A    between atoms: C_19  and  C_20 
REMARK    9  A    between atoms: C_27  and  C_28 
ROOT
HETATM    1  C   UNL     1       6.467  26.146  53.264  1.00  0.00     0.118 C 
HETATM    2  N   UNL     1       6.977  27.213  54.112  1.00  0.00    -0.365 N 
HETATM    3  C   UNL     1       7.287  27.001  55.413  1.00  0.00     0.138 A 
HETATM    4  N   UNL     1       6.936  25.831  56.032  1.00  0.00    -0.240 N 
HETATM    5  N   UNL     1       7.203  25.812  57.348  1.00  0.00    -0.181 NA
HETATM    6  C   UNL     1       7.785  27.000  57.551  1.00  0.00     0.160 A 
HETATM    7  C   UNL     1       7.926  27.770  56.367  1.00  0.00     0.098 A 
HETATM    8  C   UNL     1       6.286  24.719  55.364  1.00  0.00     0.221 C 
HETATM    9  C   UNL     1       5.559  25.220  54.101  1.00  0.00     0.066 C 
HETATM   10  H   UNL     1       7.266  28.077  53.646  1.00  0.00     0.161 HD
ENDROOT
BRANCH   7  11
HETATM   11  C   UNL     1       8.519  29.078  56.148  1.00  0.00     0.275 C 
HETATM   12  N   UNL     1       8.332  30.066  57.095  1.00  0.00    -0.263 N 
HETATM   13  H   UNL     1       8.809  30.947  56.910  1.00  0.00     0.190 HD
HETATM   14  O   UNL     1       9.206  29.328  55.157  1.00  0.00    -0.266 OA
BRANCH  12  15
HETATM   15  N   UNL     1       7.949  29.842  58.433  1.00  0.00    -0.274 N 
HETATM   16  H   UNL     1       7.756  28.877  58.683  1.00  0.00     0.189 HD
BRANCH  15  17
HETATM   17  C   UNL     1       8.507  30.610  59.430  1.00  0.00     0.186 C 
HETATM   18  S   UNL     1       9.750  31.710  59.230  1.00  0.00    -0.040 SA
BRANCH  17  19
HETATM   19  N   UNL     1       7.958  30.467  60.670  1.00  0.00    -0.364 N 
HETATM   20  H   UNL     1       7.491  29.568  60.790  1.00  0.00     0.162 HD
BRANCH  19  21
HETATM   21  C   UNL     1       8.471  31.034  61.914  1.00  0.00     0.154 C 
BRANCH  21  22
HETATM   22  C   UNL     1       7.634  32.238  62.350  1.00  0.00     0.139 C 
HETATM   23  O   UNL     1       6.232  31.890  62.327  1.00  0.00    -0.384 OA
HETATM   24  C   UNL     1       5.613  32.405  63.515  1.00  0.00     0.168 C 
HETATM   25  C   UNL     1       6.618  33.333  64.164  1.00  0.00     0.029 C 
HETATM   26  C   UNL     1       7.930  32.703  63.766  1.00  0.00     0.035 C 
ENDBRANCH  21  22
ENDBRANCH  19  21
ENDBRANCH  17  19
ENDBRANCH  15  17
ENDBRANCH  12  15
ENDBRANCH   7  11
BRANCH   1  27
HETATM   27  C   UNL     1       5.785  26.744  52.047  1.00  0.00    -0.035 A 
HETATM   28  C   UNL     1       5.363  25.897  51.008  1.00  0.00     0.012 A 
HETATM   29  C   UNL     1       4.713  26.404  49.877  1.00  0.00     0.037 A 
HETATM   30  C   UNL     1       4.473  27.772  49.761  1.00  0.00     0.068 A 
HETATM   31  C   UNL     1       4.926  28.626  50.767  1.00  0.00     0.037 A 
HETATM   32  C   UNL     1       5.582  28.122  51.895  1.00  0.00     0.012 A 
BRANCH  30  33
HETATM   33  O   UNL     1       3.831  28.391  48.725  1.00  0.00    -0.356 OA
HETATM   34  C   UNL     1       3.749  27.668  47.501  1.00  0.00     0.210 C 
ENDBRANCH  30  33
ENDBRANCH   1  27
BRANCH   8  35
HETATM   35  C   UNL     1       7.304  23.644  55.055  1.00  0.00     0.409 C 
HETATM   36  F   UNL     1       7.030  22.959  53.924  1.00  0.00    -0.169 F 
HETATM   37  F   UNL     1       8.560  24.131  54.941  1.00  0.00    -0.169 F 
HETATM   38  F   UNL     1       7.336  22.733  56.061  1.00  0.00    -0.169 F 
ENDBRANCH   8  35
TORSDOF 9
ENDMDL
MODEL 5
REMARK VINA RESULT:      -8.9      3.771      7.980
REMARK  9 active torsions:
REMARK  status: ('A' for Active; 'I' for Inactive)
REMARK    1  A    between atoms: O_2  and  C_3 
REMARK    2  A    between atoms: C_6  and  C_7 
REMARK    3  A    between atoms: C_13  and  C_14 
REMARK       I    between atoms: C_14  and  N_15 
REMARK    4  A    between atoms: N_15  and  N_16 
REMARK    5  A    between atoms: N_16  and  C_17 
REMARK    6  A    between atoms: C_17  and  N_18 
REMARK    7  A    between atoms: N_18  and  C_19 
REMARK    8  A    between atoms: C_19  and  C_20 
REMARK    9  A    between atoms: C_27  and  C_28 
ROOT
HETATM    1  C   UNL     1       7.462  26.412  55.206  1.00  0.00     0.118 C 
HETATM    2  N   UNL     1       6.271  26.955  54.571  1.00  0.00    -0.365 N 
HETATM    3  C   UNL     1       5.737  28.140  54.952  1.00  0.00     0.138 A 
HETATM    4  N   UNL     1       6.177  28.769  56.087  1.00  0.00    -0.240 N 
HETATM    5  N   UNL     1       5.477  29.871  56.402  1.00  0.00    -0.181 NA
HETATM    6  C   UNL     1       4.594  29.960  55.400  1.00  0.00     0.160 A 
HETATM    7  C   UNL     1       4.743  28.941  54.423  1.00  0.00     0.098 A 
HETATM    8  C   UNL     1       7.261  28.283  56.920  1.00  0.00     0.221 C 
HETATM    9  C   UNL     1       7.445  26.768  56.708  1.00  0.00     0.066 C 
HETATM   10  H   UNL     1       5.959  26.503  53.707  1.00  0.00     0.161 HD
ENDROOT
BRANCH   7  11
HETATM   11  C   UNL     1       4.022  28.696  53.186  1.00  0.00     0.275 C 
HETATM   12  N   UNL     1       4.093  29.634  52.173  1.00  0.00    -0.263 N 
HETATM   13  H   UNL     1       3.605  29.388  51.313  1.00  0.00     0.190 HD
HETATM   14  O   UNL     1       3.370  27.669  52.999  1.00  0.00    -0.266 OA
BRANCH  12  15
HETATM   15  N   UNL     1       5.089  30.623  52.055  1.00  0.00    -0.274 N 
HETATM   16  H   UNL     1       5.978  30.412  52.499  1.00  0.00     0.189 HD
BRANCH  15  17
HETATM   17  C   UNL     1       5.170  31.361  50.895  1.00  0.00     0.186 C 
HETATM   18  S   UNL     1       4.602  32.920  50.693  1.00  0.00    -0.040 SA
BRANCH  17  19
HETATM   19  N   UNL     1       5.803  30.758  49.849  1.00  0.00    -0.364 N 
HETATM   20  H   UNL     1       6.670  30.300  50.127  1.00  0.00     0.162 HD
BRANCH  19  21
HETATM   21  C   UNL     1       5.163  30.148  48.686  1.00  0.00     0.154 C 
BRANCH  21  22
HETATM   22  C   UNL     1       5.484  28.654  48.608  1.00  0.00     0.139 C 
HETATM   23  O   UNL     1       5.267  28.042  49.898  1.00  0.00    -0.384 OA
HETATM   24  C   UNL     1       4.582  26.796  49.704  1.00  0.00     0.168 C 
HETATM   25  C   UNL     1       4.616  26.506  48.218  1.00  0.00     0.029 C 
HETATM   26  C   UNL     1       4.607  27.895  47.627  1.00  0.00     0.035 C 
ENDBRANCH  21  22
ENDBRANCH  19  21
ENDBRANCH  17  19
ENDBRANCH  15  17
ENDBRANCH  12  15
ENDBRANCH   7  11
BRANCH   1  27
HETATM   27  C   UNL     1       7.556  24.924  54.925  1.00  0.00    -0.035 A 
HETATM   28  C   UNL     1       7.663  24.025  56.000  1.00  0.00     0.012 A 
HETATM   29  C   UNL     1       7.733  22.643  55.787  1.00  0.00     0.037 A 
HETATM   30  C   UNL     1       7.701  22.132  54.491  1.00  0.00     0.068 A 
HETATM   31  C   UNL     1       7.638  23.017  53.415  1.00  0.00     0.037 A 
HETATM   32  C   UNL     1       7.574  24.399  53.626  1.00  0.00     0.012 A 
BRANCH  30  33
HETATM   33  O   UNL     1       7.738  20.809  54.147  1.00  0.00    -0.356 OA
HETATM   34  C   UNL     1       8.267  20.498  52.863  1.00  0.00     0.210 C 
ENDBRANCH  30  33
ENDBRANCH   1  27
BRANCH   8  35
HETATM   35  C   UNL     1       8.521  29.064  56.624  1.00  0.00     0.409 C 
HETATM   36  F   UNL     1       8.669  29.362  55.315  1.00  0.00    -0.169 F 
HETATM   37  F   UNL     1       8.594  30.223  57.316  1.00  0.00    -0.169 F 
HETATM   38  F   UNL     1       9.612  28.336  56.980  1.00  0.00    -0.169 F 
ENDBRANCH   8  35
TORSDOF 9
ENDMDL
MODEL 6
REMARK VINA RESULT:      -8.8      6.017     10.039
REMARK  9 active torsions:
REMARK  status: ('A' for Active; 'I' for Inactive)
REMARK    1  A    between atoms: O_2  and  C_3 
REMARK    2  A    between atoms: C_6  and  C_7 
REMARK    3  A    between atoms: C_13  and  C_14 
REMARK       I    between atoms: C_14  and  N_15 
REMARK    4  A    between atoms: N_15  and  N_16 
REMARK    5  A    between atoms: N_16  and  C_17 
REMARK    6  A    between atoms: C_17  and  N_18 
REMARK    7  A    between atoms: N_18  and  C_19 
REMARK    8  A    between atoms: C_19  and  C_20 
REMARK    9  A    between atoms: C_27  and  C_28 
ROOT
HETATM    1  C   UNL     1       7.644  32.210  61.021  1.00  0.00     0.118 C 
HETATM    2  N   UNL     1       6.325  32.539  60.503  1.00  0.00    -0.365 N 
HETATM    3  C   UNL     1       5.273  32.765  61.326  1.00  0.00     0.138 A 
HETATM    4  N   UNL     1       5.363  32.488  62.664  1.00  0.00    -0.240 N 
HETATM    5  N   UNL     1       4.208  32.650  63.330  1.00  0.00    -0.181 NA
HETATM    6  C   UNL     1       3.374  33.089  62.380  1.00  0.00     0.160 A 
HETATM    7  C   UNL     1       3.994  33.244  61.112  1.00  0.00     0.098 A 
HETATM    8  C   UNL     1       6.567  32.011  63.319  1.00  0.00     0.221 C 
HETATM    9  C   UNL     1       7.492  31.338  62.286  1.00  0.00     0.066 C 
HETATM   10  H   UNL     1       6.263  32.775  59.509  1.00  0.00     0.161 HD
ENDROOT
BRANCH   7  11
HETATM   11  C   UNL     1       3.464  33.716  59.845  1.00  0.00     0.275 C 
HETATM   12  N   UNL     1       3.395  32.840  58.779  1.00  0.00    -0.263 N 
HETATM   13  H   UNL     1       2.972  33.213  57.930  1.00  0.00     0.190 HD
HETATM   14  O   UNL     1       3.049  34.866  59.696  1.00  0.00    -0.266 OA
BRANCH  12  15
HETATM   15  N   UNL     1       3.428  31.435  58.883  1.00  0.00    -0.274 N 
HETATM   16  H   UNL     1       2.802  31.027  59.572  1.00  0.00     0.189 HD
BRANCH  15  17
HETATM   17  C   UNL     1       3.629  30.680  57.749  1.00  0.00     0.186 C 
HETATM   18  S   UNL     1       3.099  31.074  56.213  1.00  0.00    -0.040 SA
BRANCH  17  19
HETATM   19  N   UNL     1       4.355  29.538  57.915  1.00  0.00    -0.364 N 
HETATM   20  H   UNL     1       3.814  28.790  58.346  1.00  0.00     0.162 HD
BRANCH  19  21
HETATM   21  C   UNL     1       5.428  29.062  57.047  1.00  0.00     0.154 C 
BRANCH  21  22
HETATM   22  C   UNL     1       5.390  27.538  56.918  1.00  0.00     0.139 C 
HETATM   23  O   UNL     1       4.992  27.173  55.578  1.00  0.00    -0.384 OA
HETATM   24  C   UNL     1       5.835  26.104  55.125  1.00  0.00     0.168 C 
HETATM   25  C   UNL     1       6.607  25.615  56.332  1.00  0.00     0.029 C 
HETATM   26  C   UNL     1       6.737  26.875  57.153  1.00  0.00     0.035 C 
ENDBRANCH  21  22
ENDBRANCH  19  21
ENDBRANCH  17  19
ENDBRANCH  15  17
ENDBRANCH  12  15
ENDBRANCH   7  11
BRANCH   1  27
HETATM   27  C   UNL     1       8.477  31.570  59.926  1.00  0.00    -0.035 A 
HETATM   28  C   UNL     1       8.049  30.359  59.354  1.00  0.00     0.012 A 
HETATM   29  C   UNL     1       8.776  29.744  58.328  1.00  0.00     0.037 A 
HETATM   30  C   UNL     1       9.950  30.327  57.855  1.00  0.00     0.068 A 
HETATM   31  C   UNL     1      10.407  31.506  58.445  1.00  0.00     0.037 A 
HETATM   32  C   UNL     1       9.685  32.119  59.475  1.00  0.00     0.012 A 
BRANCH  30  33
HETATM   33  O   UNL     1      10.738  29.845  56.847  1.00  0.00    -0.356 OA
HETATM   34  C   UNL     1      10.089  29.543  55.617  1.00  0.00     0.210 C 
ENDBRANCH  30  33
ENDBRANCH   1  27
BRANCH   8  35
HETATM   35  C   UNL     1       7.243  33.155  64.040  1.00  0.00     0.409 C 
HETATM   36  F   UNL     1       6.853  34.369  63.596  1.00  0.00    -0.169 F 
HETATM   37  F   UNL     1       7.039  33.125  65.375  1.00  0.00    -0.169 F 
HETATM   38  F   UNL     1       8.587  33.089  63.856  1.00  0.00    -0.169 F 
ENDBRANCH   8  35
TORSDOF 9
ENDMDL
MODEL 7
REMARK VINA RESULT:      -8.7      4.385      9.003
REMARK  9 active torsions:
REMARK  status: ('A' for Active; 'I' for Inactive)
REMARK    1  A    between atoms: O_2  and  C_3 
REMARK    2  A    between atoms: C_6  and  C_7 
REMARK    3  A    between atoms: C_13  and  C_14 
REMARK       I    between atoms: C_14  and  N_15 
REMARK    4  A    between atoms: N_15  and  N_16 
REMARK    5  A    between atoms: N_16  and  C_17 
REMARK    6  A    between atoms: C_17  and  N_18 
REMARK    7  A    between atoms: N_18  and  C_19 
REMARK    8  A    between atoms: C_19  and  C_20 
REMARK    9  A    between atoms: C_27  and  C_28 
ROOT
HETATM    1  C   UNL     1       7.039  25.462  54.078  1.00  0.00     0.118 C 
HETATM    2  N   UNL     1       6.275  25.732  52.870  1.00  0.00    -0.365 N 
HETATM    3  C   UNL     1       5.492  26.832  52.754  1.00  0.00     0.138 A 
HETATM    4  N   UNL     1       5.229  27.618  53.844  1.00  0.00    -0.240 N 
HETATM    5  N   UNL     1       4.345  28.601  53.603  1.00  0.00    -0.181 NA
HETATM    6  C   UNL     1       4.081  28.451  52.300  1.00  0.00     0.160 A 
HETATM    7  C   UNL     1       4.814  27.398  51.692  1.00  0.00     0.098 A 
HETATM    8  C   UNL     1       5.796  27.400  55.162  1.00  0.00     0.221 C 
HETATM    9  C   UNL     1       6.232  25.929  55.308  1.00  0.00     0.066 C 
HETATM   10  H   UNL     1       6.492  25.164  52.047  1.00  0.00     0.161 HD
ENDROOT
BRANCH   7  11
HETATM   11  C   UNL     1       4.844  26.931  50.317  1.00  0.00     0.275 C 
HETATM   12  N   UNL     1       5.170  27.823  49.313  1.00  0.00    -0.263 N 
HETATM   13  H   UNL     1       5.219  27.429  48.375  1.00  0.00     0.190 HD
HETATM   14  O   UNL     1       4.612  25.760  50.017  1.00  0.00    -0.266 OA
BRANCH  12  15
HETATM   15  N   UNL     1       5.847  29.044  49.505  1.00  0.00    -0.274 N 
HETATM   16  H   UNL     1       6.860  28.984  49.563  1.00  0.00     0.189 HD
BRANCH  15  17
HETATM   17  C   UNL     1       5.357  30.186  48.911  1.00  0.00     0.186 C 
HETATM   18  S   UNL     1       5.646  31.749  49.425  1.00  0.00    -0.040 SA
BRANCH  17  19
HETATM   19  N   UNL     1       4.604  29.997  47.790  1.00  0.00    -0.364 N 
HETATM   20  H   UNL     1       4.943  29.226  47.216  1.00  0.00     0.162 HD
BRANCH  19  21
HETATM   21  C   UNL     1       3.171  30.242  47.660  1.00  0.00     0.154 C 
BRANCH  21  22
HETATM   22  C   UNL     1       2.486  29.090  46.921  1.00  0.00     0.139 C 
HETATM   23  O   UNL     1       3.126  27.842  47.265  1.00  0.00    -0.384 OA
HETATM   24  C   UNL     1       2.110  26.857  47.502  1.00  0.00     0.168 C 
HETATM   25  C   UNL     1       0.803  27.454  47.025  1.00  0.00     0.029 C 
HETATM   26  C   UNL     1       1.018  28.925  47.280  1.00  0.00     0.035 C 
ENDBRANCH  21  22
ENDBRANCH  19  21
ENDBRANCH  17  19
ENDBRANCH  15  17
ENDBRANCH  12  15
ENDBRANCH   7  11
BRANCH   1  27
HETATM   27  C   UNL     1       7.429  23.996  54.117  1.00  0.00    -0.035 A 
HETATM   28  C   UNL     1       7.609  23.298  52.910  1.00  0.00     0.012 A 
HETATM   29  C   UNL     1       7.988  21.950  52.900  1.00  0.00     0.037 A 
HETATM   30  C   UNL     1       8.192  21.271  54.100  1.00  0.00     0.068 A 
HETATM   31  C   UNL     1       7.975  21.942  55.304  1.00  0.00     0.037 A 
HETATM   32  C   UNL     1       7.590  23.287  55.316  1.00  0.00     0.012 A 
BRANCH  30  33
HETATM   33  O   UNL     1       8.584  19.968  54.230  1.00  0.00    -0.356 OA
HETATM   34  C   UNL     1       9.085  19.576  55.502  1.00  0.00     0.210 C 
ENDBRANCH  30  33
ENDBRANCH   1  27
BRANCH   8  35
HETATM   35  C   UNL     1       6.937  28.365  55.392  1.00  0.00     0.409 C 
HETATM   36  F   UNL     1       7.687  28.577  54.289  1.00  0.00    -0.169 F 
HETATM   37  F   UNL     1       6.521  29.571  55.839  1.00  0.00    -0.169 F 
HETATM   38  F   UNL     1       7.775  27.873  56.341  1.00  0.00    -0.169 F 
ENDBRANCH   8  35
TORSDOF 9
ENDMDL
MODEL 8
REMARK VINA RESULT:      -8.6      4.275      9.017
REMARK  9 active torsions:
REMARK  status: ('A' for Active; 'I' for Inactive)
REMARK    1  A    between atoms: O_2  and  C_3 
REMARK    2  A    between atoms: C_6  and  C_7 
REMARK    3  A    between atoms: C_13  and  C_14 
REMARK       I    between atoms: C_14  and  N_15 
REMARK    4  A    between atoms: N_15  and  N_16 
REMARK    5  A    between atoms: N_16  and  C_17 
REMARK    6  A    between atoms: C_17  and  N_18 
REMARK    7  A    between atoms: N_18  and  C_19 
REMARK    8  A    between atoms: C_19  and  C_20 
REMARK    9  A    between atoms: C_27  and  C_28 
ROOT
HETATM    1  C   UNL     1       6.566  25.961  54.922  1.00  0.00     0.118 C 
HETATM    2  N   UNL     1       5.919  26.490  53.731  1.00  0.00    -0.365 N 
HETATM    3  C   UNL     1       5.090  27.560  53.787  1.00  0.00     0.138 A 
HETATM    4  N   UNL     1       4.667  28.052  54.994  1.00  0.00    -0.240 N 
HETATM    5  N   UNL     1       3.759  29.036  54.890  1.00  0.00    -0.181 NA
HETATM    6  C   UNL     1       3.643  29.196  53.566  1.00  0.00     0.160 A 
HETATM    7  C   UNL     1       4.497  28.345  52.817  1.00  0.00     0.098 A 
HETATM    8  C   UNL     1       5.103  27.540  56.280  1.00  0.00     0.221 C 
HETATM    9  C   UNL     1       5.606  26.092  56.124  1.00  0.00     0.066 C 
HETATM   10  H   UNL     1       6.256  26.145  52.828  1.00  0.00     0.161 HD
ENDROOT
BRANCH   7  11
HETATM   11  C   UNL     1       4.700  28.225  51.384  1.00  0.00     0.275 C 
HETATM   12  N   UNL     1       3.597  28.171  50.553  1.00  0.00    -0.263 N 
HETATM   13  H   UNL     1       3.801  28.132  49.555  1.00  0.00     0.190 HD
HETATM   14  O   UNL     1       5.824  28.194  50.881  1.00  0.00    -0.266 OA
BRANCH  12  15
HETATM   15  N   UNL     1       2.301  28.600  50.900  1.00  0.00    -0.274 N 
HETATM   16  H   UNL     1       2.166  28.856  51.874  1.00  0.00     0.189 HD
BRANCH  15  17
HETATM   17  C   UNL     1       1.567  29.328  49.990  1.00  0.00     0.186 C 
HETATM   18  S   UNL     1       1.052  30.904  50.197  1.00  0.00    -0.040 SA
BRANCH  17  19
HETATM   19  N   UNL     1       1.281  28.698  48.816  1.00  0.00    -0.364 N 
HETATM   20  H   UNL     1       0.297  28.445  48.737  1.00  0.00     0.162 HD
BRANCH  19  21
HETATM   21  C   UNL     1       1.934  28.927  47.530  1.00  0.00     0.154 C 
BRANCH  21  22
HETATM   22  C   UNL     1       2.610  27.650  47.026  1.00  0.00     0.139 C 
HETATM   23  O   UNL     1       4.009  27.666  47.385  1.00  0.00    -0.384 OA
HETATM   24  C   UNL     1       4.371  26.368  47.876  1.00  0.00     0.168 C 
HETATM   25  C   UNL     1       3.216  25.443  47.558  1.00  0.00     0.029 C 
HETATM   26  C   UNL     1       2.034  26.380  47.630  1.00  0.00     0.035 C 
ENDBRANCH  21  22
ENDBRANCH  19  21
ENDBRANCH  17  19
ENDBRANCH  15  17
ENDBRANCH  12  15
ENDBRANCH   7  11
BRANCH   1  27
HETATM   27  C   UNL     1       7.035  24.542  54.659  1.00  0.00    -0.035 A 
HETATM   28  C   UNL     1       7.217  23.664  55.742  1.00  0.00     0.012 A 
HETATM   29  C   UNL     1       7.630  22.341  55.543  1.00  0.00     0.037 A 
HETATM   30  C   UNL     1       7.872  21.870  54.254  1.00  0.00     0.068 A 
HETATM   31  C   UNL     1       7.735  22.744  53.176  1.00  0.00     0.037 A 
HETATM   32  C   UNL     1       7.329  24.069  53.373  1.00  0.00     0.012 A 
BRANCH  30  33
HETATM   33  O   UNL     1       8.255  20.600  53.921  1.00  0.00    -0.356 OA
HETATM   34  C   UNL     1       8.904  19.842  54.935  1.00  0.00     0.210 C 
ENDBRANCH  30  33
ENDBRANCH   1  27
BRANCH   8  35
HETATM   35  C   UNL     1       6.155  28.456  56.863  1.00  0.00     0.409 C 
HETATM   36  F   UNL     1       7.062  27.809  57.626  1.00  0.00    -0.169 F 
HETATM   37  F   UNL     1       6.833  29.143  55.917  1.00  0.00    -0.169 F 
HETATM   38  F   UNL     1       5.569  29.385  57.663  1.00  0.00    -0.169 F 
ENDBRANCH   8  35
TORSDOF 9
ENDMDL
MODEL 9
REMARK VINA RESULT:      -8.3      6.327     11.940
REMARK  9 active torsions:
REMARK  status: ('A' for Active; 'I' for Inactive)
REMARK    1  A    between atoms: O_2  and  C_3 
REMARK    2  A    between atoms: C_6  and  C_7 
REMARK    3  A    between atoms: C_13  and  C_14 
REMARK       I    between atoms: C_14  and  N_15 
REMARK    4  A    between atoms: N_15  and  N_16 
REMARK    5  A    between atoms: N_16  and  C_17 
REMARK    6  A    between atoms: C_17  and  N_18 
REMARK    7  A    between atoms: N_18  and  C_19 
REMARK    8  A    between atoms: C_19  and  C_20 
REMARK    9  A    between atoms: C_27  and  C_28 
ROOT
HETATM    1  C   UNL     1       5.197  33.975  62.170  1.00  0.00     0.118 C 
HETATM    2  N   UNL     1       6.164  33.144  61.469  1.00  0.00    -0.365 N 
HETATM    3  C   UNL     1       5.900  32.621  60.247  1.00  0.00     0.138 A 
HETATM    4  N   UNL     1       4.638  32.683  59.720  1.00  0.00    -0.240 N 
HETATM    5  N   UNL     1       4.502  32.021  58.559  1.00  0.00    -0.181 NA
HETATM    6  C   UNL     1       5.739  31.566  58.329  1.00  0.00     0.160 A 
HETATM    7  C   UNL     1       6.679  31.959  59.317  1.00  0.00     0.098 A 
HETATM    8  C   UNL     1       3.519  33.349  60.361  1.00  0.00     0.221 C 
HETATM    9  C   UNL     1       3.773  33.456  61.877  1.00  0.00     0.066 C 
HETATM   10  H   UNL     1       7.116  33.121  61.846  1.00  0.00     0.161 HD
ENDROOT
BRANCH   7  11
HETATM   11  C   UNL     1       8.105  31.708  59.425  1.00  0.00     0.275 C 
HETATM   12  N   UNL     1       8.561  30.403  59.396  1.00  0.00    -0.263 N 
HETATM   13  H   UNL     1       9.573  30.291  59.430  1.00  0.00     0.190 HD
HETATM   14  O   UNL     1       8.926  32.621  59.518  1.00  0.00    -0.266 OA
BRANCH  12  15
HETATM   15  N   UNL     1       7.836  29.305  58.892  1.00  0.00    -0.274 N 
HETATM   16  H   UNL     1       6.840  29.303  59.090  1.00  0.00     0.189 HD
BRANCH  15  17
HETATM   17  C   UNL     1       8.197  28.761  57.679  1.00  0.00     0.186 C 
HETATM   18  S   UNL     1       9.509  29.227  56.756  1.00  0.00    -0.040 SA
BRANCH  17  19
HETATM   19  N   UNL     1       7.420  27.732  57.234  1.00  0.00    -0.364 N 
HETATM   20  H   UNL     1       7.209  27.802  56.240  1.00  0.00     0.162 HD
BRANCH  19  21
HETATM   21  C   UNL     1       7.430  26.361  57.738  1.00  0.00     0.154 C 
BRANCH  21  22
HETATM   22  C   UNL     1       7.827  25.378  56.635  1.00  0.00     0.139 C 
HETATM   23  O   UNL     1       8.822  24.459  57.138  1.00  0.00    -0.384 OA
HETATM   24  C   UNL     1       8.488  23.136  56.696  1.00  0.00     0.168 C 
HETATM   25  C   UNL     1       7.393  23.285  55.660  1.00  0.00     0.029 C 
HETATM   26  C   UNL     1       6.674  24.522  56.139  1.00  0.00     0.035 C 
ENDBRANCH  21  22
ENDBRANCH  19  21
ENDBRANCH  17  19
ENDBRANCH  15  17
ENDBRANCH  12  15
ENDBRANCH   7  11
BRANCH   1  27
HETATM   27  C   UNL     1       5.544  34.026  63.646  1.00  0.00    -0.035 A 
HETATM   28  C   UNL     1       4.563  34.418  64.572  1.00  0.00     0.012 A 
HETATM   29  C   UNL     1       4.834  34.460  65.944  1.00  0.00     0.037 A 
HETATM   30  C   UNL     1       6.098  34.113  66.419  1.00  0.00     0.068 A 
HETATM   31  C   UNL     1       7.092  33.763  65.505  1.00  0.00     0.037 A 
HETATM   32  C   UNL     1       6.824  33.727  64.133  1.00  0.00     0.012 A 
BRANCH  30  33
HETATM   33  O   UNL     1       6.486  34.089  67.730  1.00  0.00    -0.356 OA
HETATM   34  C   UNL     1       5.475  34.342  68.700  1.00  0.00     0.210 C 
ENDBRANCH  30  33
ENDBRANCH   1  27
BRANCH   8  35
HETATM   35  C   UNL     1       3.292  34.698  59.718  1.00  0.00     0.409 C 
HETATM   36  F   UNL     1       2.857  35.637  60.585  1.00  0.00    -0.169 F 
HETATM   37  F   UNL     1       4.400  35.183  59.115  1.00  0.00    -0.169 F 
HETATM   38  F   UNL     1       2.344  34.596  58.750  1.00  0.00    -0.169 F 
ENDBRANCH   8  35
TORSDOF 9
ENDMDL
MODEL 10
REMARK VINA RESULT:      -8.2      5.193      9.974
REMARK  9 active torsions:
REMARK  status: ('A' for Active; 'I' for Inactive)
REMARK    1  A    between atoms: O_2  and  C_3 
REMARK    2  A    between atoms: C_6  and  C_7 
REMARK    3  A    between atoms: C_13  and  C_14 
REMARK       I    between atoms: C_14  and  N_15 
REMARK    4  A    between atoms: N_15  and  N_16 
REMARK    5  A    between atoms: N_16  and  C_17 
REMARK    6  A    between atoms: C_17  and  N_18 
REMARK    7  A    between atoms: N_18  and  C_19 
REMARK    8  A    between atoms: C_19  and  C_20 
REMARK    9  A    between atoms: C_27  and  C_28 
ROOT
HETATM    1  C   UNL     1       6.032  31.976  58.678  1.00  0.00     0.118 C 
HETATM    2  N   UNL     1       6.740  30.865  58.061  1.00  0.00    -0.365 N 
HETATM    3  C   UNL     1       6.232  30.200  56.996  1.00  0.00     0.138 A 
HETATM    4  N   UNL     1       4.940  30.412  56.593  1.00  0.00    -0.240 N 
HETATM    5  N   UNL     1       4.541  29.599  55.603  1.00  0.00    -0.181 NA
HETATM    6  C   UNL     1       5.640  28.880  55.345  1.00  0.00     0.160 A 
HETATM    7  C   UNL     1       6.755  29.249  56.141  1.00  0.00     0.098 A 
HETATM    8  C   UNL     1       4.047  31.383  57.199  1.00  0.00     0.221 C 
HETATM    9  C   UNL     1       4.513  31.700  58.633  1.00  0.00     0.066 C 
HETATM   10  H   UNL     1       7.715  30.724  58.341  1.00  0.00     0.161 HD
ENDROOT
BRANCH   7  11
HETATM   11  C   UNL     1       8.119  28.750  56.156  1.00  0.00     0.275 C 
HETATM   12  N   UNL     1       8.454  27.741  57.039  1.00  0.00    -0.263 N 
HETATM   13  H   UNL     1       9.412  27.400  56.973  1.00  0.00     0.190 HD
HETATM   14  O   UNL     1       8.983  29.179  55.391  1.00  0.00    -0.266 OA
BRANCH  12  15
HETATM   15  N   UNL     1       7.534  26.876  57.665  1.00  0.00    -0.274 N 
HETATM   16  H   UNL     1       6.884  27.313  58.311  1.00  0.00     0.189 HD
BRANCH  15  17
HETATM   17  C   UNL     1       7.034  25.802  56.961  1.00  0.00     0.186 C 
HETATM   18  S   UNL     1       5.430  25.338  56.906  1.00  0.00    -0.040 SA
BRANCH  17  19
HETATM   19  N   UNL     1       7.942  25.097  56.227  1.00  0.00    -0.364 N 
HETATM   20  H   UNL     1       8.450  25.683  55.566  1.00  0.00     0.162 HD
BRANCH  19  21
HETATM   21  C   UNL     1       8.692  23.927  56.673  1.00  0.00     0.154 C 
BRANCH  21  22
HETATM   22  C   UNL     1       8.055  22.638  56.148  1.00  0.00     0.139 C 
HETATM   23  O   UNL     1       8.593  22.326  54.844  1.00  0.00    -0.384 OA
HETATM   24  C   UNL     1       8.879  20.921  54.792  1.00  0.00     0.168 C 
HETATM   25  C   UNL     1       8.245  20.300  56.018  1.00  0.00     0.029 C 
HETATM   26  C   UNL     1       8.331  21.425  57.020  1.00  0.00     0.035 C 
ENDBRANCH  21  22
ENDBRANCH  19  21
ENDBRANCH  17  19
ENDBRANCH  15  17
ENDBRANCH  12  15
ENDBRANCH   7  11
BRANCH   1  27
HETATM   27  C   UNL     1       6.574  32.214  60.075  1.00  0.00    -0.035 A 
HETATM   28  C   UNL     1       5.700  32.631  61.093  1.00  0.00     0.012 A 
HETATM   29  C   UNL     1       6.154  32.843  62.400  1.00  0.00     0.037 A 
HETATM   30  C   UNL     1       7.497  32.644  62.715  1.00  0.00     0.068 A 
HETATM   31  C   UNL     1       8.382  32.272  61.703  1.00  0.00     0.037 A 
HETATM   32  C   UNL     1       7.931  32.066  60.395  1.00  0.00     0.012 A 
BRANCH  30  33
HETATM   33  O   UNL     1       8.063  32.793  63.950  1.00  0.00    -0.356 OA
HETATM   34  C   UNL     1       7.324  33.544  64.906  1.00  0.00     0.210 C 
ENDBRANCH  30  33
ENDBRANCH   1  27
BRANCH   8  35
HETATM   35  C   UNL     1       3.972  32.618  56.331  1.00  0.00     0.409 C 
HETATM   36  F   UNL     1       3.818  33.759  57.037  1.00  0.00    -0.169 F 
HETATM   37  F   UNL     1       5.060  32.771  55.544  1.00  0.00    -0.169 F 
HETATM   38  F   UNL     1       2.905  32.533  55.495  1.00  0.00    -0.169 F 
ENDBRANCH   8  35
TORSDOF 9
ENDMDL
