MODEL 1
REMARK VINA RESULT:      -9.9      0.000      0.000
REMARK  6 active torsions:
REMARK  status: ('A' for Active; 'I' for Inactive)
REMARK    1  A    between atoms: N_7  and  C_8 
REMARK    2  A    between atoms: C_8  and  C_9 
REMARK    3  A    between atoms: C_9  and  N_10 
REMARK    4  A    between atoms: C_17  and  C_18 
REMARK    5  A    between atoms: C_18  and  N_19 
REMARK       I    between atoms: N_19  and  C_20 
REMARK    6  A    between atoms: C_20  and  C_21 
ROOT
HETATM    1  C   UNL     1       8.242  22.039  55.552  1.00  0.00     0.001 A 
HETATM    2  C   UNL     1       7.896  23.292  56.065  1.00  0.00     0.014 A 
HETATM    3  C   UNL     1       7.666  24.363  55.194  1.00  0.00     0.008 A 
HETATM    4  C   UNL     1       7.777  24.169  53.818  1.00  0.00     0.046 A 
HETATM    5  C   UNL     1       7.511  25.291  52.898  1.00  0.00     0.274 A 
HETATM    6  O   UNL     1       7.534  25.121  51.682  1.00  0.00    -0.266 OA
HETATM    7  N   UNL     1       7.228  26.521  53.486  1.00  0.00    -0.232 N 
HETATM    8  N   UNL     1       7.108  26.713  54.829  1.00  0.00    -0.172 NA
HETATM    9  C   UNL     1       7.302  25.724  55.650  1.00  0.00     0.084 A 
HETATM   10  C   UNL     1       8.123  22.912  53.305  1.00  0.00     0.018 A 
HETATM   11  C   UNL     1       8.359  21.848  54.175  1.00  0.00     0.001 A 
ENDROOT
BRANCH   9  12
HETATM   12  C   UNL     1       7.112  26.014  57.137  1.00  0.00     0.185 C 
BRANCH  12  13
HETATM   13  N   UNL     1       7.969  27.110  57.539  1.00  0.00    -0.351 N 
HETATM   14  C   UNL     1       7.488  28.389  57.710  1.00  0.00     0.253 C 
HETATM   15  O   UNL     1       6.291  28.658  57.655  1.00  0.00    -0.268 OA
HETATM   16  H   UNL     1       8.971  26.957  57.550  1.00  0.00     0.163 HD
BRANCH  14  17
HETATM   17  C   UNL     1       8.473  29.466  58.029  1.00  0.00     0.055 A 
HETATM   18  C   UNL     1       9.468  29.946  57.161  1.00  0.00     0.049 A 
HETATM   19 CL   UNL     1       9.691  29.379  55.542  1.00  0.00    -0.083 Cl
HETATM   20  C   UNL     1      10.336  30.967  57.580  1.00  0.00     0.026 A 
HETATM   21  C   UNL     1      10.216  31.520  58.856  1.00  0.00     0.021 A 
HETATM   22  C   UNL     1       9.226  31.056  59.713  1.00  0.00     0.012 A 
HETATM   23 BR   UNL     1       9.050  31.805  61.439  1.00  0.00    -0.051 Br
HETATM   24  C   UNL     1       8.358  30.042  59.309  1.00  0.00     0.038 A 
ENDBRANCH  14  17
ENDBRANCH  12  13
ENDBRANCH   9  12
BRANCH   7  25
HETATM   25  C   UNL     1       6.802  27.625  52.635  1.00  0.00     0.182 C 
BRANCH  25  26
HETATM   26  C   UNL     1       5.449  27.382  51.957  1.00  0.00     0.256 C 
BRANCH  26  27
HETATM   27  N   UNL     1       5.599  27.150  50.462  1.00  0.00    -0.070 N 
HETATM   28  H   UNL     1       6.562  26.835  50.287  1.00  0.00     0.279 HD
HETATM   29  C   UNL     1       5.386  28.418  49.650  1.00  0.00     0.235 C 
HETATM   30  C   UNL     1       4.106  28.168  48.881  1.00  0.00     0.029 C 
HETATM   31  C   UNL     1       4.164  26.681  48.596  1.00  0.00     0.029 C 
HETATM   32  C   UNL     1       4.641  26.104  49.914  1.00  0.00     0.235 C 
ENDBRANCH  26  27
ENDBRANCH  25  26
ENDBRANCH   7  25
TORSDOF 6
ENDMDL
MODEL 2
REMARK VINA RESULT:      -9.8      2.976      6.846
REMARK  6 active torsions:
REMARK  status: ('A' for Active; 'I' for Inactive)
REMARK    1  A    between atoms: N_7  and  C_8 
REMARK    2  A    between atoms: C_8  and  C_9 
REMARK    3  A    between atoms: C_9  and  N_10 
REMARK    4  A    between atoms: C_17  and  C_18 
REMARK    5  A    between atoms: C_18  and  N_19 
REMARK       I    between atoms: N_19  and  C_20 
REMARK    6  A    between atoms: C_20  and  C_21 
ROOT
HETATM    1  C   UNL     1       8.172  20.511  53.633  1.00  0.00     0.001 A 
HETATM    2  C   UNL     1       7.984  21.777  53.071  1.00  0.00     0.014 A 
HETATM    3  C   UNL     1       7.885  22.900  53.900  1.00  0.00     0.008 A 
HETATM    4  C   UNL     1       7.983  22.747  55.283  1.00  0.00     0.046 A 
HETATM    5  C   UNL     1       7.904  23.933  56.156  1.00  0.00     0.274 A 
HETATM    6  O   UNL     1       8.059  23.828  57.369  1.00  0.00    -0.266 OA
HETATM    7  N   UNL     1       7.658  25.151  55.527  1.00  0.00    -0.232 N 
HETATM    8  N   UNL     1       7.572  25.307  54.176  1.00  0.00    -0.172 NA
HETATM    9  C   UNL     1       7.678  24.275  53.393  1.00  0.00     0.084 A 
HETATM   10  C   UNL     1       8.173  21.478  55.844  1.00  0.00     0.018 A 
HETATM   11  C   UNL     1       8.264  20.360  55.016  1.00  0.00     0.001 A 
ENDROOT
BRANCH   9  12
HETATM   12  C   UNL     1       7.608  24.541  51.890  1.00  0.00     0.185 C 
BRANCH  12  13
HETATM   13  N   UNL     1       6.874  25.764  51.640  1.00  0.00    -0.351 N 
HETATM   14  C   UNL     1       5.506  25.776  51.483  1.00  0.00     0.253 C 
HETATM   15  O   UNL     1       4.811  24.780  51.667  1.00  0.00    -0.268 OA
HETATM   16  H   UNL     1       7.399  26.605  51.429  1.00  0.00     0.163 HD
BRANCH  14  17
HETATM   17  C   UNL     1       4.857  27.074  51.129  1.00  0.00     0.055 A 
HETATM   18  C   UNL     1       4.507  27.486  49.832  1.00  0.00     0.049 A 
HETATM   19 CL   UNL     1       4.746  26.521  48.417  1.00  0.00    -0.083 Cl
HETATM   20  C   UNL     1       3.900  28.735  49.630  1.00  0.00     0.026 A 
HETATM   21  C   UNL     1       3.630  29.576  50.711  1.00  0.00     0.021 A 
HETATM   22  C   UNL     1       3.963  29.167  51.996  1.00  0.00     0.012 A 
HETATM   23 BR   UNL     1       3.594  30.295  53.467  1.00  0.00    -0.051 Br
HETATM   24  C   UNL     1       4.568  27.929  52.211  1.00  0.00     0.038 A 
ENDBRANCH  14  17
ENDBRANCH  12  13
ENDBRANCH   9  12
BRANCH   7  25
HETATM   25  C   UNL     1       7.727  26.375  56.315  1.00  0.00     0.182 C 
BRANCH  25  26
HETATM   26  C   UNL     1       7.078  27.580  55.624  1.00  0.00     0.256 C 
BRANCH  26  27
HETATM   27  N   UNL     1       7.514  28.894  56.251  1.00  0.00    -0.070 N 
HETATM   28  H   UNL     1       6.866  29.626  55.933  1.00  0.00     0.279 HD
HETATM   29  C   UNL     1       8.912  29.312  55.820  1.00  0.00     0.235 C 
HETATM   30  C   UNL     1       9.747  29.206  57.079  1.00  0.00     0.029 C 
HETATM   31  C   UNL     1       8.773  29.602  58.169  1.00  0.00     0.029 C 
HETATM   32  C   UNL     1       7.506  28.869  57.772  1.00  0.00     0.235 C 
ENDBRANCH  26  27
ENDBRANCH  25  26
ENDBRANCH   7  25
TORSDOF 6
ENDMDL
MODEL 3
REMARK VINA RESULT:      -9.8      3.391      7.130
REMARK  6 active torsions:
REMARK  status: ('A' for Active; 'I' for Inactive)
REMARK    1  A    between atoms: N_7  and  C_8 
REMARK    2  A    between atoms: C_8  and  C_9 
REMARK    3  A    between atoms: C_9  and  N_10 
REMARK    4  A    between atoms: C_17  and  C_18 
REMARK    5  A    between atoms: C_18  and  N_19 
REMARK       I    between atoms: N_19  and  C_20 
REMARK    6  A    between atoms: C_20  and  C_21 
ROOT
HETATM    1  C   UNL     1       8.082  20.624  53.614  1.00  0.00     0.001 A 
HETATM    2  C   UNL     1       7.912  21.896  53.059  1.00  0.00     0.014 A 
HETATM    3  C   UNL     1       7.824  23.015  53.894  1.00  0.00     0.008 A 
HETATM    4  C   UNL     1       7.915  22.854  55.276  1.00  0.00     0.046 A 
HETATM    5  C   UNL     1       7.847  24.036  56.155  1.00  0.00     0.274 A 
HETATM    6  O   UNL     1       7.996  23.921  57.368  1.00  0.00    -0.266 OA
HETATM    7  N   UNL     1       7.619  25.260  55.533  1.00  0.00    -0.232 N 
HETATM    8  N   UNL     1       7.540  25.425  54.182  1.00  0.00    -0.172 NA
HETATM    9  C   UNL     1       7.636  24.396  53.393  1.00  0.00     0.084 A 
HETATM   10  C   UNL     1       8.087  21.579  55.830  1.00  0.00     0.018 A 
HETATM   11  C   UNL     1       8.167  20.465  54.996  1.00  0.00     0.001 A 
ENDROOT
BRANCH   9  12
HETATM   12  C   UNL     1       7.575  24.671  51.892  1.00  0.00     0.185 C 
BRANCH  12  13
HETATM   13  N   UNL     1       6.862  25.908  51.646  1.00  0.00    -0.351 N 
HETATM   14  C   UNL     1       5.510  25.933  51.387  1.00  0.00     0.253 C 
HETATM   15  O   UNL     1       4.802  24.933  51.469  1.00  0.00    -0.268 OA
HETATM   16  H   UNL     1       7.403  26.756  51.517  1.00  0.00     0.163 HD
BRANCH  14  17
HETATM   17  C   UNL     1       4.891  27.251  51.048  1.00  0.00     0.055 A 
HETATM   18  C   UNL     1       4.236  28.103  51.953  1.00  0.00     0.049 A 
HETATM   19 CL   UNL     1       4.071  27.772  53.643  1.00  0.00    -0.083 Cl
HETATM   20  C   UNL     1       3.695  29.319  51.509  1.00  0.00     0.026 A 
HETATM   21  C   UNL     1       3.807  29.698  50.170  1.00  0.00     0.021 A 
HETATM   22  C   UNL     1       4.464  28.864  49.274  1.00  0.00     0.012 A 
HETATM   23 BR   UNL     1       4.628  29.372  47.462  1.00  0.00    -0.051 Br
HETATM   24  C   UNL     1       5.006  27.652  49.703  1.00  0.00     0.038 A 
ENDBRANCH  14  17
ENDBRANCH  12  13
ENDBRANCH   9  12
BRANCH   7  25
HETATM   25  C   UNL     1       7.700  26.479  56.327  1.00  0.00     0.182 C 
BRANCH  25  26
HETATM   26  C   UNL     1       7.118  27.707  55.619  1.00  0.00     0.256 C 
BRANCH  26  27
HETATM   27  N   UNL     1       7.653  29.004  56.202  1.00  0.00    -0.070 N 
HETATM   28  H   UNL     1       7.050  29.770  55.875  1.00  0.00     0.279 HD
HETATM   29  C   UNL     1       9.067  29.313  55.736  1.00  0.00     0.235 C 
HETATM   30  C   UNL     1       9.918  29.184  56.982  1.00  0.00     0.029 C 
HETATM   31  C   UNL     1       8.994  29.674  58.077  1.00  0.00     0.029 C 
HETATM   32  C   UNL     1       7.673  29.019  57.723  1.00  0.00     0.235 C 
ENDBRANCH  26  27
ENDBRANCH  25  26
ENDBRANCH   7  25
TORSDOF 6
ENDMDL
MODEL 4
REMARK VINA RESULT:      -9.6      3.482      5.800
REMARK  6 active torsions:
REMARK  status: ('A' for Active; 'I' for Inactive)
REMARK    1  A    between atoms: N_7  and  C_8 
REMARK    2  A    between atoms: C_8  and  C_9 
REMARK    3  A    between atoms: C_9  and  N_10 
REMARK    4  A    between atoms: C_17  and  C_18 
REMARK    5  A    between atoms: C_18  and  N_19 
REMARK       I    between atoms: N_19  and  C_20 
REMARK    6  A    between atoms: C_20  and  C_21 
ROOT
HETATM    1  C   UNL     1       4.825  30.684  55.968  1.00  0.00     0.001 A 
HETATM    2  C   UNL     1       6.016  30.372  56.628  1.00  0.00     0.014 A 
HETATM    3  C   UNL     1       6.352  29.034  56.867  1.00  0.00     0.008 A 
HETATM    4  C   UNL     1       5.496  28.021  56.436  1.00  0.00     0.046 A 
HETATM    5  C   UNL     1       5.862  26.610  56.665  1.00  0.00     0.274 A 
HETATM    6  O   UNL     1       5.156  25.704  56.231  1.00  0.00    -0.266 OA
HETATM    7  N   UNL     1       7.034  26.381  57.380  1.00  0.00    -0.232 N 
HETATM    8  N   UNL     1       7.879  27.367  57.793  1.00  0.00    -0.172 NA
HETATM    9  C   UNL     1       7.589  28.613  57.564  1.00  0.00     0.084 A 
HETATM   10  C   UNL     1       4.303  28.336  55.773  1.00  0.00     0.018 A 
HETATM   11  C   UNL     1       3.968  29.669  55.543  1.00  0.00     0.001 A 
ENDROOT
BRANCH   9  12
HETATM   12  C   UNL     1       8.605  29.655  58.027  1.00  0.00     0.185 C 
BRANCH  12  13
HETATM   13  N   UNL     1       8.174  30.242  59.279  1.00  0.00    -0.351 N 
HETATM   14  C   UNL     1       8.526  31.522  59.645  1.00  0.00     0.253 C 
HETATM   15  O   UNL     1       9.120  32.287  58.888  1.00  0.00    -0.268 OA
HETATM   16  H   UNL     1       7.726  29.642  59.962  1.00  0.00     0.163 HD
BRANCH  14  17
HETATM   17  C   UNL     1       8.113  31.997  61.000  1.00  0.00     0.055 A 
HETATM   18  C   UNL     1       8.545  31.455  62.223  1.00  0.00     0.049 A 
HETATM   19 CL   UNL     1       9.671  30.150  62.354  1.00  0.00    -0.083 Cl
HETATM   20  C   UNL     1       8.082  31.994  63.433  1.00  0.00     0.026 A 
HETATM   21  C   UNL     1       7.197  33.074  63.438  1.00  0.00     0.021 A 
HETATM   22  C   UNL     1       6.778  33.620  62.231  1.00  0.00     0.012 A 
HETATM   23 BR   UNL     1       5.587  35.087  62.227  1.00  0.00    -0.051 Br
HETATM   24  C   UNL     1       7.230  33.094  61.021  1.00  0.00     0.038 A 
ENDBRANCH  14  17
ENDBRANCH  12  13
ENDBRANCH   9  12
BRANCH   7  25
HETATM   25  C   UNL     1       7.529  25.016  57.500  1.00  0.00     0.182 C 
BRANCH  25  26
HETATM   26  C   UNL     1       8.377  24.568  56.304  1.00  0.00     0.256 C 
BRANCH  26  27
HETATM   27  N   UNL     1       7.517  24.038  55.168  1.00  0.00    -0.070 N 
HETATM   28  H   UNL     1       6.535  24.251  55.389  1.00  0.00     0.279 HD
HETATM   29  C   UNL     1       7.625  22.529  55.010  1.00  0.00     0.235 C 
HETATM   30  C   UNL     1       8.321  22.334  53.680  1.00  0.00     0.029 C 
HETATM   31  C   UNL     1       7.800  23.488  52.849  1.00  0.00     0.029 C 
HETATM   32  C   UNL     1       7.853  24.652  53.818  1.00  0.00     0.235 C 
ENDBRANCH  26  27
ENDBRANCH  25  26
ENDBRANCH   7  25
TORSDOF 6
ENDMDL
MODEL 5
REMARK VINA RESULT:      -9.5      1.583      1.983
REMARK  6 active torsions:
REMARK  status: ('A' for Active; 'I' for Inactive)
REMARK    1  A    between atoms: N_7  and  C_8 
REMARK    2  A    between atoms: C_8  and  C_9 
REMARK    3  A    between atoms: C_9  and  N_10 
REMARK    4  A    between atoms: C_17  and  C_18 
REMARK    5  A    between atoms: C_18  and  N_19 
REMARK       I    between atoms: N_19  and  C_20 
REMARK    6  A    between atoms: C_20  and  C_21 
ROOT
HETATM    1  C   UNL     1       9.006  22.136  55.189  1.00  0.00     0.001 A 
HETATM    2  C   UNL     1       8.760  23.356  55.825  1.00  0.00     0.014 A 
HETATM    3  C   UNL     1       7.919  24.299  55.225  1.00  0.00     0.008 A 
HETATM    4  C   UNL     1       7.323  24.009  53.997  1.00  0.00     0.046 A 
HETATM    5  C   UNL     1       6.416  24.992  53.376  1.00  0.00     0.274 A 
HETATM    6  O   UNL     1       5.828  24.726  52.332  1.00  0.00    -0.266 OA
HETATM    7  N   UNL     1       6.267  26.206  54.041  1.00  0.00    -0.232 N 
HETATM    8  N   UNL     1       6.837  26.490  55.245  1.00  0.00    -0.172 NA
HETATM    9  C   UNL     1       7.609  25.618  55.823  1.00  0.00     0.084 A 
HETATM   10  C   UNL     1       7.569  22.785  53.362  1.00  0.00     0.018 A 
HETATM   11  C   UNL     1       8.414  21.851  53.959  1.00  0.00     0.001 A 
ENDROOT
BRANCH   9  12
HETATM   12  C   UNL     1       8.179  25.998  57.188  1.00  0.00     0.185 C 
BRANCH  12  13
HETATM   13  N   UNL     1       7.639  27.275  57.609  1.00  0.00    -0.351 N 
HETATM   14  C   UNL     1       8.382  28.434  57.561  1.00  0.00     0.253 C 
HETATM   15  O   UNL     1       9.497  28.484  57.050  1.00  0.00    -0.268 OA
HETATM   16  H   UNL     1       6.744  27.284  58.085  1.00  0.00     0.163 HD
BRANCH  14  17
HETATM   17  C   UNL     1       7.765  29.678  58.112  1.00  0.00     0.055 A 
HETATM   18  C   UNL     1       6.688  30.378  57.542  1.00  0.00     0.049 A 
HETATM   19 CL   UNL     1       5.868  29.879  56.104  1.00  0.00    -0.083 Cl
HETATM   20  C   UNL     1       6.198  31.539  58.160  1.00  0.00     0.026 A 
HETATM   21  C   UNL     1       6.766  32.007  59.346  1.00  0.00     0.021 A 
HETATM   22  C   UNL     1       7.823  31.310  59.919  1.00  0.00     0.012 A 
HETATM   23 BR   UNL     1       8.594  31.930  61.529  1.00  0.00    -0.051 Br
HETATM   24  C   UNL     1       8.320  30.156  59.315  1.00  0.00     0.038 A 
ENDBRANCH  14  17
ENDBRANCH  12  13
ENDBRANCH   9  12
BRANCH   7  25
HETATM   25  C   UNL     1       5.266  27.151  53.563  1.00  0.00     0.182 C 
BRANCH  25  26
HETATM   26  C   UNL     1       5.863  28.322  52.773  1.00  0.00     0.256 C 
BRANCH  26  27
HETATM   27  N   UNL     1       4.931  28.794  51.670  1.00  0.00    -0.070 N 
HETATM   28  H   UNL     1       4.059  29.116  52.110  1.00  0.00     0.279 HD
HETATM   29  C   UNL     1       4.562  27.680  50.702  1.00  0.00     0.235 C 
HETATM   30  C   UNL     1       5.218  28.076  49.396  1.00  0.00     0.029 C 
HETATM   31  C   UNL     1       5.127  29.588  49.413  1.00  0.00     0.029 C 
HETATM   32  C   UNL     1       5.504  29.933  50.841  1.00  0.00     0.235 C 
ENDBRANCH  26  27
ENDBRANCH  25  26
ENDBRANCH   7  25
TORSDOF 6
ENDMDL
MODEL 6
REMARK VINA RESULT:      -9.2      5.655      9.819
REMARK  6 active torsions:
REMARK  status: ('A' for Active; 'I' for Inactive)
REMARK    1  A    between atoms: N_7  and  C_8 
REMARK    2  A    between atoms: C_8  and  C_9 
REMARK    3  A    between atoms: C_9  and  N_10 
REMARK    4  A    between atoms: C_17  and  C_18 
REMARK    5  A    between atoms: C_18  and  N_19 
REMARK       I    between atoms: N_19  and  C_20 
REMARK    6  A    between atoms: C_20  and  C_21 
ROOT
HETATM    1  C   UNL     1       7.175  33.662  65.530  1.00  0.00     0.001 A 
HETATM    2  C   UNL     1       7.456  33.037  64.312  1.00  0.00     0.014 A 
HETATM    3  C   UNL     1       6.424  32.791  63.400  1.00  0.00     0.008 A 
HETATM    4  C   UNL     1       5.121  33.181  63.710  1.00  0.00     0.046 A 
HETATM    5  C   UNL     1       4.037  32.945  62.738  1.00  0.00     0.274 A 
HETATM    6  O   UNL     1       2.899  33.345  62.963  1.00  0.00    -0.266 OA
HETATM    7  N   UNL     1       4.385  32.265  61.574  1.00  0.00    -0.232 N 
HETATM    8  N   UNL     1       5.658  31.892  61.261  1.00  0.00    -0.172 NA
HETATM    9  C   UNL     1       6.629  32.128  62.092  1.00  0.00     0.084 A 
HETATM   10  C   UNL     1       4.842  33.810  64.930  1.00  0.00     0.018 A 
HETATM   11  C   UNL     1       5.871  34.046  65.841  1.00  0.00     0.001 A 
ENDROOT
BRANCH   9  12
HETATM   12  C   UNL     1       8.031  31.711  61.650  1.00  0.00     0.185 C 
BRANCH  12  13
HETATM   13  N   UNL     1       7.947  30.882  60.465  1.00  0.00    -0.351 N 
HETATM   14  C   UNL     1       8.467  31.283  59.255  1.00  0.00     0.253 C 
HETATM   15  O   UNL     1       9.137  32.305  59.128  1.00  0.00    -0.268 OA
HETATM   16  H   UNL     1       7.364  30.054  60.499  1.00  0.00     0.163 HD
BRANCH  14  17
HETATM   17  C   UNL     1       8.240  30.398  58.072  1.00  0.00     0.055 A 
HETATM   18  C   UNL     1       9.242  29.886  57.230  1.00  0.00     0.049 A 
HETATM   19 CL   UNL     1      10.932  30.177  57.455  1.00  0.00    -0.083 Cl
HETATM   20  C   UNL     1       8.898  29.061  56.149  1.00  0.00     0.026 A 
HETATM   21  C   UNL     1       7.563  28.734  55.901  1.00  0.00     0.021 A 
HETATM   22  C   UNL     1       6.571  29.228  56.739  1.00  0.00     0.012 A 
HETATM   23 BR   UNL     1       4.763  28.785  56.417  1.00  0.00    -0.051 Br
HETATM   24  C   UNL     1       6.900  30.050  57.817  1.00  0.00     0.038 A 
ENDBRANCH  14  17
ENDBRANCH  12  13
ENDBRANCH   9  12
BRANCH   7  25
HETATM   25  C   UNL     1       3.397  32.143  60.509  1.00  0.00     0.182 C 
BRANCH  25  26
HETATM   26  C   UNL     1       4.019  31.935  59.124  1.00  0.00     0.256 C 
BRANCH  26  27
HETATM   27  N   UNL     1       4.692  33.197  58.611  1.00  0.00    -0.070 N 
HETATM   28  H   UNL     1       5.567  33.324  59.136  1.00  0.00     0.279 HD
HETATM   29  C   UNL     1       3.848  34.442  58.836  1.00  0.00     0.235 C 
HETATM   30  C   UNL     1       3.452  34.893  57.446  1.00  0.00     0.029 C 
HETATM   31  C   UNL     1       4.662  34.525  56.612  1.00  0.00     0.029 C 
HETATM   32  C   UNL     1       5.022  33.146  57.127  1.00  0.00     0.235 C 
ENDBRANCH  26  27
ENDBRANCH  25  26
ENDBRANCH   7  25
TORSDOF 6
ENDMDL
MODEL 7
REMARK VINA RESULT:      -9.2      3.573      7.658
REMARK  6 active torsions:
REMARK  status: ('A' for Active; 'I' for Inactive)
REMARK    1  A    between atoms: N_7  and  C_8 
REMARK    2  A    between atoms: C_8  and  C_9 
REMARK    3  A    between atoms: C_9  and  N_10 
REMARK    4  A    between atoms: C_17  and  C_18 
REMARK    5  A    between atoms: C_18  and  N_19 
REMARK       I    between atoms: N_19  and  C_20 
REMARK    6  A    between atoms: C_20  and  C_21 
ROOT
HETATM    1  C   UNL     1       7.977  22.321  53.399  1.00  0.00     0.001 A 
HETATM    2  C   UNL     1       7.275  23.351  52.767  1.00  0.00     0.014 A 
HETATM    3  C   UNL     1       6.737  24.397  53.525  1.00  0.00     0.008 A 
HETATM    4  C   UNL     1       6.914  24.408  54.908  1.00  0.00     0.046 A 
HETATM    5  C   UNL     1       6.370  25.524  55.705  1.00  0.00     0.274 A 
HETATM    6  O   UNL     1       6.576  25.587  56.913  1.00  0.00    -0.266 OA
HETATM    7  N   UNL     1       5.633  26.480  55.011  1.00  0.00    -0.232 N 
HETATM    8  N   UNL     1       5.467  26.480  53.659  1.00  0.00    -0.172 NA
HETATM    9  C   UNL     1       5.974  25.523  52.940  1.00  0.00     0.084 A 
HETATM   10  C   UNL     1       7.620  23.376  55.540  1.00  0.00     0.018 A 
HETATM   11  C   UNL     1       8.148  22.332  54.783  1.00  0.00     0.001 A 
ENDROOT
BRANCH   9  12
HETATM   12  C   UNL     1       5.774  25.616  51.428  1.00  0.00     0.185 C 
BRANCH  12  13
HETATM   13  N   UNL     1       4.713  26.556  51.129  1.00  0.00    -0.351 N 
HETATM   14  C   UNL     1       4.435  26.957  49.841  1.00  0.00     0.253 C 
HETATM   15  O   UNL     1       4.979  26.456  48.860  1.00  0.00    -0.268 OA
HETATM   16  H   UNL     1       4.267  27.039  51.900  1.00  0.00     0.163 HD
BRANCH  14  17
HETATM   17  C   UNL     1       3.388  28.006  49.650  1.00  0.00     0.055 A 
HETATM   18  C   UNL     1       2.301  27.924  48.762  1.00  0.00     0.049 A 
HETATM   19 CL   UNL     1       1.979  26.554  47.757  1.00  0.00    -0.083 Cl
HETATM   20  C   UNL     1       1.382  28.981  48.676  1.00  0.00     0.026 A 
HETATM   21  C   UNL     1       1.531  30.118  49.472  1.00  0.00     0.021 A 
HETATM   22  C   UNL     1       2.597  30.197  50.360  1.00  0.00     0.012 A 
HETATM   23 BR   UNL     1       2.803  31.728  51.448  1.00  0.00    -0.051 Br
HETATM   24  C   UNL     1       3.518  29.154  50.455  1.00  0.00     0.038 A 
ENDBRANCH  14  17
ENDBRANCH  12  13
ENDBRANCH   9  12
BRANCH   7  25
HETATM   25  C   UNL     1       5.206  27.683  55.713  1.00  0.00     0.182 C 
BRANCH  25  26
HETATM   26  C   UNL     1       5.811  28.969  55.139  1.00  0.00     0.256 C 
BRANCH  26  27
HETATM   27  N   UNL     1       6.840  29.579  56.077  1.00  0.00    -0.070 N 
HETATM   28  H   UNL     1       6.806  30.600  55.963  1.00  0.00     0.279 HD
HETATM   29  C   UNL     1       8.259  29.137  55.752  1.00  0.00     0.235 C 
HETATM   30  C   UNL     1       8.673  28.285  56.934  1.00  0.00     0.029 C 
HETATM   31  C   UNL     1       7.973  28.954  58.098  1.00  0.00     0.029 C 
HETATM   32  C   UNL     1       6.594  29.247  57.541  1.00  0.00     0.235 C 
ENDBRANCH  26  27
ENDBRANCH  25  26
ENDBRANCH   7  25
TORSDOF 6
ENDMDL
MODEL 8
REMARK VINA RESULT:      -9.1      3.837      7.820
REMARK  6 active torsions:
REMARK  status: ('A' for Active; 'I' for Inactive)
REMARK    1  A    between atoms: N_7  and  C_8 
REMARK    2  A    between atoms: C_8  and  C_9 
REMARK    3  A    between atoms: C_9  and  N_10 
REMARK    4  A    between atoms: C_17  and  C_18 
REMARK    5  A    between atoms: C_18  and  N_19 
REMARK       I    between atoms: N_19  and  C_20 
REMARK    6  A    between atoms: C_20  and  C_21 
ROOT
HETATM    1  C   UNL     1       7.994  22.221  53.367  1.00  0.00     0.001 A 
HETATM    2  C   UNL     1       7.351  23.307  52.767  1.00  0.00     0.014 A 
HETATM    3  C   UNL     1       6.751  24.289  53.563  1.00  0.00     0.008 A 
HETATM    4  C   UNL     1       6.808  24.180  54.952  1.00  0.00     0.046 A 
HETATM    5  C   UNL     1       6.198  25.228  55.792  1.00  0.00     0.274 A 
HETATM    6  O   UNL     1       6.299  25.186  57.015  1.00  0.00    -0.266 OA
HETATM    7  N   UNL     1       5.526  26.247  55.123  1.00  0.00    -0.232 N 
HETATM    8  N   UNL     1       5.477  26.364  53.766  1.00  0.00    -0.172 NA
HETATM    9  C   UNL     1       6.043  25.468  53.014  1.00  0.00     0.084 A 
HETATM   10  C   UNL     1       7.455  23.091  55.551  1.00  0.00     0.018 A 
HETATM   11  C   UNL     1       8.045  22.111  54.756  1.00  0.00     0.001 A 
ENDROOT
BRANCH   9  12
HETATM   12  C   UNL     1       5.975  25.691  51.504  1.00  0.00     0.185 C 
BRANCH  12  13
HETATM   13  N   UNL     1       4.786  26.450  51.172  1.00  0.00    -0.351 N 
HETATM   14  C   UNL     1       4.812  27.494  50.274  1.00  0.00     0.253 C 
HETATM   15  O   UNL     1       5.808  27.770  49.610  1.00  0.00    -0.268 OA
HETATM   16  H   UNL     1       3.950  26.299  51.725  1.00  0.00     0.163 HD
BRANCH  14  17
HETATM   17  C   UNL     1       3.553  28.274  50.078  1.00  0.00     0.055 A 
HETATM   18  C   UNL     1       2.992  29.168  51.005  1.00  0.00     0.049 A 
HETATM   19 CL   UNL     1       3.703  29.539  52.538  1.00  0.00    -0.083 Cl
HETATM   20  C   UNL     1       1.800  29.843  50.700  1.00  0.00     0.026 A 
HETATM   21  C   UNL     1       1.165  29.641  49.473  1.00  0.00     0.021 A 
HETATM   22  C   UNL     1       1.723  28.768  48.548  1.00  0.00     0.012 A 
HETATM   23 BR   UNL     1       0.875  28.495  46.882  1.00  0.00    -0.051 Br
HETATM   24  C   UNL     1       2.907  28.090  48.840  1.00  0.00     0.038 A 
ENDBRANCH  14  17
ENDBRANCH  12  13
ENDBRANCH   9  12
BRANCH   7  25
HETATM   25  C   UNL     1       5.041  27.390  55.886  1.00  0.00     0.182 C 
BRANCH  25  26
HETATM   26  C   UNL     1       6.004  28.582  55.872  1.00  0.00     0.256 C 
BRANCH  26  27
HETATM   27  N   UNL     1       7.381  28.204  56.391  1.00  0.00    -0.070 N 
HETATM   28  H   UNL     1       7.516  27.198  56.223  1.00  0.00     0.279 HD
HETATM   29  C   UNL     1       7.525  28.434  57.887  1.00  0.00     0.235 C 
HETATM   30  C   UNL     1       8.529  29.562  58.005  1.00  0.00     0.029 C 
HETATM   31  C   UNL     1       9.463  29.310  56.840  1.00  0.00     0.029 C 
HETATM   32  C   UNL     1       8.512  28.962  55.712  1.00  0.00     0.235 C 
ENDBRANCH  26  27
ENDBRANCH  25  26
ENDBRANCH   7  25
TORSDOF 6
ENDMDL
MODEL 9
REMARK VINA RESULT:      -9.0      1.708      4.952
REMARK  6 active torsions:
REMARK  status: ('A' for Active; 'I' for Inactive)
REMARK    1  A    between atoms: N_7  and  C_8 
REMARK    2  A    between atoms: C_8  and  C_9 
REMARK    3  A    between atoms: C_9  and  N_10 
REMARK    4  A    between atoms: C_17  and  C_18 
REMARK    5  A    between atoms: C_18  and  N_19 
REMARK       I    between atoms: N_19  and  C_20 
REMARK    6  A    between atoms: C_20  and  C_21 
ROOT
HETATM    1  C   UNL     1       3.734  28.894  54.280  1.00  0.00     0.001 A 
HETATM    2  C   UNL     1       4.506  28.121  55.152  1.00  0.00     0.014 A 
HETATM    3  C   UNL     1       5.317  27.100  54.646  1.00  0.00     0.008 A 
HETATM    4  C   UNL     1       5.356  26.866  53.272  1.00  0.00     0.046 A 
HETATM    5  C   UNL     1       6.230  25.807  52.735  1.00  0.00     0.274 A 
HETATM    6  O   UNL     1       6.331  25.633  51.524  1.00  0.00    -0.266 OA
HETATM    7  N   UNL     1       6.924  25.042  53.670  1.00  0.00    -0.232 N 
HETATM    8  N   UNL     1       6.898  25.273  55.013  1.00  0.00    -0.172 NA
HETATM    9  C   UNL     1       6.161  26.229  55.496  1.00  0.00     0.084 A 
HETATM   10  C   UNL     1       4.582  27.643  52.399  1.00  0.00     0.018 A 
HETATM   11  C   UNL     1       3.769  28.655  52.907  1.00  0.00     0.001 A 
ENDROOT
BRANCH   9  12
HETATM   12  C   UNL     1       6.217  26.446  57.006  1.00  0.00     0.185 C 
BRANCH  12  13
HETATM   13  N   UNL     1       7.298  27.354  57.334  1.00  0.00    -0.351 N 
HETATM   14  C   UNL     1       7.069  28.668  57.676  1.00  0.00     0.253 C 
HETATM   15  O   UNL     1       5.940  29.121  57.846  1.00  0.00    -0.268 OA
HETATM   16  H   UNL     1       8.249  27.050  57.162  1.00  0.00     0.163 HD
BRANCH  14  17
HETATM   17  C   UNL     1       8.257  29.546  57.898  1.00  0.00     0.055 A 
HETATM   18  C   UNL     1       9.263  29.815  56.953  1.00  0.00     0.049 A 
HETATM   19 CL   UNL     1       9.264  29.186  55.342  1.00  0.00    -0.083 Cl
HETATM   20  C   UNL     1      10.332  30.661  57.285  1.00  0.00     0.026 A 
HETATM   21  C   UNL     1      10.406  31.249  58.549  1.00  0.00     0.021 A 
HETATM   22  C   UNL     1       9.407  30.997  59.481  1.00  0.00     0.012 A 
HETATM   23 BR   UNL     1       9.493  31.796  61.191  1.00  0.00    -0.051 Br
HETATM   24  C   UNL     1       8.340  30.157  59.164  1.00  0.00     0.038 A 
ENDBRANCH  14  17
ENDBRANCH  12  13
ENDBRANCH   9  12
BRANCH   7  25
HETATM   25  C   UNL     1       7.920  24.089  53.198  1.00  0.00     0.182 C 
BRANCH  25  26
HETATM   26  C   UNL     1       8.678  23.390  54.333  1.00  0.00     0.256 C 
BRANCH  26  27
HETATM   27  N   UNL     1       7.760  22.512  55.168  1.00  0.00    -0.070 N 
HETATM   28  H   UNL     1       6.817  22.920  55.135  1.00  0.00     0.279 HD
HETATM   29  C   UNL     1       8.176  22.458  56.630  1.00  0.00     0.235 C 
HETATM   30  C   UNL     1       8.631  21.029  56.844  1.00  0.00     0.029 C 
HETATM   31  C   UNL     1       7.711  20.239  55.936  1.00  0.00     0.029 C 
HETATM   32  C   UNL     1       7.682  21.076  54.673  1.00  0.00     0.235 C 
ENDBRANCH  26  27
ENDBRANCH  25  26
ENDBRANCH   7  25
TORSDOF 6
ENDMDL
MODEL 10
REMARK VINA RESULT:      -8.6      3.852      8.657
REMARK  6 active torsions:
REMARK  status: ('A' for Active; 'I' for Inactive)
REMARK    1  A    between atoms: N_7  and  C_8 
REMARK    2  A    between atoms: C_8  and  C_9 
REMARK    3  A    between atoms: C_9  and  N_10 
REMARK    4  A    between atoms: C_17  and  C_18 
REMARK    5  A    between atoms: C_18  and  N_19 
REMARK       I    between atoms: N_19  and  C_20 
REMARK    6  A    between atoms: C_20  and  C_21 
ROOT
HETATM    1  C   UNL     1       3.575  28.869  53.451  1.00  0.00     0.001 A 
HETATM    2  C   UNL     1       4.203  28.393  54.605  1.00  0.00     0.014 A 
HETATM    3  C   UNL     1       4.727  29.296  55.537  1.00  0.00     0.008 A 
HETATM    4  C   UNL     1       4.611  30.667  55.310  1.00  0.00     0.046 A 
HETATM    5  C   UNL     1       5.140  31.619  56.304  1.00  0.00     0.274 A 
HETATM    6  O   UNL     1       4.984  32.828  56.155  1.00  0.00    -0.266 OA
HETATM    7  N   UNL     1       5.804  31.070  57.397  1.00  0.00    -0.232 N 
HETATM    8  N   UNL     1       5.910  29.731  57.630  1.00  0.00    -0.172 NA
HETATM    9  C   UNL     1       5.415  28.881  56.781  1.00  0.00     0.084 A 
HETATM   10  C   UNL     1       3.979  31.142  54.153  1.00  0.00     0.018 A 
HETATM   11  C   UNL     1       3.465  30.240  53.223  1.00  0.00     0.001 A 
ENDROOT
BRANCH   9  12
HETATM   12  C   UNL     1       5.544  27.400  57.133  1.00  0.00     0.185 C 
BRANCH  12  13
HETATM   13  N   UNL     1       6.001  26.657  55.976  1.00  0.00    -0.351 N 
HETATM   14  C   UNL     1       6.603  25.423  56.092  1.00  0.00     0.253 C 
HETATM   15  O   UNL     1       6.679  24.822  57.160  1.00  0.00    -0.268 OA
HETATM   16  H   UNL     1       6.010  27.125  55.077  1.00  0.00     0.163 HD
BRANCH  14  17
HETATM   17  C   UNL     1       7.128  24.786  54.847  1.00  0.00     0.055 A 
HETATM   18  C   UNL     1       7.505  25.467  53.676  1.00  0.00     0.049 A 
HETATM   19 CL   UNL     1       7.452  27.187  53.503  1.00  0.00    -0.083 Cl
HETATM   20  C   UNL     1       7.986  24.751  52.570  1.00  0.00     0.026 A 
HETATM   21  C   UNL     1       8.102  23.360  52.620  1.00  0.00     0.021 A 
HETATM   22  C   UNL     1       7.743  22.685  53.780  1.00  0.00     0.012 A 
HETATM   23 BR   UNL     1       7.905  20.804  53.861  1.00  0.00    -0.051 Br
HETATM   24  C   UNL     1       7.262  23.385  54.886  1.00  0.00     0.038 A 
ENDBRANCH  14  17
ENDBRANCH  12  13
ENDBRANCH   9  12
BRANCH   7  25
HETATM   25  C   UNL     1       6.208  31.948  58.488  1.00  0.00     0.182 C 
BRANCH  25  26
HETATM   26  C   UNL     1       7.604  31.633  59.037  1.00  0.00     0.256 C 
BRANCH  26  27
HETATM   27  N   UNL     1       7.538  30.940  60.388  1.00  0.00    -0.070 N 
HETATM   28  H   UNL     1       6.910  30.131  60.297  1.00  0.00     0.279 HD
HETATM   29  C   UNL     1       6.964  31.836  61.475  1.00  0.00     0.235 C 
HETATM   30  C   UNL     1       8.125  32.089  62.413  1.00  0.00     0.029 C 
HETATM   31  C   UNL     1       8.897  30.787  62.360  1.00  0.00     0.029 C 
HETATM   32  C   UNL     1       8.890  30.450  60.882  1.00  0.00     0.235 C 
ENDBRANCH  26  27
ENDBRANCH  25  26
ENDBRANCH   7  25
TORSDOF 6
ENDMDL
