MODEL 1
REMARK VINA RESULT:     -10.1      0.000      0.000
REMARK  7 active torsions:
REMARK  status: ('A' for Active; 'I' for Inactive)
REMARK    1  A    between atoms: O_2  and  C_3 
REMARK    2  A    between atoms: C_6  and  C_7 
REMARK       I    between atoms: C_7  and  N_8 
REMARK    3  A    between atoms: N_8  and  C_9 
REMARK    4  A    between atoms: C_9  and  N_10 
REMARK    5  A    between atoms: N_10  and  C_11 
REMARK    6  A    between atoms: C_14  and  N_15 
REMARK       I    between atoms: N_18  and  C_19 
REMARK    7  A    between atoms: C_19  and  C_20 
ROOT
HETATM    1  C   UNL     1       6.010  32.379  58.808  1.00  0.00     0.034 C 
HETATM    2  C   UNL     1       5.252  32.358  57.640  1.00  0.00     0.032 C 
HETATM    3  C   UNL     1       5.410  31.319  56.717  1.00  0.00     0.031 C 
HETATM    4  C   UNL     1       6.324  30.276  56.926  1.00  0.00     0.030 C 
HETATM    5  C   UNL     1       7.203  30.426  58.012  1.00  0.00     0.031 C 
HETATM    6  C   UNL     1       7.061  31.475  58.941  1.00  0.00     0.032 C 
ENDROOT
BRANCH   1   7
HETATM    7  N   UNL     1       5.650  33.217  59.904  1.00  0.00    -0.333 N 
HETATM    8  H   UNL     1       6.429  33.480  60.492  1.00  0.00     0.168 HD
BRANCH   7   9
HETATM    9  C   UNL     1       4.486  33.015  60.619  1.00  0.00     0.179 C 
HETATM   10  S   UNL     1       2.993  33.770  60.423  1.00  0.00    -0.040 SA
BRANCH   9  11
HETATM   11  N   UNL     1       4.477  32.021  61.588  1.00  0.00    -0.299 N 
HETATM   12  C   UNL     1       4.878  31.708  62.881  1.00  0.00     0.257 C 
HETATM   13  O   UNL     1       4.634  30.585  63.322  1.00  0.00    -0.267 OA
HETATM   14  H   UNL     1       3.936  31.234  61.244  1.00  0.00     0.171 HD
BRANCH  12  15
HETATM   15  C   UNL     1       5.498  32.671  63.794  1.00  0.00     0.032 A 
HETATM   16  C   UNL     1       4.663  33.250  64.760  1.00  0.00     0.020 A 
HETATM   17  C   UNL     1       5.214  33.902  65.863  1.00  0.00     0.038 A 
HETATM   18  C   UNL     1       6.599  33.954  66.009  1.00  0.00     0.068 A 
HETATM   19  C   UNL     1       7.432  33.429  65.015  1.00  0.00     0.038 A 
HETATM   20  C   UNL     1       6.885  32.757  63.916  1.00  0.00     0.020 A 
BRANCH  18  21
HETATM   21  O   UNL     1       7.216  34.496  67.103  1.00  0.00    -0.356 OA
HETATM   22  C   UNL     1       6.349  34.592  68.237  1.00  0.00     0.210 C 
ENDBRANCH  18  21
ENDBRANCH  12  15
ENDBRANCH   9  11
ENDBRANCH   7   9
ENDBRANCH   1   7
BRANCH   4  23
HETATM   23  N   UNL     1       6.276  29.093  56.198  1.00  0.00    -0.378 N 
HETATM   24  C   UNL     1       7.496  28.315  55.919  1.00  0.00     0.143 C 
HETATM   25  C   UNL     1       7.161  26.809  55.750  1.00  0.00     0.146 C 
HETATM   26  N   UNL     1       6.012  26.549  54.866  1.00  0.00    -0.345 N 
HETATM   27  C   UNL     1       5.803  25.401  54.104  1.00  0.00     0.253 C 
HETATM   28  C   UNL     1       4.852  27.416  55.082  1.00  0.00     0.146 C 
HETATM   29  O   UNL     1       4.827  25.257  53.368  1.00  0.00    -0.267 OA
HETATM   30  C   UNL     1       5.215  28.901  55.190  1.00  0.00     0.143 C 
BRANCH  27  31
HETATM   31  C   UNL     1       6.769  24.281  54.151  1.00  0.00     0.032 A 
HETATM   32  C   UNL     1       6.945  23.522  55.312  1.00  0.00     0.017 A 
HETATM   33  C   UNL     1       7.792  22.412  55.291  1.00  0.00     0.001 A 
HETATM   34  C   UNL     1       8.440  22.048  54.110  1.00  0.00     0.000 A 
HETATM   35  C   UNL     1       8.239  22.786  52.944  1.00  0.00     0.001 A 
HETATM   36  C   UNL     1       7.399  23.899  52.960  1.00  0.00     0.017 A 
ENDBRANCH  27  31
ENDBRANCH   4  23
TORSDOF 7
ENDMDL
MODEL 2
REMARK VINA RESULT:     -10.1      2.323     11.973
REMARK  7 active torsions:
REMARK  status: ('A' for Active; 'I' for Inactive)
REMARK    1  A    between atoms: O_2  and  C_3 
REMARK    2  A    between atoms: C_6  and  C_7 
REMARK       I    between atoms: C_7  and  N_8 
REMARK    3  A    between atoms: N_8  and  C_9 
REMARK    4  A    between atoms: C_9  and  N_10 
REMARK    5  A    between atoms: N_10  and  C_11 
REMARK    6  A    between atoms: C_14  and  N_15 
REMARK       I    between atoms: N_18  and  C_19 
REMARK    7  A    between atoms: C_19  and  C_20 
ROOT
HETATM    1  C   UNL     1       6.887  29.101  56.038  1.00  0.00     0.034 C 
HETATM    2  C   UNL     1       8.038  29.100  56.821  1.00  0.00     0.032 C 
HETATM    3  C   UNL     1       8.149  29.970  57.911  1.00  0.00     0.031 C 
HETATM    4  C   UNL     1       7.124  30.864  58.252  1.00  0.00     0.030 C 
HETATM    5  C   UNL     1       6.064  30.974  57.336  1.00  0.00     0.031 C 
HETATM    6  C   UNL     1       5.947  30.111  56.229  1.00  0.00     0.032 C 
ENDROOT
BRANCH   1   7
HETATM    7  N   UNL     1       6.603  28.026  55.146  1.00  0.00    -0.333 N 
HETATM    8  H   UNL     1       6.505  28.310  54.181  1.00  0.00     0.168 HD
BRANCH   7   9
HETATM    9  C   UNL     1       5.739  27.005  55.492  1.00  0.00     0.179 C 
HETATM   10  S   UNL     1       5.137  26.617  57.017  1.00  0.00    -0.040 SA
BRANCH   9  11
HETATM   11  N   UNL     1       5.219  26.214  54.478  1.00  0.00    -0.299 N 
HETATM   12  C   UNL     1       5.456  25.093  53.693  1.00  0.00     0.257 C 
HETATM   13  O   UNL     1       4.628  24.784  52.835  1.00  0.00    -0.267 OA
HETATM   14  H   UNL     1       4.291  26.553  54.242  1.00  0.00     0.171 HD
BRANCH  12  15
HETATM   15  C   UNL     1       6.596  24.194  53.885  1.00  0.00     0.032 A 
HETATM   16  C   UNL     1       6.816  23.728  55.189  1.00  0.00     0.020 A 
HETATM   17  C   UNL     1       7.645  22.629  55.411  1.00  0.00     0.038 A 
HETATM   18  C   UNL     1       8.234  21.983  54.324  1.00  0.00     0.068 A 
HETATM   19  C   UNL     1       8.062  22.485  53.029  1.00  0.00     0.038 A 
HETATM   20  C   UNL     1       7.217  23.575  52.800  1.00  0.00     0.020 A 
BRANCH  18  21
HETATM   21  O   UNL     1       8.988  20.848  54.448  1.00  0.00    -0.356 OA
HETATM   22  C   UNL     1       8.657  20.088  55.613  1.00  0.00     0.210 C 
ENDBRANCH  18  21
ENDBRANCH  12  15
ENDBRANCH   9  11
ENDBRANCH   7   9
ENDBRANCH   1   7
BRANCH   4  23
HETATM   23  N   UNL     1       7.075  31.499  59.487  1.00  0.00    -0.378 N 
HETATM   24  C   UNL     1       6.232  32.687  59.706  1.00  0.00     0.143 C 
HETATM   25  C   UNL     1       5.797  32.788  61.192  1.00  0.00     0.146 C 
HETATM   26  N   UNL     1       6.899  32.592  62.150  1.00  0.00    -0.345 N 
HETATM   27  C   UNL     1       6.978  33.129  63.433  1.00  0.00     0.253 C 
HETATM   28  C   UNL     1       7.797  31.476  61.847  1.00  0.00     0.146 C 
HETATM   29  O   UNL     1       7.941  32.941  64.177  1.00  0.00    -0.267 OA
HETATM   30  C   UNL     1       8.248  31.440  60.382  1.00  0.00     0.143 C 
BRANCH  27  31
HETATM   31  C   UNL     1       5.881  33.965  63.968  1.00  0.00     0.032 A 
HETATM   32  C   UNL     1       4.936  33.443  64.856  1.00  0.00     0.017 A 
HETATM   33  C   UNL     1       3.973  34.284  65.417  1.00  0.00     0.001 A 
HETATM   34  C   UNL     1       3.971  35.646  65.111  1.00  0.00     0.000 A 
HETATM   35  C   UNL     1       4.933  36.174  64.250  1.00  0.00     0.001 A 
HETATM   36  C   UNL     1       5.894  35.336  63.683  1.00  0.00     0.017 A 
ENDBRANCH  27  31
ENDBRANCH   4  23
TORSDOF 7
ENDMDL
MODEL 3
REMARK VINA RESULT:     -10.0      2.815     11.288
REMARK  7 active torsions:
REMARK  status: ('A' for Active; 'I' for Inactive)
REMARK    1  A    between atoms: O_2  and  C_3 
REMARK    2  A    between atoms: C_6  and  C_7 
REMARK       I    between atoms: C_7  and  N_8 
REMARK    3  A    between atoms: N_8  and  C_9 
REMARK    4  A    between atoms: C_9  and  N_10 
REMARK    5  A    between atoms: N_10  and  C_11 
REMARK    6  A    between atoms: C_14  and  N_15 
REMARK       I    between atoms: N_18  and  C_19 
REMARK    7  A    between atoms: C_19  and  C_20 
ROOT
HETATM    1  C   UNL     1       4.970  28.785  54.778  1.00  0.00     0.034 C 
HETATM    2  C   UNL     1       6.222  28.384  55.237  1.00  0.00     0.032 C 
HETATM    3  C   UNL     1       6.870  29.112  56.241  1.00  0.00     0.031 C 
HETATM    4  C   UNL     1       6.296  30.257  56.813  1.00  0.00     0.030 C 
HETATM    5  C   UNL     1       5.129  30.741  56.200  1.00  0.00     0.031 C 
HETATM    6  C   UNL     1       4.473  30.023  55.181  1.00  0.00     0.032 C 
ENDROOT
BRANCH   1   7
HETATM    7  N   UNL     1       4.150  27.904  54.015  1.00  0.00    -0.333 N 
HETATM    8  H   UNL     1       3.796  27.115  54.540  1.00  0.00     0.168 HD
BRANCH   7   9
HETATM    9  C   UNL     1       4.455  27.580  52.707  1.00  0.00     0.179 C 
HETATM   10  S   UNL     1       5.040  28.587  51.490  1.00  0.00    -0.040 SA
BRANCH   9  11
HETATM   11  N   UNL     1       4.348  26.253  52.318  1.00  0.00    -0.299 N 
HETATM   12  C   UNL     1       4.969  25.011  52.374  1.00  0.00     0.257 C 
HETATM   13  O   UNL     1       4.443  24.058  51.799  1.00  0.00    -0.267 OA
HETATM   14  H   UNL     1       3.457  26.120  51.849  1.00  0.00     0.171 HD
BRANCH  12  15
HETATM   15  C   UNL     1       6.177  24.743  53.159  1.00  0.00     0.032 A 
HETATM   16  C   UNL     1       6.056  24.841  54.552  1.00  0.00     0.020 A 
HETATM   17  C   UNL     1       7.031  24.287  55.381  1.00  0.00     0.038 A 
HETATM   18  C   UNL     1       8.113  23.616  54.815  1.00  0.00     0.068 A 
HETATM   19  C   UNL     1       8.264  23.570  53.425  1.00  0.00     0.038 A 
HETATM   20  C   UNL     1       7.280  24.107  52.589  1.00  0.00     0.020 A 
BRANCH  18  21
HETATM   21  O   UNL     1       9.064  22.970  55.557  1.00  0.00    -0.356 OA
HETATM   22  C   UNL     1       8.636  21.682  56.007  1.00  0.00     0.210 C 
ENDBRANCH  18  21
ENDBRANCH  12  15
ENDBRANCH   9  11
ENDBRANCH   7   9
ENDBRANCH   1   7
BRANCH   4  23
HETATM   23  N   UNL     1       6.762  30.802  58.004  1.00  0.00    -0.378 N 
HETATM   24  C   UNL     1       6.104  31.966  58.622  1.00  0.00     0.143 C 
HETATM   25  C   UNL     1       6.304  31.959  60.161  1.00  0.00     0.146 C 
HETATM   26  N   UNL     1       7.694  31.703  60.580  1.00  0.00    -0.345 N 
HETATM   27  C   UNL     1       8.293  32.148  61.756  1.00  0.00     0.253 C 
HETATM   28  C   UNL     1       8.369  30.617  59.867  1.00  0.00     0.146 C 
HETATM   29  O   UNL     1       9.469  31.914  62.036  1.00  0.00    -0.267 OA
HETATM   30  C   UNL     1       8.194  30.688  58.346  1.00  0.00     0.143 C 
BRANCH  27  31
HETATM   31  C   UNL     1       7.522  32.937  62.742  1.00  0.00     0.032 A 
HETATM   32  C   UNL     1       7.749  32.804  64.116  1.00  0.00     0.017 A 
HETATM   33  C   UNL     1       7.073  33.635  65.012  1.00  0.00     0.001 A 
HETATM   34  C   UNL     1       6.194  34.609  64.536  1.00  0.00     0.000 A 
HETATM   35  C   UNL     1       5.992  34.763  63.165  1.00  0.00     0.001 A 
HETATM   36  C   UNL     1       6.661  33.932  62.265  1.00  0.00     0.017 A 
ENDBRANCH  27  31
ENDBRANCH   4  23
TORSDOF 7
ENDMDL
MODEL 4
REMARK VINA RESULT:     -10.0      1.825      2.011
REMARK  7 active torsions:
REMARK  status: ('A' for Active; 'I' for Inactive)
REMARK    1  A    between atoms: O_2  and  C_3 
REMARK    2  A    between atoms: C_6  and  C_7 
REMARK       I    between atoms: C_7  and  N_8 
REMARK    3  A    between atoms: N_8  and  C_9 
REMARK    4  A    between atoms: C_9  and  N_10 
REMARK    5  A    between atoms: N_10  and  C_11 
REMARK    6  A    between atoms: C_14  and  N_15 
REMARK       I    between atoms: N_18  and  C_19 
REMARK    7  A    between atoms: C_19  and  C_20 
ROOT
HETATM    1  C   UNL     1       7.231  31.470  58.835  1.00  0.00     0.034 C 
HETATM    2  C   UNL     1       6.063  31.266  58.106  1.00  0.00     0.032 C 
HETATM    3  C   UNL     1       6.008  30.265  57.130  1.00  0.00     0.031 C 
HETATM    4  C   UNL     1       7.108  29.442  56.851  1.00  0.00     0.030 C 
HETATM    5  C   UNL     1       8.322  29.796  57.465  1.00  0.00     0.031 C 
HETATM    6  C   UNL     1       8.392  30.809  58.440  1.00  0.00     0.032 C 
ENDROOT
BRANCH   1   7
HETATM    7  N   UNL     1       7.224  32.237  60.037  1.00  0.00    -0.333 N 
HETATM    8  H   UNL     1       7.625  33.159  59.938  1.00  0.00     0.168 HD
BRANCH   7   9
HETATM    9  C   UNL     1       7.501  31.663  61.264  1.00  0.00     0.179 C 
HETATM   10  S   UNL     1       8.992  31.511  62.033  1.00  0.00    -0.040 SA
BRANCH   9  11
HETATM   11  N   UNL     1       6.438  31.203  62.027  1.00  0.00    -0.299 N 
HETATM   12  C   UNL     1       5.495  31.571  62.978  1.00  0.00     0.257 C 
HETATM   13  O   UNL     1       4.712  30.718  63.399  1.00  0.00    -0.267 OA
HETATM   14  H   UNL     1       6.240  30.242  61.766  1.00  0.00     0.171 HD
BRANCH  12  15
HETATM   15  C   UNL     1       5.312  32.945  63.451  1.00  0.00     0.032 A 
HETATM   16  C   UNL     1       4.104  33.572  63.112  1.00  0.00     0.020 A 
HETATM   17  C   UNL     1       3.700  34.725  63.784  1.00  0.00     0.038 A 
HETATM   18  C   UNL     1       4.494  35.236  64.809  1.00  0.00     0.068 A 
HETATM   19  C   UNL     1       5.727  34.646  65.106  1.00  0.00     0.038 A 
HETATM   20  C   UNL     1       6.129  33.478  64.449  1.00  0.00     0.020 A 
BRANCH  18  21
HETATM   21  O   UNL     1       4.127  36.310  65.574  1.00  0.00    -0.356 OA
HETATM   22  C   UNL     1       4.218  36.047  66.977  1.00  0.00     0.210 C 
ENDBRANCH  18  21
ENDBRANCH  12  15
ENDBRANCH   9  11
ENDBRANCH   7   9
ENDBRANCH   1   7
BRANCH   4  23
HETATM   23  N   UNL     1       6.985  28.260  56.130  1.00  0.00    -0.378 N 
HETATM   24  C   UNL     1       8.117  27.328  55.987  1.00  0.00     0.143 C 
HETATM   25  C   UNL     1       7.612  25.874  55.793  1.00  0.00     0.146 C 
HETATM   26  N   UNL     1       6.538  25.745  54.793  1.00  0.00    -0.345 N 
HETATM   27  C   UNL     1       6.264  24.618  54.020  1.00  0.00     0.253 C 
HETATM   28  C   UNL     1       5.482  26.756  54.879  1.00  0.00     0.146 C 
HETATM   29  O   UNL     1       5.360  24.584  53.185  1.00  0.00    -0.267 OA
HETATM   30  C   UNL     1       6.019  28.185  55.016  1.00  0.00     0.143 C 
BRANCH  27  31
HETATM   31  C   UNL     1       7.067  23.386  54.176  1.00  0.00     0.032 A 
HETATM   32  C   UNL     1       7.206  22.761  55.420  1.00  0.00     0.017 A 
HETATM   33  C   UNL     1       7.889  21.547  55.513  1.00  0.00     0.001 A 
HETATM   34  C   UNL     1       8.410  20.948  54.365  1.00  0.00     0.000 A 
HETATM   35  C   UNL     1       8.245  21.554  53.120  1.00  0.00     0.001 A 
HETATM   36  C   UNL     1       7.568  22.770  53.023  1.00  0.00     0.017 A 
ENDBRANCH  27  31
ENDBRANCH   4  23
TORSDOF 7
ENDMDL
MODEL 5
REMARK VINA RESULT:      -9.9      1.839      2.111
REMARK  7 active torsions:
REMARK  status: ('A' for Active; 'I' for Inactive)
REMARK    1  A    between atoms: O_2  and  C_3 
REMARK    2  A    between atoms: C_6  and  C_7 
REMARK       I    between atoms: C_7  and  N_8 
REMARK    3  A    between atoms: N_8  and  C_9 
REMARK    4  A    between atoms: C_9  and  N_10 
REMARK    5  A    between atoms: N_10  and  C_11 
REMARK    6  A    between atoms: C_14  and  N_15 
REMARK       I    between atoms: N_18  and  C_19 
REMARK    7  A    between atoms: C_19  and  C_20 
ROOT
HETATM    1  C   UNL     1       7.576  31.750  60.292  1.00  0.00     0.034 C 
HETATM    2  C   UNL     1       6.592  31.943  59.328  1.00  0.00     0.032 C 
HETATM    3  C   UNL     1       6.517  31.095  58.218  1.00  0.00     0.031 C 
HETATM    4  C   UNL     1       7.417  30.035  58.034  1.00  0.00     0.030 C 
HETATM    5  C   UNL     1       8.507  29.984  58.919  1.00  0.00     0.031 C 
HETATM    6  C   UNL     1       8.599  30.840  60.033  1.00  0.00     0.032 C 
ENDROOT
BRANCH   1   7
HETATM    7  N   UNL     1       7.483  32.368  61.574  1.00  0.00    -0.333 N 
HETATM    8  H   UNL     1       8.037  31.917  62.288  1.00  0.00     0.168 HD
BRANCH   7   9
HETATM    9  C   UNL     1       6.283  32.855  62.057  1.00  0.00     0.179 C 
HETATM   10  S   UNL     1       4.984  31.992  62.692  1.00  0.00    -0.040 SA
BRANCH   9  11
HETATM   11  N   UNL     1       6.109  34.230  62.111  1.00  0.00    -0.299 N 
HETATM   12  C   UNL     1       5.791  35.292  62.950  1.00  0.00     0.257 C 
HETATM   13  O   UNL     1       5.737  36.427  62.476  1.00  0.00    -0.267 OA
HETATM   14  H   UNL     1       6.342  34.626  61.205  1.00  0.00     0.171 HD
BRANCH  12  15
HETATM   15  C   UNL     1       5.605  35.155  64.396  1.00  0.00     0.032 A 
HETATM   16  C   UNL     1       4.345  35.505  64.904  1.00  0.00     0.020 A 
HETATM   17  C   UNL     1       3.966  35.098  66.183  1.00  0.00     0.038 A 
HETATM   18  C   UNL     1       4.840  34.322  66.943  1.00  0.00     0.068 A 
HETATM   19  C   UNL     1       6.119  34.023  66.460  1.00  0.00     0.038 A 
HETATM   20  C   UNL     1       6.496  34.412  65.171  1.00  0.00     0.020 A 
BRANCH  18  21
HETATM   21  O   UNL     1       4.511  33.810  68.168  1.00  0.00    -0.356 OA
HETATM   22  C   UNL     1       5.552  33.975  69.135  1.00  0.00     0.210 C 
ENDBRANCH  18  21
ENDBRANCH  12  15
ENDBRANCH   9  11
ENDBRANCH   7   9
ENDBRANCH   1   7
BRANCH   4  23
HETATM   23  N   UNL     1       7.177  29.008  57.130  1.00  0.00    -0.378 N 
HETATM   24  C   UNL     1       8.252  28.095  56.703  1.00  0.00     0.143 C 
HETATM   25  C   UNL     1       7.673  26.711  56.305  1.00  0.00     0.146 C 
HETATM   26  N   UNL     1       6.500  26.789  55.417  1.00  0.00    -0.345 N 
HETATM   27  C   UNL     1       6.108  25.828  54.487  1.00  0.00     0.253 C 
HETATM   28  C   UNL     1       5.498  27.788  55.794  1.00  0.00     0.146 C 
HETATM   29  O   UNL     1       5.124  25.966  53.760  1.00  0.00    -0.267 OA
HETATM   30  C   UNL     1       6.102  29.157  56.128  1.00  0.00     0.143 C 
BRANCH  27  31
HETATM   31  C   UNL     1       6.874  24.572  54.334  1.00  0.00     0.032 A 
HETATM   32  C   UNL     1       7.018  23.674  55.397  1.00  0.00     0.017 A 
HETATM   33  C   UNL     1       7.663  22.454  55.189  1.00  0.00     0.001 A 
HETATM   34  C   UNL     1       8.141  22.122  53.921  1.00  0.00     0.000 A 
HETATM   35  C   UNL     1       7.970  23.003  52.853  1.00  0.00     0.001 A 
HETATM   36  C   UNL     1       7.331  24.226  53.057  1.00  0.00     0.017 A 
ENDBRANCH  27  31
ENDBRANCH   4  23
TORSDOF 7
ENDMDL
MODEL 6
REMARK VINA RESULT:      -9.7      6.954     10.590
REMARK  7 active torsions:
REMARK  status: ('A' for Active; 'I' for Inactive)
REMARK    1  A    between atoms: O_2  and  C_3 
REMARK    2  A    between atoms: C_6  and  C_7 
REMARK       I    between atoms: C_7  and  N_8 
REMARK    3  A    between atoms: N_8  and  C_9 
REMARK    4  A    between atoms: C_9  and  N_10 
REMARK    5  A    between atoms: N_10  and  C_11 
REMARK    6  A    between atoms: C_14  and  N_15 
REMARK       I    between atoms: N_18  and  C_19 
REMARK    7  A    between atoms: C_19  and  C_20 
ROOT
HETATM    1  C   UNL     1       3.690  30.461  53.568  1.00  0.00     0.034 C 
HETATM    2  C   UNL     1       4.334  30.489  54.802  1.00  0.00     0.032 C 
HETATM    3  C   UNL     1       4.870  29.315  55.343  1.00  0.00     0.031 C 
HETATM    4  C   UNL     1       4.781  28.084  54.677  1.00  0.00     0.030 C 
HETATM    5  C   UNL     1       3.965  28.054  53.534  1.00  0.00     0.031 C 
HETATM    6  C   UNL     1       3.410  29.227  52.986  1.00  0.00     0.032 C 
ENDROOT
BRANCH   1   7
HETATM    7  N   UNL     1       3.432  31.662  52.845  1.00  0.00    -0.333 N 
HETATM    8  H   UNL     1       2.661  32.203  53.212  1.00  0.00     0.168 HD
BRANCH   7   9
HETATM    9  C   UNL     1       3.509  31.710  51.466  1.00  0.00     0.179 C 
HETATM   10  S   UNL     1       2.320  32.176  50.368  1.00  0.00    -0.040 SA
BRANCH   9  11
HETATM   11  N   UNL     1       4.724  31.410  50.868  1.00  0.00    -0.299 N 
HETATM   12  C   UNL     1       5.390  30.478  50.081  1.00  0.00     0.257 C 
HETATM   13  O   UNL     1       6.578  30.666  49.818  1.00  0.00    -0.267 OA
HETATM   14  H   UNL     1       5.365  32.182  51.023  1.00  0.00     0.171 HD
BRANCH  12  15
HETATM   15  C   UNL     1       4.736  29.322  49.463  1.00  0.00     0.032 A 
HETATM   16  C   UNL     1       4.078  29.548  48.246  1.00  0.00     0.020 A 
HETATM   17  C   UNL     1       3.726  28.473  47.429  1.00  0.00     0.038 A 
HETATM   18  C   UNL     1       4.054  27.177  47.821  1.00  0.00     0.068 A 
HETATM   19  C   UNL     1       4.657  26.947  49.063  1.00  0.00     0.038 A 
HETATM   20  C   UNL     1       5.030  28.022  49.877  1.00  0.00     0.020 A 
BRANCH  18  21
HETATM   21  O   UNL     1       3.824  26.078  47.039  1.00  0.00    -0.356 OA
HETATM   22  C   UNL     1       3.068  25.067  47.712  1.00  0.00     0.210 C 
ENDBRANCH  18  21
ENDBRANCH  12  15
ENDBRANCH   9  11
ENDBRANCH   7   9
ENDBRANCH   1   7
BRANCH   4  23
HETATM   23  N   UNL     1       5.563  26.992  55.032  1.00  0.00    -0.378 N 
HETATM   24  C   UNL     1       5.190  25.622  54.636  1.00  0.00     0.143 C 
HETATM   25  C   UNL     1       6.450  24.724  54.509  1.00  0.00     0.146 C 
HETATM   26  N   UNL     1       7.381  24.839  55.645  1.00  0.00    -0.345 N 
HETATM   27  C   UNL     1       8.251  23.850  56.098  1.00  0.00     0.253 C 
HETATM   28  C   UNL     1       7.644  26.206  56.099  1.00  0.00     0.146 C 
HETATM   29  O   UNL     1       8.991  24.006  57.070  1.00  0.00    -0.267 OA
HETATM   30  C   UNL     1       6.373  27.047  56.265  1.00  0.00     0.143 C 
BRANCH  27  31
HETATM   31  C   UNL     1       8.326  22.541  55.412  1.00  0.00     0.032 A 
HETATM   32  C   UNL     1       8.680  22.448  54.063  1.00  0.00     0.017 A 
HETATM   33  C   UNL     1       8.836  21.191  53.474  1.00  0.00     0.001 A 
HETATM   34  C   UNL     1       8.663  20.035  54.235  1.00  0.00     0.000 A 
HETATM   35  C   UNL     1       8.340  20.128  55.589  1.00  0.00     0.001 A 
HETATM   36  C   UNL     1       8.178  21.381  56.181  1.00  0.00     0.017 A 
ENDBRANCH  27  31
ENDBRANCH   4  23
TORSDOF 7
ENDMDL
MODEL 7
REMARK VINA RESULT:      -9.7      5.557     12.912
REMARK  7 active torsions:
REMARK  status: ('A' for Active; 'I' for Inactive)
REMARK    1  A    between atoms: O_2  and  C_3 
REMARK    2  A    between atoms: C_6  and  C_7 
REMARK       I    between atoms: C_7  and  N_8 
REMARK    3  A    between atoms: N_8  and  C_9 
REMARK    4  A    between atoms: C_9  and  N_10 
REMARK    5  A    between atoms: N_10  and  C_11 
REMARK    6  A    between atoms: C_14  and  N_15 
REMARK       I    between atoms: N_18  and  C_19 
REMARK    7  A    between atoms: C_19  and  C_20 
ROOT
HETATM    1  C   UNL     1       5.572  26.544  52.871  1.00  0.00     0.034 C 
HETATM    2  C   UNL     1       4.816  26.992  53.951  1.00  0.00     0.032 C 
HETATM    3  C   UNL     1       5.442  27.597  55.046  1.00  0.00     0.031 C 
HETATM    4  C   UNL     1       6.833  27.771  55.101  1.00  0.00     0.030 C 
HETATM    5  C   UNL     1       7.579  27.141  54.091  1.00  0.00     0.031 C 
HETATM    6  C   UNL     1       6.960  26.519  52.989  1.00  0.00     0.032 C 
ENDROOT
BRANCH   1   7
HETATM    7  N   UNL     1       4.959  26.234  51.622  1.00  0.00    -0.333 N 
HETATM    8  H   UNL     1       5.263  25.357  51.222  1.00  0.00     0.168 HD
BRANCH   7   9
HETATM    9  C   UNL     1       4.731  27.205  50.666  1.00  0.00     0.179 C 
HETATM   10  S   UNL     1       4.241  28.801  50.893  1.00  0.00    -0.040 SA
BRANCH   9  11
HETATM   11  N   UNL     1       4.993  26.893  49.340  1.00  0.00    -0.299 N 
HETATM   12  C   UNL     1       4.460  26.899  48.057  1.00  0.00     0.257 C 
HETATM   13  O   UNL     1       5.139  26.455  47.130  1.00  0.00    -0.267 OA
HETATM   14  H   UNL     1       5.956  26.579  49.261  1.00  0.00     0.171 HD
BRANCH  12  15
HETATM   15  C   UNL     1       3.162  27.489  47.720  1.00  0.00     0.032 A 
HETATM   16  C   UNL     1       3.157  28.853  47.394  1.00  0.00     0.020 A 
HETATM   17  C   UNL     1       2.059  29.415  46.745  1.00  0.00     0.038 A 
HETATM   18  C   UNL     1       0.976  28.607  46.403  1.00  0.00     0.068 A 
HETATM   19  C   UNL     1       0.955  27.260  46.782  1.00  0.00     0.038 A 
HETATM   20  C   UNL     1       2.063  26.687  47.416  1.00  0.00     0.020 A 
BRANCH  18  21
HETATM   21  O   UNL     1      -0.100  29.060  45.690  1.00  0.00    -0.356 OA
HETATM   22  C   UNL     1      -1.337  28.497  46.135  1.00  0.00     0.210 C 
ENDBRANCH  18  21
ENDBRANCH  12  15
ENDBRANCH   9  11
ENDBRANCH   7   9
ENDBRANCH   1   7
BRANCH   4  23
HETATM   23  N   UNL     1       7.436  28.633  56.009  1.00  0.00    -0.378 N 
HETATM   24  C   UNL     1       6.652  29.320  57.050  1.00  0.00     0.143 C 
HETATM   25  C   UNL     1       7.532  29.625  58.291  1.00  0.00     0.146 C 
HETATM   26  N   UNL     1       8.838  30.224  57.963  1.00  0.00    -0.345 N 
HETATM   27  C   UNL     1       9.581  31.074  58.779  1.00  0.00     0.253 C 
HETATM   28  C   UNL     1       9.547  29.598  56.845  1.00  0.00     0.146 C 
HETATM   29  O   UNL     1      10.660  31.557  58.434  1.00  0.00    -0.267 OA
HETATM   30  C   UNL     1       8.659  29.361  55.618  1.00  0.00     0.143 C 
BRANCH  27  31
HETATM   31  C   UNL     1       9.094  31.438  60.128  1.00  0.00     0.032 A 
HETATM   32  C   UNL     1       8.304  32.574  60.333  1.00  0.00     0.017 A 
HETATM   33  C   UNL     1       7.780  32.833  61.601  1.00  0.00     0.001 A 
HETATM   34  C   UNL     1       8.026  31.950  62.653  1.00  0.00     0.000 A 
HETATM   35  C   UNL     1       8.788  30.801  62.442  1.00  0.00     0.001 A 
HETATM   36  C   UNL     1       9.318  30.540  61.178  1.00  0.00     0.017 A 
ENDBRANCH  27  31
ENDBRANCH   4  23
TORSDOF 7
ENDMDL
MODEL 8
REMARK VINA RESULT:      -9.4      2.366      3.133
REMARK  7 active torsions:
REMARK  status: ('A' for Active; 'I' for Inactive)
REMARK    1  A    between atoms: O_2  and  C_3 
REMARK    2  A    between atoms: C_6  and  C_7 
REMARK       I    between atoms: C_7  and  N_8 
REMARK    3  A    between atoms: N_8  and  C_9 
REMARK    4  A    between atoms: C_9  and  N_10 
REMARK    5  A    between atoms: N_10  and  C_11 
REMARK    6  A    between atoms: C_14  and  N_15 
REMARK       I    between atoms: N_18  and  C_19 
REMARK    7  A    between atoms: C_19  and  C_20 
ROOT
HETATM    1  C   UNL     1       4.458  30.555  57.830  1.00  0.00     0.034 C 
HETATM    2  C   UNL     1       3.781  29.973  56.762  1.00  0.00     0.032 C 
HETATM    3  C   UNL     1       4.454  29.121  55.881  1.00  0.00     0.031 C 
HETATM    4  C   UNL     1       5.817  28.825  56.034  1.00  0.00     0.030 C 
HETATM    5  C   UNL     1       6.511  29.572  56.999  1.00  0.00     0.031 C 
HETATM    6  C   UNL     1       5.846  30.442  57.885  1.00  0.00     0.032 C 
ENDROOT
BRANCH   1   7
HETATM    7  N   UNL     1       3.750  31.148  58.916  1.00  0.00    -0.333 N 
HETATM    8  H   UNL     1       2.875  30.690  59.133  1.00  0.00     0.168 HD
BRANCH   7   9
HETATM    9  C   UNL     1       3.690  32.519  59.080  1.00  0.00     0.179 C 
HETATM   10  S   UNL     1       3.601  33.711  57.894  1.00  0.00    -0.040 SA
BRANCH   9  11
HETATM   11  N   UNL     1       3.623  33.021  60.372  1.00  0.00    -0.299 N 
HETATM   12  C   UNL     1       4.366  33.283  61.516  1.00  0.00     0.257 C 
HETATM   13  O   UNL     1       3.794  33.753  62.500  1.00  0.00    -0.267 OA
HETATM   14  H   UNL     1       2.685  33.373  60.538  1.00  0.00     0.171 HD
BRANCH  12  15
HETATM   15  C   UNL     1       5.819  33.119  61.595  1.00  0.00     0.032 A 
HETATM   16  C   UNL     1       6.348  32.790  62.852  1.00  0.00     0.020 A 
HETATM   17  C   UNL     1       7.645  32.289  62.959  1.00  0.00     0.038 A 
HETATM   18  C   UNL     1       8.403  32.098  61.805  1.00  0.00     0.068 A 
HETATM   19  C   UNL     1       7.899  32.482  60.558  1.00  0.00     0.038 A 
HETATM   20  C   UNL     1       6.591  32.966  60.443  1.00  0.00     0.020 A 
BRANCH  18  21
HETATM   21  O   UNL     1       9.649  31.531  61.815  1.00  0.00    -0.356 OA
HETATM   22  C   UNL     1       9.621  30.139  62.141  1.00  0.00     0.210 C 
ENDBRANCH  18  21
ENDBRANCH  12  15
ENDBRANCH   9  11
ENDBRANCH   7   9
ENDBRANCH   1   7
BRANCH   4  23
HETATM   23  N   UNL     1       6.421  27.758  55.379  1.00  0.00    -0.378 N 
HETATM   24  C   UNL     1       7.070  26.667  56.127  1.00  0.00     0.143 C 
HETATM   25  C   UNL     1       7.035  25.346  55.314  1.00  0.00     0.146 C 
HETATM   26  N   UNL     1       7.447  25.500  53.908  1.00  0.00    -0.345 N 
HETATM   27  C   UNL     1       8.029  24.518  53.110  1.00  0.00     0.253 C 
HETATM   28  C   UNL     1       6.882  26.661  53.217  1.00  0.00     0.146 C 
HETATM   29  O   UNL     1       8.369  24.720  51.944  1.00  0.00    -0.267 OA
HETATM   30  C   UNL     1       6.983  27.958  54.028  1.00  0.00     0.143 C 
BRANCH  27  31
HETATM   31  C   UNL     1       8.267  23.158  53.642  1.00  0.00     0.032 A 
HETATM   32  C   UNL     1       8.969  22.957  54.835  1.00  0.00     0.017 A 
HETATM   33  C   UNL     1       9.090  21.669  55.359  1.00  0.00     0.001 A 
HETATM   34  C   UNL     1       8.492  20.590  54.706  1.00  0.00     0.000 A 
HETATM   35  C   UNL     1       7.765  20.794  53.534  1.00  0.00     0.001 A 
HETATM   36  C   UNL     1       7.646  22.079  53.003  1.00  0.00     0.017 A 
ENDBRANCH  27  31
ENDBRANCH   4  23
TORSDOF 7
ENDMDL
MODEL 9
REMARK VINA RESULT:      -9.3      2.087      2.695
REMARK  7 active torsions:
REMARK  status: ('A' for Active; 'I' for Inactive)
REMARK    1  A    between atoms: O_2  and  C_3 
REMARK    2  A    between atoms: C_6  and  C_7 
REMARK       I    between atoms: C_7  and  N_8 
REMARK    3  A    between atoms: N_8  and  C_9 
REMARK    4  A    between atoms: C_9  and  N_10 
REMARK    5  A    between atoms: N_10  and  C_11 
REMARK    6  A    between atoms: C_14  and  N_15 
REMARK       I    between atoms: N_18  and  C_19 
REMARK    7  A    between atoms: C_19  and  C_20 
ROOT
HETATM    1  C   UNL     1       6.206  31.179  57.798  1.00  0.00     0.034 C 
HETATM    2  C   UNL     1       5.342  30.457  56.979  1.00  0.00     0.032 C 
HETATM    3  C   UNL     1       5.688  29.172  56.549  1.00  0.00     0.031 C 
HETATM    4  C   UNL     1       6.900  28.569  56.917  1.00  0.00     0.030 C 
HETATM    5  C   UNL     1       7.827  29.391  57.581  1.00  0.00     0.031 C 
HETATM    6  C   UNL     1       7.494  30.690  58.009  1.00  0.00     0.032 C 
ENDROOT
BRANCH   1   7
HETATM    7  N   UNL     1       5.755  32.327  58.513  1.00  0.00    -0.333 N 
HETATM    8  H   UNL     1       6.390  33.112  58.469  1.00  0.00     0.168 HD
BRANCH   7   9
HETATM    9  C   UNL     1       5.127  32.217  59.739  1.00  0.00     0.179 C 
HETATM   10  S   UNL     1       3.486  32.362  60.089  1.00  0.00    -0.040 SA
BRANCH   9  11
HETATM   11  N   UNL     1       5.896  31.874  60.841  1.00  0.00    -0.299 N 
HETATM   12  C   UNL     1       6.246  32.256  62.131  1.00  0.00     0.257 C 
HETATM   13  O   UNL     1       7.062  31.573  62.751  1.00  0.00    -0.267 OA
HETATM   14  H   UNL     1       6.346  30.982  60.662  1.00  0.00     0.171 HD
BRANCH  12  15
HETATM   15  C   UNL     1       5.632  33.380  62.839  1.00  0.00     0.032 A 
HETATM   16  C   UNL     1       4.997  33.087  64.055  1.00  0.00     0.020 A 
HETATM   17  C   UNL     1       4.688  34.111  64.949  1.00  0.00     0.038 A 
HETATM   18  C   UNL     1       5.033  35.425  64.635  1.00  0.00     0.068 A 
HETATM   19  C   UNL     1       5.611  35.725  63.396  1.00  0.00     0.038 A 
HETATM   20  C   UNL     1       5.942  34.699  62.504  1.00  0.00     0.020 A 
BRANCH  18  21
HETATM   21  O   UNL     1       4.844  36.473  65.493  1.00  0.00    -0.356 OA
HETATM   22  C   UNL     1       4.373  36.059  66.779  1.00  0.00     0.210 C 
ENDBRANCH  18  21
ENDBRANCH  12  15
ENDBRANCH   9  11
ENDBRANCH   7   9
ENDBRANCH   1   7
BRANCH   4  23
HETATM   23  N   UNL     1       7.124  27.206  56.771  1.00  0.00    -0.378 N 
HETATM   24  C   UNL     1       6.529  26.447  55.656  1.00  0.00     0.143 C 
HETATM   25  C   UNL     1       7.410  25.222  55.292  1.00  0.00     0.146 C 
HETATM   26  N   UNL     1       7.839  24.429  56.458  1.00  0.00    -0.345 N 
HETATM   27  C   UNL     1       8.135  23.068  56.463  1.00  0.00     0.253 C 
HETATM   28  C   UNL     1       8.315  25.211  57.601  1.00  0.00     0.146 C 
HETATM   29  O   UNL     1       8.470  22.461  57.480  1.00  0.00    -0.267 OA
HETATM   30  C   UNL     1       7.392  26.380  57.964  1.00  0.00     0.143 C 
BRANCH  27  31
HETATM   31  C   UNL     1       8.059  22.277  55.215  1.00  0.00     0.032 A 
HETATM   32  C   UNL     1       7.909  22.896  53.970  1.00  0.00     0.017 A 
HETATM   33  C   UNL     1       7.939  22.127  52.806  1.00  0.00     0.001 A 
HETATM   34  C   UNL     1       8.143  20.748  52.884  1.00  0.00     0.000 A 
HETATM   35  C   UNL     1       8.324  20.134  54.123  1.00  0.00     0.001 A 
HETATM   36  C   UNL     1       8.289  20.898  55.290  1.00  0.00     0.017 A 
ENDBRANCH  27  31
ENDBRANCH   4  23
TORSDOF 7
ENDMDL
MODEL 10
REMARK VINA RESULT:      -9.2      1.842      2.605
REMARK  7 active torsions:
REMARK  status: ('A' for Active; 'I' for Inactive)
REMARK    1  A    between atoms: O_2  and  C_3 
REMARK    2  A    between atoms: C_6  and  C_7 
REMARK       I    between atoms: C_7  and  N_8 
REMARK    3  A    between atoms: N_8  and  C_9 
REMARK    4  A    between atoms: C_9  and  N_10 
REMARK    5  A    between atoms: N_10  and  C_11 
REMARK    6  A    between atoms: C_14  and  N_15 
REMARK       I    between atoms: N_18  and  C_19 
REMARK    7  A    between atoms: C_19  and  C_20 
ROOT
HETATM    1  C   UNL     1       6.036  31.172  58.213  1.00  0.00     0.034 C 
HETATM    2  C   UNL     1       7.266  30.522  58.265  1.00  0.00     0.032 C 
HETATM    3  C   UNL     1       7.410  29.241  57.721  1.00  0.00     0.031 C 
HETATM    4  C   UNL     1       6.338  28.570  57.114  1.00  0.00     0.030 C 
HETATM    5  C   UNL     1       5.074  29.169  57.247  1.00  0.00     0.031 C 
HETATM    6  C   UNL     1       4.916  30.453  57.803  1.00  0.00     0.032 C 
ENDROOT
BRANCH   1   7
HETATM    7  N   UNL     1       5.934  32.574  58.449  1.00  0.00    -0.333 N 
HETATM    8  H   UNL     1       6.225  32.856  59.374  1.00  0.00     0.168 HD
BRANCH   7   9
HETATM    9  C   UNL     1       4.865  33.312  57.978  1.00  0.00     0.179 C 
HETATM   10  S   UNL     1       4.668  34.016  56.461  1.00  0.00    -0.040 SA
BRANCH   9  11
HETATM   11  N   UNL     1       3.758  33.460  58.801  1.00  0.00    -0.299 N 
HETATM   12  C   UNL     1       3.348  33.581  60.123  1.00  0.00     0.257 C 
HETATM   13  O   UNL     1       2.143  33.670  60.365  1.00  0.00    -0.267 OA
HETATM   14  H   UNL     1       2.930  33.562  58.221  1.00  0.00     0.171 HD
BRANCH  12  15
HETATM   15  C   UNL     1       4.273  33.702  61.252  1.00  0.00     0.032 A 
HETATM   16  C   UNL     1       4.830  34.970  61.475  1.00  0.00     0.020 A 
HETATM   17  C   UNL     1       5.440  35.263  62.695  1.00  0.00     0.038 A 
HETATM   18  C   UNL     1       5.471  34.294  63.697  1.00  0.00     0.068 A 
HETATM   19  C   UNL     1       4.969  33.011  63.453  1.00  0.00     0.038 A 
HETATM   20  C   UNL     1       4.339  32.718  62.238  1.00  0.00     0.020 A 
BRANCH  18  21
HETATM   21  O   UNL     1       5.971  34.530  64.948  1.00  0.00    -0.356 OA
HETATM   22  C   UNL     1       7.051  33.655  65.288  1.00  0.00     0.210 C 
ENDBRANCH  18  21
ENDBRANCH  12  15
ENDBRANCH   9  11
ENDBRANCH   7   9
ENDBRANCH   1   7
BRANCH   4  23
HETATM   23  N   UNL     1       6.526  27.457  56.303  1.00  0.00    -0.378 N 
HETATM   24  C   UNL     1       7.640  26.521  56.532  1.00  0.00     0.143 C 
HETATM   25  C   UNL     1       7.274  25.098  56.032  1.00  0.00     0.146 C 
HETATM   26  N   UNL     1       6.676  25.074  54.686  1.00  0.00    -0.345 N 
HETATM   27  C   UNL     1       6.745  24.024  53.774  1.00  0.00     0.253 C 
HETATM   28  C   UNL     1       5.653  26.093  54.441  1.00  0.00     0.146 C 
HETATM   29  O   UNL     1       6.237  24.078  52.654  1.00  0.00    -0.267 OA
HETATM   30  C   UNL     1       6.071  27.495  54.899  1.00  0.00     0.143 C 
BRANCH  27  31
HETATM   31  C   UNL     1       7.444  22.768  54.123  1.00  0.00     0.032 A 
HETATM   32  C   UNL     1       7.447  22.278  55.434  1.00  0.00     0.017 A 
HETATM   33  C   UNL     1       8.033  21.041  55.709  1.00  0.00     0.001 A 
HETATM   34  C   UNL     1       8.593  20.287  54.677  1.00  0.00     0.000 A 
HETATM   35  C   UNL     1       8.563  20.760  53.365  1.00  0.00     0.001 A 
HETATM   36  C   UNL     1       7.983  21.998  53.085  1.00  0.00     0.017 A 
ENDBRANCH  27  31
ENDBRANCH   4  23
TORSDOF 7
ENDMDL
