MODEL 1
REMARK VINA RESULT:     -10.4      0.000      0.000
REMARK  9 active torsions:
REMARK  status: ('A' for Active; 'I' for Inactive)
REMARK    1  A    between atoms: C_2  and  C_3 
REMARK    2  A    between atoms: C_4  and  O_5 
REMARK    3  A    between atoms: C_6  and  C_7 
REMARK    4  A    between atoms: C_12  and  C_13 
REMARK    5  A    between atoms: C_13  and  C_14 
REMARK    6  A    between atoms: C_14  and  N_15 
REMARK    7  A    between atoms: N_20  and  C_21 
REMARK    8  A    between atoms: C_21  and  C_22 
REMARK    9  A    between atoms: C_22  and  N_23 
ROOT
HETATM    1  N   UNL     1       7.246  29.390  57.497  1.00  0.00    -0.174 N 
HETATM    2  C   UNL     1       6.737  30.361  58.331  1.00  0.00     0.681 A 
HETATM    3  N   UNL     1       5.436  30.515  58.597  1.00  0.00    -0.234 N 
HETATM    4  H   UNL     1       5.061  31.258  59.163  1.00  0.00     0.174 HD
HETATM    5  H   UNL     1       4.771  30.090  57.939  1.00  0.00     0.174 HD
HETATM    6  N   UNL     1       7.732  31.177  58.902  1.00  0.00    -0.180 N 
HETATM    7  C   UNL     1       8.943  30.744  58.262  1.00  0.00     0.079 A 
HETATM    8  C   UNL     1       8.642  29.652  57.425  1.00  0.00     0.079 A 
HETATM    9  C   UNL     1      10.235  31.221  58.353  1.00  0.00     0.032 A 
HETATM   10  C   UNL     1      11.230  30.565  57.615  1.00  0.00     0.002 A 
HETATM   11  C   UNL     1      10.924  29.463  56.801  1.00  0.00     0.002 A 
HETATM   12  C   UNL     1       9.613  28.995  56.696  1.00  0.00     0.032 A 
ENDROOT
BRANCH   1  13
HETATM   13  C   UNL     1       6.556  28.246  56.880  1.00  0.00     0.231 C 
BRANCH  13  14
HETATM   14  C   UNL     1       7.098  26.887  57.260  1.00  0.00     0.178 C 
HETATM   15  O   UNL     1       7.602  26.689  58.365  1.00  0.00    -0.290 OA
BRANCH  14  16
HETATM   16  C   UNL     1       7.039  25.806  56.230  1.00  0.00     0.013 A 
HETATM   17  C   UNL     1       7.586  24.549  56.499  1.00  0.00     0.026 A 
HETATM   18  C   UNL     1       7.615  23.537  55.527  1.00  0.00    -0.016 A 
HETATM   19  C   UNL     1       7.074  23.856  54.254  1.00  0.00     0.079 A 
HETATM   20  C   UNL     1       6.476  25.108  53.946  1.00  0.00    -0.016 A 
HETATM   21  C   UNL     1       6.462  26.067  54.984  1.00  0.00     0.026 A 
BRANCH  18  22
HETATM   22  C   UNL     1       8.247  22.155  55.852  1.00  0.00    -0.021 C 
HETATM   23  C   UNL     1       8.473  22.050  57.374  1.00  0.00     0.019 C 
HETATM   24  C   UNL     1       7.346  20.956  55.449  1.00  0.00     0.019 C 
HETATM   25  C   UNL     1       9.582  21.931  55.104  1.00  0.00     0.019 C 
ENDBRANCH  18  22
BRANCH  19  26
HETATM   26  O   UNL     1       7.204  22.889  53.299  1.00  0.00    -0.360 OA
HETATM   27  H   UNL     1       6.700  22.102  53.552  1.00  0.00     0.217 HD
ENDBRANCH  19  26
BRANCH  20  28
HETATM   28  C   UNL     1       5.876  25.458  52.555  1.00  0.00    -0.021 C 
HETATM   29  C   UNL     1       4.641  24.573  52.279  1.00  0.00     0.019 C 
HETATM   30  C   UNL     1       6.914  25.300  51.419  1.00  0.00     0.019 C 
HETATM   31  C   UNL     1       5.379  26.927  52.446  1.00  0.00     0.019 C 
ENDBRANCH  20  28
ENDBRANCH  14  16
ENDBRANCH  13  14
ENDBRANCH   1  13
BRANCH   6  32
HETATM   32  C   UNL     1       7.500  32.177  59.960  1.00  0.00     0.175 C 
BRANCH  32  33
HETATM   33  C   UNL     1       7.820  31.744  61.407  1.00  0.00     0.255 C 
BRANCH  33  34
HETATM   34  N   UNL     1       7.114  32.527  62.497  1.00  0.00    -0.070 N 
HETATM   35  H   UNL     1       7.008  33.473  62.098  1.00  0.00     0.279 HD
HETATM   36  C   UNL     1       5.701  32.075  62.801  1.00  0.00     0.235 C 
HETATM   37  C   UNL     1       5.015  33.126  63.663  1.00  0.00     0.028 C 
HETATM   38  C   UNL     1       5.809  33.430  64.931  1.00  0.00     0.003 C 
HETATM   39  C   UNL     1       7.255  33.799  64.613  1.00  0.00     0.028 C 
HETATM   40  C   UNL     1       7.932  32.739  63.754  1.00  0.00     0.235 C 
ENDBRANCH  33  34
ENDBRANCH  32  33
ENDBRANCH   6  32
TORSDOF 9
ENDMDL
MODEL 2
REMARK VINA RESULT:     -10.4      1.346      2.568
REMARK  9 active torsions:
REMARK  status: ('A' for Active; 'I' for Inactive)
REMARK    1  A    between atoms: C_2  and  C_3 
REMARK    2  A    between atoms: C_4  and  O_5 
REMARK    3  A    between atoms: C_6  and  C_7 
REMARK    4  A    between atoms: C_12  and  C_13 
REMARK    5  A    between atoms: C_13  and  C_14 
REMARK    6  A    between atoms: C_14  and  N_15 
REMARK    7  A    between atoms: N_20  and  C_21 
REMARK    8  A    between atoms: C_21  and  C_22 
REMARK    9  A    between atoms: C_22  and  N_23 
ROOT
HETATM    1  N   UNL     1       7.361  28.846  57.505  1.00  0.00    -0.174 N 
HETATM    2  C   UNL     1       7.623  29.895  58.359  1.00  0.00     0.681 A 
HETATM    3  N   UNL     1       8.734  30.008  59.091  1.00  0.00    -0.234 N 
HETATM    4  H   UNL     1       8.899  30.746  59.755  1.00  0.00     0.174 HD
HETATM    5  H   UNL     1       9.279  29.151  59.249  1.00  0.00     0.174 HD
HETATM    6  N   UNL     1       6.600  30.864  58.373  1.00  0.00    -0.180 N 
HETATM    7  C   UNL     1       5.571  30.292  57.551  1.00  0.00     0.079 A 
HETATM    8  C   UNL     1       6.046  29.078  57.017  1.00  0.00     0.079 A 
HETATM    9  C   UNL     1       4.299  30.738  57.252  1.00  0.00     0.032 A 
HETATM   10  C   UNL     1       3.520  29.963  56.382  1.00  0.00     0.002 A 
HETATM   11  C   UNL     1       4.011  28.766  55.837  1.00  0.00     0.002 A 
HETATM   12  C   UNL     1       5.289  28.308  56.156  1.00  0.00     0.032 A 
ENDROOT
BRANCH   1  13
HETATM   13  C   UNL     1       8.256  27.760  57.076  1.00  0.00     0.231 C 
BRANCH  13  14
HETATM   14  C   UNL     1       7.846  26.375  57.524  1.00  0.00     0.178 C 
HETATM   15  O   UNL     1       7.725  26.102  58.718  1.00  0.00    -0.290 OA
BRANCH  14  16
HETATM   16  C   UNL     1       7.638  25.339  56.467  1.00  0.00     0.013 A 
HETATM   17  C   UNL     1       7.981  24.007  56.712  1.00  0.00     0.026 A 
HETATM   18  C   UNL     1       7.869  23.025  55.716  1.00  0.00    -0.016 A 
HETATM   19  C   UNL     1       7.405  23.451  54.444  1.00  0.00     0.079 A 
HETATM   20  C   UNL     1       7.012  24.787  54.160  1.00  0.00    -0.016 A 
HETATM   21  C   UNL     1       7.129  25.714  55.220  1.00  0.00     0.026 A 
BRANCH  18  22
HETATM   22  C   UNL     1       8.275  21.554  56.015  1.00  0.00    -0.021 C 
HETATM   23  C   UNL     1       8.450  21.380  57.537  1.00  0.00     0.019 C 
HETATM   24  C   UNL     1       7.211  20.517  55.564  1.00  0.00     0.019 C 
HETATM   25  C   UNL     1       9.577  21.146  55.286  1.00  0.00     0.019 C 
ENDBRANCH  18  22
BRANCH  19  26
HETATM   26  O   UNL     1       7.400  22.497  53.468  1.00  0.00    -0.360 OA
HETATM   27  H   UNL     1       6.621  21.931  53.561  1.00  0.00     0.217 HD
ENDBRANCH  19  26
BRANCH  20  28
HETATM   28  C   UNL     1       6.496  25.256  52.770  1.00  0.00    -0.021 C 
HETATM   29  C   UNL     1       5.113  24.630  52.486  1.00  0.00     0.019 C 
HETATM   30  C   UNL     1       7.487  24.906  51.635  1.00  0.00     0.019 C 
HETATM   31  C   UNL     1       6.294  26.794  52.671  1.00  0.00     0.019 C 
ENDBRANCH  20  28
ENDBRANCH  14  16
ENDBRANCH  13  14
ENDBRANCH   1  13
BRANCH   6  32
HETATM   32  C   UNL     1       6.683  32.169  59.053  1.00  0.00     0.175 C 
BRANCH  32  33
HETATM   33  C   UNL     1       5.760  32.377  60.273  1.00  0.00     0.255 C 
BRANCH  33  34
HETATM   34  N   UNL     1       6.453  32.792  61.556  1.00  0.00    -0.070 N 
HETATM   35  H   UNL     1       7.103  33.537  61.261  1.00  0.00     0.279 HD
HETATM   36  C   UNL     1       5.558  33.446  62.588  1.00  0.00     0.235 C 
HETATM   37  C   UNL     1       6.424  34.088  63.664  1.00  0.00     0.028 C 
HETATM   38  C   UNL     1       7.391  33.087  64.291  1.00  0.00     0.003 C 
HETATM   39  C   UNL     1       8.223  32.371  63.231  1.00  0.00     0.028 C 
HETATM   40  C   UNL     1       7.348  31.730  62.163  1.00  0.00     0.235 C 
ENDBRANCH  33  34
ENDBRANCH  32  33
ENDBRANCH   6  32
TORSDOF 9
ENDMDL
MODEL 3
REMARK VINA RESULT:     -10.3      1.336      4.022
REMARK  9 active torsions:
REMARK  status: ('A' for Active; 'I' for Inactive)
REMARK    1  A    between atoms: C_2  and  C_3 
REMARK    2  A    between atoms: C_4  and  O_5 
REMARK    3  A    between atoms: C_6  and  C_7 
REMARK    4  A    between atoms: C_12  and  C_13 
REMARK    5  A    between atoms: C_13  and  C_14 
REMARK    6  A    between atoms: C_14  and  N_15 
REMARK    7  A    between atoms: N_20  and  C_21 
REMARK    8  A    between atoms: C_21  and  C_22 
REMARK    9  A    between atoms: C_22  and  N_23 
ROOT
HETATM    1  N   UNL     1       7.383  28.862  57.574  1.00  0.00    -0.174 N 
HETATM    2  C   UNL     1       7.605  29.922  58.427  1.00  0.00     0.681 A 
HETATM    3  N   UNL     1       8.705  30.069  59.172  1.00  0.00    -0.234 N 
HETATM    4  H   UNL     1       8.841  30.814  59.834  1.00  0.00     0.174 HD
HETATM    5  H   UNL     1       9.272  29.228  59.339  1.00  0.00     0.174 HD
HETATM    6  N   UNL     1       6.556  30.862  58.426  1.00  0.00    -0.180 N 
HETATM    7  C   UNL     1       5.553  30.258  57.594  1.00  0.00     0.079 A 
HETATM    8  C   UNL     1       6.068  29.056  57.070  1.00  0.00     0.079 A 
HETATM    9  C   UNL     1       4.272  30.667  57.279  1.00  0.00     0.032 A 
HETATM   10  C   UNL     1       3.525  29.867  56.404  1.00  0.00     0.002 A 
HETATM   11  C   UNL     1       4.056  28.682  55.869  1.00  0.00     0.002 A 
HETATM   12  C   UNL     1       5.343  28.261  56.205  1.00  0.00     0.032 A 
ENDROOT
BRANCH   1  13
HETATM   13  C   UNL     1       8.313  27.800  57.160  1.00  0.00     0.231 C 
BRANCH  13  14
HETATM   14  C   UNL     1       7.892  26.396  57.532  1.00  0.00     0.178 C 
HETATM   15  O   UNL     1       7.675  26.087  58.703  1.00  0.00    -0.290 OA
BRANCH  14  16
HETATM   16  C   UNL     1       7.793  25.390  56.432  1.00  0.00     0.013 A 
HETATM   17  C   UNL     1       7.320  25.770  55.173  1.00  0.00     0.026 A 
HETATM   18  C   UNL     1       7.143  24.834  54.142  1.00  0.00    -0.016 A 
HETATM   19  C   UNL     1       7.453  23.482  54.443  1.00  0.00     0.079 A 
HETATM   20  C   UNL     1       7.969  23.056  55.696  1.00  0.00    -0.016 A 
HETATM   21  C   UNL     1       8.144  24.059  56.676  1.00  0.00     0.026 A 
BRANCH  18  22
HETATM   22  C   UNL     1       6.599  25.286  52.758  1.00  0.00    -0.021 C 
HETATM   23  C   UNL     1       7.574  24.822  51.657  1.00  0.00     0.019 C 
HETATM   24  C   UNL     1       5.212  24.678  52.413  1.00  0.00     0.019 C 
HETATM   25  C   UNL     1       6.404  26.819  52.677  1.00  0.00     0.019 C 
ENDBRANCH  18  22
BRANCH  19  26
HETATM   26  O   UNL     1       7.178  22.580  53.456  1.00  0.00    -0.360 OA
HETATM   27  H   UNL     1       7.763  21.813  53.535  1.00  0.00     0.217 HD
ENDBRANCH  19  26
BRANCH  20  28
HETATM   28  C   UNL     1       8.317  21.577  56.028  1.00  0.00    -0.021 C 
HETATM   29  C   UNL     1       8.475  21.406  57.555  1.00  0.00     0.019 C 
HETATM   30  C   UNL     1       9.597  21.105  55.299  1.00  0.00     0.019 C 
HETATM   31  C   UNL     1       7.213  20.569  55.600  1.00  0.00     0.019 C 
ENDBRANCH  20  28
ENDBRANCH  14  16
ENDBRANCH  13  14
ENDBRANCH   1  13
BRANCH   6  32
HETATM   32  C   UNL     1       6.595  32.171  59.101  1.00  0.00     0.175 C 
BRANCH  32  33
HETATM   33  C   UNL     1       5.614  32.376  60.276  1.00  0.00     0.255 C 
BRANCH  33  34
HETATM   34  N   UNL     1       6.240  32.396  61.656  1.00  0.00    -0.070 N 
HETATM   35  H   UNL     1       6.066  31.448  62.025  1.00  0.00     0.279 HD
HETATM   36  C   UNL     1       7.747  32.549  61.677  1.00  0.00     0.235 C 
HETATM   37  C   UNL     1       8.261  32.234  63.076  1.00  0.00     0.028 C 
HETATM   38  C   UNL     1       7.581  33.092  64.139  1.00  0.00     0.003 C 
HETATM   39  C   UNL     1       6.061  32.997  64.049  1.00  0.00     0.028 C 
HETATM   40  C   UNL     1       5.557  33.317  62.647  1.00  0.00     0.235 C 
ENDBRANCH  33  34
ENDBRANCH  32  33
ENDBRANCH   6  32
TORSDOF 9
ENDMDL
MODEL 4
REMARK VINA RESULT:     -10.3      0.243      3.048
REMARK  9 active torsions:
REMARK  status: ('A' for Active; 'I' for Inactive)
REMARK    1  A    between atoms: C_2  and  C_3 
REMARK    2  A    between atoms: C_4  and  O_5 
REMARK    3  A    between atoms: C_6  and  C_7 
REMARK    4  A    between atoms: C_12  and  C_13 
REMARK    5  A    between atoms: C_13  and  C_14 
REMARK    6  A    between atoms: C_14  and  N_15 
REMARK    7  A    between atoms: N_20  and  C_21 
REMARK    8  A    between atoms: C_21  and  C_22 
REMARK    9  A    between atoms: C_22  and  N_23 
ROOT
HETATM    1  N   UNL     1       7.226  29.324  57.526  1.00  0.00    -0.174 N 
HETATM    2  C   UNL     1       6.705  30.336  58.303  1.00  0.00     0.681 A 
HETATM    3  N   UNL     1       5.403  30.490  58.560  1.00  0.00    -0.234 N 
HETATM    4  H   UNL     1       5.019  31.260  59.082  1.00  0.00     0.174 HD
HETATM    5  H   UNL     1       4.743  30.020  57.928  1.00  0.00     0.174 HD
HETATM    6  N   UNL     1       7.691  31.195  58.825  1.00  0.00    -0.180 N 
HETATM    7  C   UNL     1       8.907  30.741  58.211  1.00  0.00     0.079 A 
HETATM    8  C   UNL     1       8.619  29.599  57.438  1.00  0.00     0.079 A 
HETATM    9  C   UNL     1      10.193  31.237  58.273  1.00  0.00     0.032 A 
HETATM   10  C   UNL     1      11.196  30.552  57.575  1.00  0.00     0.002 A 
HETATM   11  C   UNL     1      10.903  29.401  56.825  1.00  0.00     0.002 A 
HETATM   12  C   UNL     1       9.598  28.912  56.748  1.00  0.00     0.032 A 
ENDROOT
BRANCH   1  13
HETATM   13  C   UNL     1       6.549  28.139  56.977  1.00  0.00     0.231 C 
BRANCH  13  14
HETATM   14  C   UNL     1       7.187  26.814  57.329  1.00  0.00     0.178 C 
HETATM   15  O   UNL     1       7.653  26.610  58.450  1.00  0.00    -0.290 OA
BRANCH  14  16
HETATM   16  C   UNL     1       7.269  25.779  56.255  1.00  0.00     0.013 A 
HETATM   17  C   UNL     1       6.822  26.070  54.963  1.00  0.00     0.026 A 
HETATM   18  C   UNL     1       6.815  25.097  53.952  1.00  0.00    -0.016 A 
HETATM   19  C   UNL     1       7.269  23.801  54.306  1.00  0.00     0.079 A 
HETATM   20  C   UNL     1       7.764  23.468  55.596  1.00  0.00    -0.016 A 
HETATM   21  C   UNL     1       7.764  24.506  56.554  1.00  0.00     0.026 A 
BRANCH  18  22
HETATM   22  C   UNL     1       6.296  25.449  52.529  1.00  0.00    -0.021 C 
HETATM   23  C   UNL     1       7.334  24.990  51.486  1.00  0.00     0.019 C 
HETATM   24  C   UNL     1       4.959  24.745  52.170  1.00  0.00     0.019 C 
HETATM   25  C   UNL     1       6.017  26.962  52.364  1.00  0.00     0.019 C 
ENDBRANCH  18  22
BRANCH  19  26
HETATM   26  O   UNL     1       7.158  22.850  53.332  1.00  0.00    -0.360 OA
HETATM   27  H   UNL     1       6.298  22.923  52.894  1.00  0.00     0.217 HD
ENDBRANCH  19  26
BRANCH  20  28
HETATM   28  C   UNL     1       8.270  22.050  55.986  1.00  0.00    -0.021 C 
HETATM   29  C   UNL     1       8.429  21.955  57.520  1.00  0.00     0.019 C 
HETATM   30  C   UNL     1       9.602  21.696  55.285  1.00  0.00     0.019 C 
HETATM   31  C   UNL     1       7.289  20.911  55.590  1.00  0.00     0.019 C 
ENDBRANCH  20  28
ENDBRANCH  14  16
ENDBRANCH  13  14
ENDBRANCH   1  13
BRANCH   6  32
HETATM   32  C   UNL     1       7.447  32.252  59.823  1.00  0.00     0.175 C 
BRANCH  32  33
HETATM   33  C   UNL     1       7.974  31.993  61.252  1.00  0.00     0.255 C 
BRANCH  33  34
HETATM   34  N   UNL     1       7.202  32.670  62.368  1.00  0.00    -0.070 N 
HETATM   35  H   UNL     1       7.154  33.659  62.076  1.00  0.00     0.279 HD
HETATM   36  C   UNL     1       5.758  32.238  62.506  1.00  0.00     0.235 C 
HETATM   37  C   UNL     1       5.032  33.208  63.429  1.00  0.00     0.028 C 
HETATM   38  C   UNL     1       5.727  33.334  64.782  1.00  0.00     0.003 C 
HETATM   39  C   UNL     1       7.204  33.684  64.624  1.00  0.00     0.028 C 
HETATM   40  C   UNL     1       7.920  32.706  63.701  1.00  0.00     0.235 C 
ENDBRANCH  33  34
ENDBRANCH  32  33
ENDBRANCH   6  32
TORSDOF 9
ENDMDL
MODEL 5
REMARK VINA RESULT:      -9.9      3.187      9.952
REMARK  9 active torsions:
REMARK  status: ('A' for Active; 'I' for Inactive)
REMARK    1  A    between atoms: C_2  and  C_3 
REMARK    2  A    between atoms: C_4  and  O_5 
REMARK    3  A    between atoms: C_6  and  C_7 
REMARK    4  A    between atoms: C_12  and  C_13 
REMARK    5  A    between atoms: C_13  and  C_14 
REMARK    6  A    between atoms: C_14  and  N_15 
REMARK    7  A    between atoms: N_20  and  C_21 
REMARK    8  A    between atoms: C_21  and  C_22 
REMARK    9  A    between atoms: C_22  and  N_23 
ROOT
HETATM    1  N   UNL     1       6.262  25.546  55.783  1.00  0.00    -0.174 N 
HETATM    2  C   UNL     1       5.503  25.962  54.711  1.00  0.00     0.681 A 
HETATM    3  N   UNL     1       4.563  26.909  54.780  1.00  0.00    -0.234 N 
HETATM    4  H   UNL     1       3.972  27.173  54.009  1.00  0.00     0.174 HD
HETATM    5  H   UNL     1       4.189  27.129  55.712  1.00  0.00     0.174 HD
HETATM    6  N   UNL     1       5.829  25.299  53.512  1.00  0.00    -0.180 N 
HETATM    7  C   UNL     1       6.784  24.304  53.916  1.00  0.00     0.079 A 
HETATM    8  C   UNL     1       7.052  24.471  55.289  1.00  0.00     0.079 A 
HETATM    9  C   UNL     1       7.405  23.302  53.198  1.00  0.00     0.032 A 
HETATM   10  C   UNL     1       8.326  22.489  53.871  1.00  0.00     0.002 A 
HETATM   11  C   UNL     1       8.604  22.677  55.234  1.00  0.00     0.002 A 
HETATM   12  C   UNL     1       7.959  23.678  55.962  1.00  0.00     0.032 A 
ENDROOT
BRANCH   1  13
HETATM   13  C   UNL     1       6.352  26.126  57.132  1.00  0.00     0.231 C 
BRANCH  13  14
HETATM   14  C   UNL     1       7.501  27.086  57.344  1.00  0.00     0.178 C 
HETATM   15  O   UNL     1       8.669  26.708  57.262  1.00  0.00    -0.290 OA
BRANCH  14  16
HETATM   16  C   UNL     1       7.165  28.498  57.700  1.00  0.00     0.013 A 
HETATM   17  C   UNL     1       6.035  29.111  57.154  1.00  0.00     0.026 A 
HETATM   18  C   UNL     1       5.734  30.458  57.408  1.00  0.00    -0.016 A 
HETATM   19  C   UNL     1       6.640  31.172  58.234  1.00  0.00     0.079 A 
HETATM   20  C   UNL     1       7.782  30.581  58.839  1.00  0.00    -0.016 A 
HETATM   21  C   UNL     1       8.005  29.215  58.557  1.00  0.00     0.026 A 
BRANCH  18  22
HETATM   22  C   UNL     1       4.478  31.115  56.770  1.00  0.00    -0.021 C 
HETATM   23  C   UNL     1       3.595  30.014  56.146  1.00  0.00     0.019 C 
HETATM   24  C   UNL     1       3.591  31.872  57.796  1.00  0.00     0.019 C 
HETATM   25  C   UNL     1       4.847  32.165  55.696  1.00  0.00     0.019 C 
ENDBRANCH  18  22
BRANCH  19  26
HETATM   26  O   UNL     1       6.378  32.503  58.384  1.00  0.00    -0.360 OA
HETATM   27  H   UNL     1       7.022  33.026  57.885  1.00  0.00     0.217 HD
ENDBRANCH  19  26
BRANCH  20  28
HETATM   28  C   UNL     1       8.774  31.359  59.752  1.00  0.00    -0.021 C 
HETATM   29  C   UNL     1       9.981  31.844  58.919  1.00  0.00     0.019 C 
HETATM   30  C   UNL     1       9.255  30.503  60.947  1.00  0.00     0.019 C 
HETATM   31  C   UNL     1       8.158  32.635  60.390  1.00  0.00     0.019 C 
ENDBRANCH  20  28
ENDBRANCH  14  16
ENDBRANCH  13  14
ENDBRANCH   1  13
BRANCH   6  32
HETATM   32  C   UNL     1       5.308  25.657  52.181  1.00  0.00     0.175 C 
BRANCH  32  33
HETATM   33  C   UNL     1       5.893  26.927  51.525  1.00  0.00     0.255 C 
BRANCH  33  34
HETATM   34  N   UNL     1       5.556  27.122  50.060  1.00  0.00    -0.070 N 
HETATM   35  H   UNL     1       6.407  26.817  49.563  1.00  0.00     0.279 HD
HETATM   36  C   UNL     1       4.456  26.227  49.528  1.00  0.00     0.235 C 
HETATM   37  C   UNL     1       4.445  26.300  48.007  1.00  0.00     0.028 C 
HETATM   38  C   UNL     1       4.312  27.736  47.506  1.00  0.00     0.003 C 
HETATM   39  C   UNL     1       5.373  28.645  48.120  1.00  0.00     0.028 C 
HETATM   40  C   UNL     1       5.373  28.566  49.641  1.00  0.00     0.235 C 
ENDBRANCH  33  34
ENDBRANCH  32  33
ENDBRANCH   6  32
TORSDOF 9
ENDMDL
MODEL 6
REMARK VINA RESULT:      -9.8      3.180      9.650
REMARK  9 active torsions:
REMARK  status: ('A' for Active; 'I' for Inactive)
REMARK    1  A    between atoms: C_2  and  C_3 
REMARK    2  A    between atoms: C_4  and  O_5 
REMARK    3  A    between atoms: C_6  and  C_7 
REMARK    4  A    between atoms: C_12  and  C_13 
REMARK    5  A    between atoms: C_13  and  C_14 
REMARK    6  A    between atoms: C_14  and  N_15 
REMARK    7  A    between atoms: N_20  and  C_21 
REMARK    8  A    between atoms: C_21  and  C_22 
REMARK    9  A    between atoms: C_22  and  N_23 
ROOT
HETATM    1  N   UNL     1       6.232  25.538  55.772  1.00  0.00    -0.174 N 
HETATM    2  C   UNL     1       5.488  25.950  54.687  1.00  0.00     0.681 A 
HETATM    3  N   UNL     1       4.555  26.905  54.736  1.00  0.00    -0.234 N 
HETATM    4  H   UNL     1       3.975  27.166  53.956  1.00  0.00     0.174 HD
HETATM    5  H   UNL     1       4.172  27.137  55.661  1.00  0.00     0.174 HD
HETATM    6  N   UNL     1       5.823  25.273  53.498  1.00  0.00    -0.180 N 
HETATM    7  C   UNL     1       6.765  24.275  53.922  1.00  0.00     0.079 A 
HETATM    8  C   UNL     1       7.018  24.452  55.296  1.00  0.00     0.079 A 
HETATM    9  C   UNL     1       7.387  23.262  53.221  1.00  0.00     0.032 A 
HETATM   10  C   UNL     1       8.294  22.447  53.912  1.00  0.00     0.002 A 
HETATM   11  C   UNL     1       8.557  22.646  55.277  1.00  0.00     0.002 A 
HETATM   12  C   UNL     1       7.912  23.659  55.988  1.00  0.00     0.032 A 
ENDROOT
BRANCH   1  13
HETATM   13  C   UNL     1       6.311  26.130  57.116  1.00  0.00     0.231 C 
BRANCH  13  14
HETATM   14  C   UNL     1       7.503  27.029  57.354  1.00  0.00     0.178 C 
HETATM   15  O   UNL     1       8.646  26.574  57.384  1.00  0.00    -0.290 OA
BRANCH  14  16
HETATM   16  C   UNL     1       7.238  28.479  57.596  1.00  0.00     0.013 A 
HETATM   17  C   UNL     1       8.070  29.213  58.446  1.00  0.00     0.026 A 
HETATM   18  C   UNL     1       7.805  30.556  58.753  1.00  0.00    -0.016 A 
HETATM   19  C   UNL     1       6.645  31.130  58.172  1.00  0.00     0.079 A 
HETATM   20  C   UNL     1       5.790  30.433  57.276  1.00  0.00    -0.016 A 
HETATM   21  C   UNL     1       6.135  29.093  56.995  1.00  0.00     0.026 A 
BRANCH  18  22
HETATM   22  C   UNL     1       8.741  31.340  59.716  1.00  0.00    -0.021 C 
HETATM   23  C   UNL     1       9.958  31.860  58.923  1.00  0.00     0.019 C 
HETATM   24  C   UNL     1       8.063  32.579  60.361  1.00  0.00     0.019 C 
HETATM   25  C   UNL     1       9.219  30.472  60.904  1.00  0.00     0.019 C 
ENDBRANCH  18  22
BRANCH  19  26
HETATM   26  O   UNL     1       6.357  32.405  58.566  1.00  0.00    -0.360 OA
HETATM   27  H   UNL     1       7.121  32.794  59.015  1.00  0.00     0.217 HD
ENDBRANCH  19  26
BRANCH  20  28
HETATM   28  C   UNL     1       4.521  31.061  56.631  1.00  0.00    -0.021 C 
HETATM   29  C   UNL     1       4.908  32.331  55.843  1.00  0.00     0.019 C 
HETATM   30  C   UNL     1       3.438  31.392  57.686  1.00  0.00     0.019 C 
HETATM   31  C   UNL     1       3.817  30.125  55.609  1.00  0.00     0.019 C 
ENDBRANCH  20  28
ENDBRANCH  14  16
ENDBRANCH  13  14
ENDBRANCH   1  13
BRANCH   6  32
HETATM   32  C   UNL     1       5.320  25.623  52.158  1.00  0.00     0.175 C 
BRANCH  32  33
HETATM   33  C   UNL     1       5.948  26.862  51.482  1.00  0.00     0.255 C 
BRANCH  33  34
HETATM   34  N   UNL     1       5.557  27.088  50.035  1.00  0.00    -0.070 N 
HETATM   35  H   UNL     1       6.391  26.800  49.501  1.00  0.00     0.279 HD
HETATM   36  C   UNL     1       4.444  26.198  49.523  1.00  0.00     0.235 C 
HETATM   37  C   UNL     1       4.377  26.305  48.005  1.00  0.00     0.028 C 
HETATM   38  C   UNL     1       4.217  27.751  47.542  1.00  0.00     0.003 C 
HETATM   39  C   UNL     1       5.295  28.653  48.138  1.00  0.00     0.028 C 
HETATM   40  C   UNL     1       5.350  28.540  49.656  1.00  0.00     0.235 C 
ENDBRANCH  33  34
ENDBRANCH  32  33
ENDBRANCH   6  32
TORSDOF 9
ENDMDL
MODEL 7
REMARK VINA RESULT:      -9.8      1.960      3.136
REMARK  9 active torsions:
REMARK  status: ('A' for Active; 'I' for Inactive)
REMARK    1  A    between atoms: C_2  and  C_3 
REMARK    2  A    between atoms: C_4  and  O_5 
REMARK    3  A    between atoms: C_6  and  C_7 
REMARK    4  A    between atoms: C_12  and  C_13 
REMARK    5  A    between atoms: C_13  and  C_14 
REMARK    6  A    between atoms: C_14  and  N_15 
REMARK    7  A    between atoms: N_20  and  C_21 
REMARK    8  A    between atoms: C_21  and  C_22 
REMARK    9  A    between atoms: C_22  and  N_23 
ROOT
HETATM    1  N   UNL     1       6.884  29.860  57.508  1.00  0.00    -0.174 N 
HETATM    2  C   UNL     1       6.595  30.825  58.449  1.00  0.00     0.681 A 
HETATM    3  N   UNL     1       5.357  31.170  58.814  1.00  0.00    -0.234 N 
HETATM    4  H   UNL     1       5.147  31.912  59.461  1.00  0.00     0.174 HD
HETATM    5  H   UNL     1       4.594  30.924  58.171  1.00  0.00     0.174 HD
HETATM    6  N   UNL     1       7.746  31.408  59.014  1.00  0.00    -0.180 N 
HETATM    7  C   UNL     1       8.828  30.837  58.261  1.00  0.00     0.079 A 
HETATM    8  C   UNL     1       8.298  29.890  57.363  1.00  0.00     0.079 A 
HETATM    9  C   UNL     1      10.186  31.081  58.301  1.00  0.00     0.032 A 
HETATM   10  C   UNL     1      11.011  30.336  57.448  1.00  0.00     0.002 A 
HETATM   11  C   UNL     1      10.476  29.378  56.572  1.00  0.00     0.002 A 
HETATM   12  C   UNL     1       9.101  29.148  56.519  1.00  0.00     0.032 A 
ENDROOT
BRANCH   1  13
HETATM   13  C   UNL     1       5.974  28.909  56.852  1.00  0.00     0.231 C 
BRANCH  13  14
HETATM   14  C   UNL     1       5.271  29.436  55.621  1.00  0.00     0.178 C 
HETATM   15  O   UNL     1       4.606  30.471  55.663  1.00  0.00    -0.290 OA
BRANCH  14  16
HETATM   16  C   UNL     1       5.375  28.631  54.367  1.00  0.00     0.013 A 
HETATM   17  C   UNL     1       6.006  27.384  54.382  1.00  0.00     0.026 A 
HETATM   18  C   UNL     1       6.188  26.638  53.208  1.00  0.00    -0.016 A 
HETATM   19  C   UNL     1       5.714  27.216  52.002  1.00  0.00     0.079 A 
HETATM   20  C   UNL     1       5.036  28.463  51.943  1.00  0.00    -0.016 A 
HETATM   21  C   UNL     1       4.868  29.144  53.169  1.00  0.00     0.026 A 
BRANCH  18  22
HETATM   22  C   UNL     1       6.909  25.262  53.257  1.00  0.00    -0.021 C 
HETATM   23  C   UNL     1       5.896  24.149  52.917  1.00  0.00     0.019 C 
HETATM   24  C   UNL     1       8.071  25.138  52.234  1.00  0.00     0.019 C 
HETATM   25  C   UNL     1       7.550  24.985  54.637  1.00  0.00     0.019 C 
ENDBRANCH  18  22
BRANCH  19  26
HETATM   26  O   UNL     1       5.992  26.515  50.863  1.00  0.00    -0.360 OA
HETATM   27  H   UNL     1       6.837  26.807  50.492  1.00  0.00     0.217 HD
ENDBRANCH  19  26
BRANCH  20  28
HETATM   28  C   UNL     1       4.508  29.096  50.624  1.00  0.00    -0.021 C 
HETATM   29  C   UNL     1       5.698  29.525  49.736  1.00  0.00     0.019 C 
HETATM   30  C   UNL     1       3.576  30.302  50.891  1.00  0.00     0.019 C 
HETATM   31  C   UNL     1       3.665  28.117  49.760  1.00  0.00     0.019 C 
ENDBRANCH  20  28
ENDBRANCH  14  16
ENDBRANCH  13  14
ENDBRANCH   1  13
BRANCH   6  32
HETATM   32  C   UNL     1       7.747  32.334  60.160  1.00  0.00     0.175 C 
BRANCH  32  33
HETATM   33  C   UNL     1       7.739  31.698  61.567  1.00  0.00     0.255 C 
BRANCH  33  34
HETATM   34  N   UNL     1       7.075  32.520  62.655  1.00  0.00    -0.070 N 
HETATM   35  H   UNL     1       6.978  33.458  62.236  1.00  0.00     0.279 HD
HETATM   36  C   UNL     1       5.661  32.105  63.003  1.00  0.00     0.235 C 
HETATM   37  C   UNL     1       5.018  33.190  63.856  1.00  0.00     0.028 C 
HETATM   38  C   UNL     1       5.847  33.506  65.097  1.00  0.00     0.003 C 
HETATM   39  C   UNL     1       7.293  33.836  64.737  1.00  0.00     0.028 C 
HETATM   40  C   UNL     1       7.927  32.743  63.887  1.00  0.00     0.235 C 
ENDBRANCH  33  34
ENDBRANCH  32  33
ENDBRANCH   6  32
TORSDOF 9
ENDMDL
MODEL 8
REMARK VINA RESULT:      -9.8      1.964      4.238
REMARK  9 active torsions:
REMARK  status: ('A' for Active; 'I' for Inactive)
REMARK    1  A    between atoms: C_2  and  C_3 
REMARK    2  A    between atoms: C_4  and  O_5 
REMARK    3  A    between atoms: C_6  and  C_7 
REMARK    4  A    between atoms: C_12  and  C_13 
REMARK    5  A    between atoms: C_13  and  C_14 
REMARK    6  A    between atoms: C_14  and  N_15 
REMARK    7  A    between atoms: N_20  and  C_21 
REMARK    8  A    between atoms: C_21  and  C_22 
REMARK    9  A    between atoms: C_22  and  N_23 
ROOT
HETATM    1  N   UNL     1       6.855  29.813  57.523  1.00  0.00    -0.174 N 
HETATM    2  C   UNL     1       6.569  30.782  58.461  1.00  0.00     0.681 A 
HETATM    3  N   UNL     1       5.332  31.119  58.838  1.00  0.00    -0.234 N 
HETATM    4  H   UNL     1       5.123  31.864  59.482  1.00  0.00     0.174 HD
HETATM    5  H   UNL     1       4.564  30.860  58.206  1.00  0.00     0.174 HD
HETATM    6  N   UNL     1       7.721  31.380  59.007  1.00  0.00    -0.180 N 
HETATM    7  C   UNL     1       8.799  30.814  58.245  1.00  0.00     0.079 A 
HETATM    8  C   UNL     1       8.267  29.855  57.360  1.00  0.00     0.079 A 
HETATM    9  C   UNL     1      10.155  31.070  58.267  1.00  0.00     0.032 A 
HETATM   10  C   UNL     1      10.977  30.327  57.409  1.00  0.00     0.002 A 
HETATM   11  C   UNL     1      10.440  29.357  56.547  1.00  0.00     0.002 A 
HETATM   12  C   UNL     1       9.066  29.114  56.513  1.00  0.00     0.032 A 
ENDROOT
BRANCH   1  13
HETATM   13  C   UNL     1       5.947  28.848  56.885  1.00  0.00     0.231 C 
BRANCH  13  14
HETATM   14  C   UNL     1       5.224  29.359  55.659  1.00  0.00     0.178 C 
HETATM   15  O   UNL     1       4.430  30.297  55.733  1.00  0.00    -0.290 OA
BRANCH  14  16
HETATM   16  C   UNL     1       5.475  28.656  54.365  1.00  0.00     0.013 A 
HETATM   17  C   UNL     1       5.050  29.225  53.162  1.00  0.00     0.026 A 
HETATM   18  C   UNL     1       5.202  28.556  51.938  1.00  0.00    -0.016 A 
HETATM   19  C   UNL     1       5.795  27.267  51.981  1.00  0.00     0.079 A 
HETATM   20  C   UNL     1       6.273  26.664  53.176  1.00  0.00    -0.016 A 
HETATM   21  C   UNL     1       6.108  27.409  54.365  1.00  0.00     0.026 A 
BRANCH  18  22
HETATM   22  C   UNL     1       4.703  29.210  50.619  1.00  0.00    -0.021 C 
HETATM   23  C   UNL     1       3.438  28.470  50.137  1.00  0.00     0.019 C 
HETATM   24  C   UNL     1       4.313  30.704  50.781  1.00  0.00     0.019 C 
HETATM   25  C   UNL     1       5.781  29.188  49.509  1.00  0.00     0.019 C 
ENDBRANCH  18  22
BRANCH  19  26
HETATM   26  O   UNL     1       5.840  26.598  50.792  1.00  0.00    -0.360 OA
HETATM   27  H   UNL     1       5.026  26.755  50.292  1.00  0.00     0.217 HD
ENDBRANCH  19  26
BRANCH  20  28
HETATM   28  C   UNL     1       6.930  25.255  53.227  1.00  0.00    -0.021 C 
HETATM   29  C   UNL     1       5.876  24.174  52.901  1.00  0.00     0.019 C 
HETATM   30  C   UNL     1       7.586  24.970  54.598  1.00  0.00     0.019 C 
HETATM   31  C   UNL     1       8.070  25.064  52.187  1.00  0.00     0.019 C 
ENDBRANCH  20  28
ENDBRANCH  14  16
ENDBRANCH  13  14
ENDBRANCH   1  13
BRANCH   6  32
HETATM   32  C   UNL     1       7.727  32.315  60.146  1.00  0.00     0.175 C 
BRANCH  32  33
HETATM   33  C   UNL     1       7.725  31.689  61.558  1.00  0.00     0.255 C 
BRANCH  33  34
HETATM   34  N   UNL     1       7.066  32.519  62.642  1.00  0.00    -0.070 N 
HETATM   35  H   UNL     1       6.971  33.456  62.218  1.00  0.00     0.279 HD
HETATM   36  C   UNL     1       5.652  32.110  62.996  1.00  0.00     0.235 C 
HETATM   37  C   UNL     1       5.013  33.202  63.844  1.00  0.00     0.028 C 
HETATM   38  C   UNL     1       5.847  33.523  65.082  1.00  0.00     0.003 C 
HETATM   39  C   UNL     1       7.292  33.848  64.716  1.00  0.00     0.028 C 
HETATM   40  C   UNL     1       7.922  32.748  63.871  1.00  0.00     0.235 C 
ENDBRANCH  33  34
ENDBRANCH  32  33
ENDBRANCH   6  32
TORSDOF 9
ENDMDL
MODEL 9
REMARK VINA RESULT:      -9.3      2.941     10.669
REMARK  9 active torsions:
REMARK  status: ('A' for Active; 'I' for Inactive)
REMARK    1  A    between atoms: C_2  and  C_3 
REMARK    2  A    between atoms: C_4  and  O_5 
REMARK    3  A    between atoms: C_6  and  C_7 
REMARK    4  A    between atoms: C_12  and  C_13 
REMARK    5  A    between atoms: C_13  and  C_14 
REMARK    6  A    between atoms: C_14  and  N_15 
REMARK    7  A    between atoms: N_20  and  C_21 
REMARK    8  A    between atoms: C_21  and  C_22 
REMARK    9  A    between atoms: C_22  and  N_23 
ROOT
HETATM    1  N   UNL     1       5.669  30.545  57.528  1.00  0.00    -0.174 N 
HETATM    2  C   UNL     1       5.122  29.385  57.024  1.00  0.00     0.681 A 
HETATM    3  N   UNL     1       3.815  29.199  56.817  1.00  0.00    -0.234 N 
HETATM    4  H   UNL     1       3.412  28.333  56.502  1.00  0.00     0.174 HD
HETATM    5  H   UNL     1       3.169  29.824  57.317  1.00  0.00     0.174 HD
HETATM    6  N   UNL     1       6.087  28.403  56.726  1.00  0.00    -0.180 N 
HETATM    7  C   UNL     1       7.317  28.970  57.206  1.00  0.00     0.079 A 
HETATM    8  C   UNL     1       7.057  30.272  57.675  1.00  0.00     0.079 A 
HETATM    9  C   UNL     1       8.592  28.447  57.263  1.00  0.00     0.032 A 
HETATM   10  C   UNL     1       9.614  29.262  57.769  1.00  0.00     0.002 A 
HETATM   11  C   UNL     1       9.349  30.568  58.213  1.00  0.00     0.002 A 
HETATM   12  C   UNL     1       8.054  31.087  58.173  1.00  0.00     0.032 A 
ENDROOT
BRANCH   1  13
HETATM   13  C   UNL     1       5.019  31.843  57.771  1.00  0.00     0.231 C 
BRANCH  13  14
HETATM   14  C   UNL     1       4.201  31.924  59.040  1.00  0.00     0.178 C 
HETATM   15  O   UNL     1       3.083  31.413  59.109  1.00  0.00    -0.290 OA
BRANCH  14  16
HETATM   16  C   UNL     1       4.779  32.685  60.188  1.00  0.00     0.013 A 
HETATM   17  C   UNL     1       4.214  33.901  60.581  1.00  0.00     0.026 A 
HETATM   18  C   UNL     1       4.779  34.676  61.605  1.00  0.00    -0.016 A 
HETATM   19  C   UNL     1       5.957  34.173  62.215  1.00  0.00     0.079 A 
HETATM   20  C   UNL     1       6.546  32.926  61.873  1.00  0.00    -0.016 A 
HETATM   21  C   UNL     1       5.907  32.190  60.850  1.00  0.00     0.026 A 
BRANCH  18  22
HETATM   22  C   UNL     1       4.137  36.034  62.006  1.00  0.00    -0.021 C 
HETATM   23  C   UNL     1       2.804  36.204  61.249  1.00  0.00     0.019 C 
HETATM   24  C   UNL     1       3.808  36.137  63.520  1.00  0.00     0.019 C 
HETATM   25  C   UNL     1       5.067  37.233  61.708  1.00  0.00     0.019 C 
ENDBRANCH  18  22
BRANCH  19  26
HETATM   26  O   UNL     1       6.540  34.993  63.138  1.00  0.00    -0.360 OA
HETATM   27  H   UNL     1       6.620  35.889  62.782  1.00  0.00     0.217 HD
ENDBRANCH  19  26
BRANCH  20  28
HETATM   28  C   UNL     1       7.834  32.367  62.544  1.00  0.00    -0.021 C 
HETATM   29  C   UNL     1       7.962  32.928  63.977  1.00  0.00     0.019 C 
HETATM   30  C   UNL     1       9.103  32.695  61.723  1.00  0.00     0.019 C 
HETATM   31  C   UNL     1       7.835  30.820  62.691  1.00  0.00     0.019 C 
ENDBRANCH  20  28
ENDBRANCH  14  16
ENDBRANCH  13  14
ENDBRANCH   1  13
BRANCH   6  32
HETATM   32  C   UNL     1       5.814  27.139  56.019  1.00  0.00     0.175 C 
BRANCH  32  33
HETATM   33  C   UNL     1       6.090  27.120  54.499  1.00  0.00     0.255 C 
BRANCH  33  34
HETATM   34  N   UNL     1       6.874  25.927  53.990  1.00  0.00    -0.070 N 
HETATM   35  H   UNL     1       7.861  26.197  54.131  1.00  0.00     0.279 HD
HETATM   36  C   UNL     1       6.703  24.655  54.794  1.00  0.00     0.235 C 
HETATM   37  C   UNL     1       7.771  23.653  54.374  1.00  0.00     0.028 C 
HETATM   38  C   UNL     1       7.750  23.392  52.871  1.00  0.00     0.003 C 
HETATM   39  C   UNL     1       7.833  24.691  52.075  1.00  0.00     0.028 C 
HETATM   40  C   UNL     1       6.759  25.684  52.499  1.00  0.00     0.235 C 
ENDBRANCH  33  34
ENDBRANCH  32  33
ENDBRANCH   6  32
TORSDOF 9
ENDMDL
MODEL 10
REMARK VINA RESULT:      -9.3      3.023      9.839
REMARK  9 active torsions:
REMARK  status: ('A' for Active; 'I' for Inactive)
REMARK    1  A    between atoms: C_2  and  C_3 
REMARK    2  A    between atoms: C_4  and  O_5 
REMARK    3  A    between atoms: C_6  and  C_7 
REMARK    4  A    between atoms: C_12  and  C_13 
REMARK    5  A    between atoms: C_13  and  C_14 
REMARK    6  A    between atoms: C_14  and  N_15 
REMARK    7  A    between atoms: N_20  and  C_21 
REMARK    8  A    between atoms: C_21  and  C_22 
REMARK    9  A    between atoms: C_22  and  N_23 
ROOT
HETATM    1  N   UNL     1       6.686  27.318  55.533  1.00  0.00    -0.174 N 
HETATM    2  C   UNL     1       6.102  28.133  54.587  1.00  0.00     0.681 A 
HETATM    3  N   UNL     1       5.483  29.284  54.867  1.00  0.00    -0.234 N 
HETATM    4  H   UNL     1       5.010  29.850  54.182  1.00  0.00     0.174 HD
HETATM    5  H   UNL     1       5.176  29.425  55.837  1.00  0.00     0.174 HD
HETATM    6  N   UNL     1       6.236  27.640  53.275  1.00  0.00    -0.180 N 
HETATM    7  C   UNL     1       6.847  26.352  53.449  1.00  0.00     0.079 A 
HETATM    8  C   UNL     1       7.129  26.172  54.818  1.00  0.00     0.079 A 
HETATM    9  C   UNL     1       7.155  25.365  52.535  1.00  0.00     0.032 A 
HETATM   10  C   UNL     1       7.783  24.205  53.009  1.00  0.00     0.002 A 
HETATM   11  C   UNL     1       8.081  24.045  54.372  1.00  0.00     0.002 A 
HETATM   12  C   UNL     1       7.750  25.035  55.297  1.00  0.00     0.032 A 
ENDROOT
BRANCH   1  13
HETATM   13  C   UNL     1       6.921  27.582  56.961  1.00  0.00     0.231 C 
BRANCH  13  14
HETATM   14  C   UNL     1       7.961  28.640  57.256  1.00  0.00     0.178 C 
HETATM   15  O   UNL     1       9.102  28.553  56.804  1.00  0.00    -0.290 OA
BRANCH  14  16
HETATM   16  C   UNL     1       7.565  29.768  58.153  1.00  0.00     0.013 A 
HETATM   17  C   UNL     1       8.338  30.078  59.275  1.00  0.00     0.026 A 
HETATM   18  C   UNL     1       7.953  31.081  60.177  1.00  0.00    -0.016 A 
HETATM   19  C   UNL     1       6.734  31.755  59.906  1.00  0.00     0.079 A 
HETATM   20  C   UNL     1       5.934  31.497  58.760  1.00  0.00    -0.016 A 
HETATM   21  C   UNL     1       6.399  30.491  57.884  1.00  0.00     0.026 A 
BRANCH  18  22
HETATM   22  C   UNL     1       8.827  31.390  61.425  1.00  0.00    -0.021 C 
HETATM   23  C   UNL     1       9.979  32.329  61.013  1.00  0.00     0.019 C 
HETATM   24  C   UNL     1       8.048  32.108  62.560  1.00  0.00     0.019 C 
HETATM   25  C   UNL     1       9.400  30.107  62.072  1.00  0.00     0.019 C 
ENDBRANCH  18  22
BRANCH  19  26
HETATM   26  O   UNL     1       6.334  32.655  60.851  1.00  0.00    -0.360 OA
HETATM   27  H   UNL     1       6.204  33.525  60.447  1.00  0.00     0.217 HD
ENDBRANCH  19  26
BRANCH  20  28
HETATM   28  C   UNL     1       4.601  32.239  58.455  1.00  0.00    -0.021 C 
HETATM   29  C   UNL     1       4.869  33.751  58.294  1.00  0.00     0.019 C 
HETATM   30  C   UNL     1       3.538  31.995  59.551  1.00  0.00     0.019 C 
HETATM   31  C   UNL     1       3.928  31.783  57.130  1.00  0.00     0.019 C 
ENDBRANCH  20  28
ENDBRANCH  14  16
ENDBRANCH  13  14
ENDBRANCH   1  13
BRANCH   6  32
HETATM   32  C   UNL     1       5.867  28.379  52.054  1.00  0.00     0.175 C 
BRANCH  32  33
HETATM   33  C   UNL     1       4.357  28.550  51.775  1.00  0.00     0.255 C 
BRANCH  33  34
HETATM   34  N   UNL     1       3.825  27.802  50.570  1.00  0.00    -0.070 N 
HETATM   35  H   UNL     1       3.081  27.200  50.956  1.00  0.00     0.279 HD
HETATM   36  C   UNL     1       3.128  28.660  49.535  1.00  0.00     0.235 C 
HETATM   37  C   UNL     1       2.378  27.760  48.562  1.00  0.00     0.028 C 
HETATM   38  C   UNL     1       3.295  26.720  47.925  1.00  0.00     0.003 C 
HETATM   39  C   UNL     1       4.056  25.922  48.979  1.00  0.00     0.028 C 
HETATM   40  C   UNL     1       4.806  26.832  49.944  1.00  0.00     0.235 C 
ENDBRANCH  33  34
ENDBRANCH  32  33
ENDBRANCH   6  32
TORSDOF 9
ENDMDL
