MODEL 1
REMARK VINA RESULT:      -9.1      0.000      0.000
REMARK  6 active torsions:
REMARK  status: ('A' for Active; 'I' for Inactive)
REMARK    1  A    between atoms: C_2  and  C_3 
REMARK    2  A    between atoms: C_5  and  N_6 
REMARK       I    between atoms: N_6  and  C_7 
REMARK       I    between atoms: C_7  and  N_8 
REMARK    3  A    between atoms: N_8  and  C_9 
REMARK    4  A    between atoms: C_9  and  C_10 
REMARK    5  A    between atoms: C_11  and  N_12 
REMARK    6  A    between atoms: C_19  and  O_20 
ROOT
HETATM    1  N   UNL     1       5.661  26.116  55.062  1.00  0.00    -0.306 N 
HETATM    2  C   UNL     1       5.800  26.772  56.236  1.00  0.00     0.321 C 
HETATM    3  N   UNL     1       7.039  27.220  56.574  1.00  0.00    -0.338 N 
HETATM    4  O   UNL     1       4.800  27.087  56.878  1.00  0.00    -0.247 OA
HETATM    5  H   UNL     1       4.715  26.141  54.695  1.00  0.00     0.171 HD
HETATM    6  H   UNL     1       7.758  27.160  55.865  1.00  0.00     0.164 HD
ENDROOT
BRANCH   1   7
HETATM    7  C   UNL     1       6.533  25.321  54.297  1.00  0.00     0.070 A 
HETATM    8  C   UNL     1       7.005  24.072  54.722  1.00  0.00     0.040 A 
HETATM    9  C   UNL     1       7.778  23.257  53.870  1.00  0.00    -0.048 A 
HETATM   10  C   UNL     1       8.067  23.755  52.587  1.00  0.00     0.011 A 
HETATM   11  C   UNL     1       7.599  25.000  52.154  1.00  0.00     0.039 A 
HETATM   12  C   UNL     1       6.813  25.778  52.996  1.00  0.00     0.095 A 
BRANCH   9  13
HETATM   13  C   UNL     1       8.188  21.825  54.274  1.00  0.00    -0.024 C 
HETATM   14  C   UNL     1       9.684  21.847  54.652  1.00  0.00     0.019 C 
HETATM   15  C   UNL     1       7.983  20.803  53.133  1.00  0.00     0.019 C 
HETATM   16  C   UNL     1       7.388  21.295  55.487  1.00  0.00     0.019 C 
ENDBRANCH   9  13
BRANCH  12  17
HETATM   17  O   UNL     1       6.264  26.997  52.671  1.00  0.00    -0.354 OA
HETATM   18  C   UNL     1       5.486  27.059  51.480  1.00  0.00     0.210 C 
ENDBRANCH  12  17
ENDBRANCH   1   7
BRANCH   3  19
HETATM   19  C   UNL     1       7.269  28.015  57.767  1.00  0.00     0.166 C 
BRANCH  19  20
HETATM   20  C   UNL     1       8.439  28.973  57.652  1.00  0.00     0.003 A 
HETATM   21  C   UNL     1       8.690  29.999  58.584  1.00  0.00     0.106 A 
HETATM   22  N   UNL     1       9.773  30.773  58.415  1.00  0.00    -0.352 N 
HETATM   23  H   UNL     1       9.944  31.476  59.125  1.00  0.00     0.166 HD
HETATM   24  C   UNL     1      10.650  30.627  57.418  1.00  0.00     0.089 A 
HETATM   25  C   UNL     1      10.465  29.632  56.476  1.00  0.00     0.018 A 
HETATM   26  C   UNL     1       9.347  28.812  56.588  1.00  0.00     0.014 A 
BRANCH  21  27
HETATM   27  N   UNL     1       8.011  30.164  59.767  1.00  0.00    -0.385 N 
HETATM   28  H   UNL     1       7.058  29.776  59.807  1.00  0.00     0.157 HD
HETATM   29  H   UNL     1       8.075  31.004  60.323  1.00  0.00     0.157 HD
ENDBRANCH  21  27
ENDBRANCH  19  20
ENDBRANCH   3  19
TORSDOF 6
ENDMDL
MODEL 2
REMARK VINA RESULT:      -8.0      2.715      5.813
REMARK  6 active torsions:
REMARK  status: ('A' for Active; 'I' for Inactive)
REMARK    1  A    between atoms: C_2  and  C_3 
REMARK    2  A    between atoms: C_5  and  N_6 
REMARK       I    between atoms: N_6  and  C_7 
REMARK       I    between atoms: C_7  and  N_8 
REMARK    3  A    between atoms: N_8  and  C_9 
REMARK    4  A    between atoms: C_9  and  C_10 
REMARK    5  A    between atoms: C_11  and  N_12 
REMARK    6  A    between atoms: C_19  and  O_20 
ROOT
HETATM    1  N   UNL     1       5.090  26.391  55.459  1.00  0.00    -0.306 N 
HETATM    2  C   UNL     1       4.996  27.441  54.612  1.00  0.00     0.321 C 
HETATM    3  N   UNL     1       5.846  27.481  53.550  1.00  0.00    -0.338 N 
HETATM    4  O   UNL     1       4.060  28.229  54.723  1.00  0.00    -0.247 OA
HETATM    5  H   UNL     1       4.238  26.216  55.980  1.00  0.00     0.171 HD
HETATM    6  H   UNL     1       6.405  26.656  53.377  1.00  0.00     0.164 HD
ENDROOT
BRANCH   1   7
HETATM    7  C   UNL     1       6.156  25.558  55.841  1.00  0.00     0.070 A 
HETATM    8  C   UNL     1       6.483  24.372  55.171  1.00  0.00     0.040 A 
HETATM    9  C   UNL     1       7.633  23.632  55.514  1.00  0.00    -0.048 A 
HETATM   10  C   UNL     1       8.428  24.126  56.565  1.00  0.00     0.011 A 
HETATM   11  C   UNL     1       8.111  25.310  57.238  1.00  0.00     0.039 A 
HETATM   12  C   UNL     1       6.989  26.042  56.868  1.00  0.00     0.095 A 
BRANCH   9  13
HETATM   13  C   UNL     1       8.077  22.402  54.696  1.00  0.00    -0.024 C 
HETATM   14  C   UNL     1       9.619  22.350  54.715  1.00  0.00     0.019 C 
HETATM   15  C   UNL     1       7.605  22.463  53.225  1.00  0.00     0.019 C 
HETATM   16  C   UNL     1       7.538  21.073  55.276  1.00  0.00     0.019 C 
ENDBRANCH   9  13
BRANCH  12  17
HETATM   17  O   UNL     1       6.597  27.236  57.427  1.00  0.00    -0.354 OA
HETATM   18  C   UNL     1       7.621  28.182  57.715  1.00  0.00     0.210 C 
ENDBRANCH  12  17
ENDBRANCH   1   7
BRANCH   3  19
HETATM   19  C   UNL     1       5.759  28.517  52.536  1.00  0.00     0.166 C 
BRANCH  19  20
HETATM   20  C   UNL     1       4.849  28.166  51.374  1.00  0.00     0.003 A 
HETATM   21  C   UNL     1       3.515  28.609  51.280  1.00  0.00     0.106 A 
HETATM   22  N   UNL     1       2.801  28.275  50.194  1.00  0.00    -0.352 N 
HETATM   23  H   UNL     1       1.857  28.642  50.140  1.00  0.00     0.166 HD
HETATM   24  C   UNL     1       3.278  27.553  49.176  1.00  0.00     0.089 A 
HETATM   25  C   UNL     1       4.582  27.097  49.205  1.00  0.00     0.018 A 
HETATM   26  C   UNL     1       5.365  27.395  50.316  1.00  0.00     0.014 A 
BRANCH  21  27
HETATM   27  N   UNL     1       2.930  29.516  52.129  1.00  0.00    -0.385 N 
HETATM   28  H   UNL     1       3.370  29.629  53.054  1.00  0.00     0.157 HD
HETATM   29  H   UNL     1       1.930  29.639  52.196  1.00  0.00     0.157 HD
ENDBRANCH  21  27
ENDBRANCH  19  20
ENDBRANCH   3  19
TORSDOF 6
ENDMDL
MODEL 3
REMARK VINA RESULT:      -7.8      4.658      7.533
REMARK  6 active torsions:
REMARK  status: ('A' for Active; 'I' for Inactive)
REMARK    1  A    between atoms: C_2  and  C_3 
REMARK    2  A    between atoms: C_5  and  N_6 
REMARK       I    between atoms: N_6  and  C_7 
REMARK       I    between atoms: C_7  and  N_8 
REMARK    3  A    between atoms: N_8  and  C_9 
REMARK    4  A    between atoms: C_9  and  C_10 
REMARK    5  A    between atoms: C_11  and  N_12 
REMARK    6  A    between atoms: C_19  and  O_20 
ROOT
HETATM    1  N   UNL     1       6.119  32.101  58.543  1.00  0.00    -0.306 N 
HETATM    2  C   UNL     1       5.282  32.416  59.557  1.00  0.00     0.321 C 
HETATM    3  N   UNL     1       5.568  31.929  60.794  1.00  0.00    -0.338 N 
HETATM    4  O   UNL     1       4.396  33.249  59.377  1.00  0.00    -0.247 OA
HETATM    5  H   UNL     1       6.084  32.760  57.772  1.00  0.00     0.171 HD
HETATM    6  H   UNL     1       6.465  31.476  60.914  1.00  0.00     0.164 HD
ENDROOT
BRANCH   1   7
HETATM    7  C   UNL     1       6.951  30.996  58.292  1.00  0.00     0.070 A 
HETATM    8  C   UNL     1       6.518  29.844  57.622  1.00  0.00     0.040 A 
HETATM    9  C   UNL     1       7.419  28.813  57.286  1.00  0.00    -0.048 A 
HETATM   10  C   UNL     1       8.764  28.983  57.663  1.00  0.00     0.011 A 
HETATM   11  C   UNL     1       9.205  30.130  58.330  1.00  0.00     0.039 A 
HETATM   12  C   UNL     1       8.310  31.150  58.628  1.00  0.00     0.095 A 
BRANCH   9  13
HETATM   13  C   UNL     1       6.983  27.605  56.430  1.00  0.00    -0.024 C 
HETATM   14  C   UNL     1       7.365  27.898  54.965  1.00  0.00     0.019 C 
HETATM   15  C   UNL     1       5.461  27.345  56.500  1.00  0.00     0.019 C 
HETATM   16  C   UNL     1       7.674  26.290  56.860  1.00  0.00     0.019 C 
ENDBRANCH   9  13
BRANCH  12  17
HETATM   17  O   UNL     1       8.631  32.337  59.244  1.00  0.00    -0.354 OA
HETATM   18  C   UNL     1       9.434  32.261  60.417  1.00  0.00     0.210 C 
ENDBRANCH  12  17
ENDBRANCH   1   7
BRANCH   3  19
HETATM   19  C   UNL     1       4.783  32.289  61.962  1.00  0.00     0.166 C 
BRANCH  19  20
HETATM   20  C   UNL     1       5.607  32.820  63.119  1.00  0.00     0.003 A 
HETATM   21  C   UNL     1       5.042  33.472  64.232  1.00  0.00     0.106 A 
HETATM   22  N   UNL     1       5.852  33.874  65.223  1.00  0.00    -0.352 N 
HETATM   23  H   UNL     1       5.408  34.306  66.026  1.00  0.00     0.166 HD
HETATM   24  C   UNL     1       7.175  33.684  65.233  1.00  0.00     0.089 A 
HETATM   25  C   UNL     1       7.788  33.042  64.175  1.00  0.00     0.018 A 
HETATM   26  C   UNL     1       7.001  32.621  63.108  1.00  0.00     0.014 A 
BRANCH  21  27
HETATM   27  N   UNL     1       3.695  33.574  64.477  1.00  0.00    -0.385 N 
HETATM   28  H   UNL     1       3.168  34.234  63.886  1.00  0.00     0.157 HD
HETATM   29  H   UNL     1       3.303  33.543  65.407  1.00  0.00     0.157 HD
ENDBRANCH  21  27
ENDBRANCH  19  20
ENDBRANCH   3  19
TORSDOF 6
ENDMDL
MODEL 4
REMARK VINA RESULT:      -7.8      1.645      3.719
REMARK  6 active torsions:
REMARK  status: ('A' for Active; 'I' for Inactive)
REMARK    1  A    between atoms: C_2  and  C_3 
REMARK    2  A    between atoms: C_5  and  N_6 
REMARK       I    between atoms: N_6  and  C_7 
REMARK       I    between atoms: C_7  and  N_8 
REMARK    3  A    between atoms: N_8  and  C_9 
REMARK    4  A    between atoms: C_9  and  C_10 
REMARK    5  A    between atoms: C_11  and  N_12 
REMARK    6  A    between atoms: C_19  and  O_20 
ROOT
HETATM    1  N   UNL     1       7.344  25.031  56.353  1.00  0.00    -0.306 N 
HETATM    2  C   UNL     1       7.529  26.034  57.240  1.00  0.00     0.321 C 
HETATM    3  N   UNL     1       7.014  27.256  56.937  1.00  0.00    -0.338 N 
HETATM    4  O   UNL     1       8.000  25.785  58.348  1.00  0.00    -0.247 OA
HETATM    5  H   UNL     1       7.402  24.107  56.769  1.00  0.00     0.171 HD
HETATM    6  H   UNL     1       6.405  27.311  56.132  1.00  0.00     0.164 HD
ENDROOT
BRANCH   1   7
HETATM    7  C   UNL     1       7.191  25.001  54.955  1.00  0.00     0.070 A 
HETATM    8  C   UNL     1       6.313  25.843  54.260  1.00  0.00     0.040 A 
HETATM    9  C   UNL     1       6.282  25.862  52.851  1.00  0.00    -0.048 A 
HETATM   10  C   UNL     1       7.156  24.991  52.174  1.00  0.00     0.011 A 
HETATM   11  C   UNL     1       8.036  24.148  52.860  1.00  0.00     0.039 A 
HETATM   12  C   UNL     1       8.075  24.163  54.249  1.00  0.00     0.095 A 
BRANCH   9  13
HETATM   13  C   UNL     1       5.421  26.880  52.075  1.00  0.00    -0.024 C 
HETATM   14  C   UNL     1       4.119  27.106  52.870  1.00  0.00     0.019 C 
HETATM   15  C   UNL     1       5.053  26.389  50.656  1.00  0.00     0.019 C 
HETATM   16  C   UNL     1       6.126  28.245  51.898  1.00  0.00     0.019 C 
ENDBRANCH   9  13
BRANCH  12  17
HETATM   17  O   UNL     1       8.921  23.411  55.030  1.00  0.00    -0.354 OA
HETATM   18  C   UNL     1       9.142  22.062  54.631  1.00  0.00     0.210 C 
ENDBRANCH  12  17
ENDBRANCH   1   7
BRANCH   3  19
HETATM   19  C   UNL     1       7.079  28.368  57.868  1.00  0.00     0.166 C 
BRANCH  19  20
HETATM   20  C   UNL     1       8.333  29.211  57.734  1.00  0.00     0.003 A 
HETATM   21  C   UNL     1       8.764  30.115  58.726  1.00  0.00     0.106 A 
HETATM   22  N   UNL     1       9.908  30.788  58.530  1.00  0.00    -0.352 N 
HETATM   23  H   UNL     1      10.208  31.401  59.280  1.00  0.00     0.166 HD
HETATM   24  C   UNL     1      10.684  30.650  57.451  1.00  0.00     0.089 A 
HETATM   25  C   UNL     1      10.321  29.772  56.447  1.00  0.00     0.018 A 
HETATM   26  C   UNL     1       9.133  29.060  56.585  1.00  0.00     0.014 A 
BRANCH  21  27
HETATM   27  N   UNL     1       8.201  30.234  59.972  1.00  0.00    -0.385 N 
HETATM   28  H   UNL     1       8.786  30.668  60.701  1.00  0.00     0.157 HD
HETATM   29  H   UNL     1       7.602  29.527  60.373  1.00  0.00     0.157 HD
ENDBRANCH  21  27
ENDBRANCH  19  20
ENDBRANCH   3  19
TORSDOF 6
ENDMDL
MODEL 5
REMARK VINA RESULT:      -7.7      3.079      6.848
REMARK  6 active torsions:
REMARK  status: ('A' for Active; 'I' for Inactive)
REMARK    1  A    between atoms: C_2  and  C_3 
REMARK    2  A    between atoms: C_5  and  N_6 
REMARK       I    between atoms: N_6  and  C_7 
REMARK       I    between atoms: C_7  and  N_8 
REMARK    3  A    between atoms: N_8  and  C_9 
REMARK    4  A    between atoms: C_9  and  C_10 
REMARK    5  A    between atoms: C_11  and  N_12 
REMARK    6  A    between atoms: C_19  and  O_20 
ROOT
HETATM    1  N   UNL     1       4.625  25.912  53.758  1.00  0.00    -0.306 N 
HETATM    2  C   UNL     1       5.286  24.895  53.160  1.00  0.00     0.321 C 
HETATM    3  N   UNL     1       6.496  24.536  53.666  1.00  0.00    -0.338 N 
HETATM    4  O   UNL     1       4.718  24.225  52.300  1.00  0.00    -0.247 OA
HETATM    5  H   UNL     1       3.623  25.890  53.601  1.00  0.00     0.171 HD
HETATM    6  H   UNL     1       6.771  24.957  54.543  1.00  0.00     0.164 HD
ENDROOT
BRANCH   1   7
HETATM    7  C   UNL     1       5.052  27.050  54.465  1.00  0.00     0.070 A 
HETATM    8  C   UNL     1       6.127  27.038  55.364  1.00  0.00     0.040 A 
HETATM    9  C   UNL     1       6.595  28.228  55.958  1.00  0.00    -0.048 A 
HETATM   10  C   UNL     1       5.931  29.422  55.621  1.00  0.00     0.011 A 
HETATM   11  C   UNL     1       4.859  29.443  54.724  1.00  0.00     0.039 A 
HETATM   12  C   UNL     1       4.428  28.265  54.125  1.00  0.00     0.095 A 
BRANCH   9  13
HETATM   13  C   UNL     1       7.861  28.247  56.840  1.00  0.00    -0.024 C 
HETATM   14  C   UNL     1       8.266  26.786  57.122  1.00  0.00     0.019 C 
HETATM   15  C   UNL     1       7.634  28.965  58.190  1.00  0.00     0.019 C 
HETATM   16  C   UNL     1       9.052  28.960  56.159  1.00  0.00     0.019 C 
ENDBRANCH   9  13
BRANCH  12  17
HETATM   17  O   UNL     1       3.414  28.167  53.202  1.00  0.00    -0.354 OA
HETATM   18  C   UNL     1       3.250  29.257  52.301  1.00  0.00     0.210 C 
ENDBRANCH  12  17
ENDBRANCH   1   7
BRANCH   3  19
HETATM   19  C   UNL     1       7.236  23.397  53.151  1.00  0.00     0.166 C 
BRANCH  19  20
HETATM   20  C   UNL     1       7.687  22.422  54.222  1.00  0.00     0.003 A 
HETATM   21  C   UNL     1       7.910  21.053  53.973  1.00  0.00     0.106 A 
HETATM   22  N   UNL     1       8.344  20.278  54.979  1.00  0.00    -0.352 N 
HETATM   23  H   UNL     1       8.531  19.307  54.756  1.00  0.00     0.166 HD
HETATM   24  C   UNL     1       8.595  20.723  56.213  1.00  0.00     0.089 A 
HETATM   25  C   UNL     1       8.406  22.057  56.518  1.00  0.00     0.018 A 
HETATM   26  C   UNL     1       7.936  22.906  55.520  1.00  0.00     0.014 A 
BRANCH  21  27
HETATM   27  N   UNL     1       7.894  20.472  52.729  1.00  0.00    -0.385 N 
HETATM   28  H   UNL     1       8.619  19.764  52.543  1.00  0.00     0.157 HD
HETATM   29  H   UNL     1       7.676  20.985  51.887  1.00  0.00     0.157 HD
ENDBRANCH  21  27
ENDBRANCH  19  20
ENDBRANCH   3  19
TORSDOF 6
ENDMDL
MODEL 6
REMARK VINA RESULT:      -7.7      4.214      7.034
REMARK  6 active torsions:
REMARK  status: ('A' for Active; 'I' for Inactive)
REMARK    1  A    between atoms: C_2  and  C_3 
REMARK    2  A    between atoms: C_5  and  N_6 
REMARK       I    between atoms: N_6  and  C_7 
REMARK       I    between atoms: C_7  and  N_8 
REMARK    3  A    between atoms: N_8  and  C_9 
REMARK    4  A    between atoms: C_9  and  C_10 
REMARK    5  A    between atoms: C_11  and  N_12 
REMARK    6  A    between atoms: C_19  and  O_20 
ROOT
HETATM    1  N   UNL     1       8.818  30.555  59.219  1.00  0.00    -0.306 N 
HETATM    2  C   UNL     1       8.750  31.118  60.446  1.00  0.00     0.321 C 
HETATM    3  N   UNL     1       7.751  30.718  61.277  1.00  0.00    -0.338 N 
HETATM    4  O   UNL     1       9.667  31.839  60.834  1.00  0.00    -0.247 OA
HETATM    5  H   UNL     1       9.744  30.596  58.806  1.00  0.00     0.171 HD
HETATM    6  H   UNL     1       7.200  29.923  60.983  1.00  0.00     0.164 HD
ENDROOT
BRANCH   1   7
HETATM    7  C   UNL     1       7.848  30.017  58.354  1.00  0.00     0.070 A 
HETATM    8  C   UNL     1       7.861  28.684  57.920  1.00  0.00     0.040 A 
HETATM    9  C   UNL     1       6.802  28.157  57.153  1.00  0.00    -0.048 A 
HETATM   10  C   UNL     1       5.743  29.026  56.830  1.00  0.00     0.011 A 
HETATM   11  C   UNL     1       5.722  30.356  57.260  1.00  0.00     0.039 A 
HETATM   12  C   UNL     1       6.760  30.853  58.041  1.00  0.00     0.095 A 
BRANCH   9  13
HETATM   13  C   UNL     1       6.737  26.659  56.786  1.00  0.00    -0.024 C 
HETATM   14  C   UNL     1       5.264  26.211  56.880  1.00  0.00     0.019 C 
HETATM   15  C   UNL     1       7.582  25.777  57.734  1.00  0.00     0.019 C 
HETATM   16  C   UNL     1       7.243  26.374  55.353  1.00  0.00     0.019 C 
ENDBRANCH   9  13
BRANCH  12  17
HETATM   17  O   UNL     1       6.831  32.126  58.553  1.00  0.00    -0.354 OA
HETATM   18  C   UNL     1       5.631  32.678  59.086  1.00  0.00     0.210 C 
ENDBRANCH  12  17
ENDBRANCH   1   7
BRANCH   3  19
HETATM   19  C   UNL     1       7.653  31.196  62.645  1.00  0.00     0.166 C 
BRANCH  19  20
HETATM   20  C   UNL     1       6.585  32.253  62.853  1.00  0.00     0.003 A 
HETATM   21  C   UNL     1       5.211  31.954  62.938  1.00  0.00     0.106 A 
HETATM   22  N   UNL     1       4.347  32.957  63.160  1.00  0.00    -0.352 N 
HETATM   23  H   UNL     1       3.370  32.701  63.254  1.00  0.00     0.166 HD
HETATM   24  C   UNL     1       4.705  34.234  63.321  1.00  0.00     0.089 A 
HETATM   25  C   UNL     1       6.039  34.589  63.258  1.00  0.00     0.018 A 
HETATM   26  C   UNL     1       6.980  33.596  63.010  1.00  0.00     0.014 A 
BRANCH  21  27
HETATM   27  N   UNL     1       4.689  30.686  62.994  1.00  0.00    -0.385 N 
HETATM   28  H   UNL     1       3.713  30.576  62.681  1.00  0.00     0.157 HD
HETATM   29  H   UNL     1       4.895  30.040  63.743  1.00  0.00     0.157 HD
ENDBRANCH  21  27
ENDBRANCH  19  20
ENDBRANCH   3  19
TORSDOF 6
ENDMDL
MODEL 7
REMARK VINA RESULT:      -7.5      9.587     13.415
REMARK  6 active torsions:
REMARK  status: ('A' for Active; 'I' for Inactive)
REMARK    1  A    between atoms: C_2  and  C_3 
REMARK    2  A    between atoms: C_5  and  N_6 
REMARK       I    between atoms: N_6  and  C_7 
REMARK       I    between atoms: C_7  and  N_8 
REMARK    3  A    between atoms: N_8  and  C_9 
REMARK    4  A    between atoms: C_9  and  C_10 
REMARK    5  A    between atoms: C_11  and  N_12 
REMARK    6  A    between atoms: C_19  and  O_20 
ROOT
HETATM    1  N   UNL     1       2.700  35.729  62.861  1.00  0.00    -0.306 N 
HETATM    2  C   UNL     1       3.182  34.610  63.449  1.00  0.00     0.321 C 
HETATM    3  N   UNL     1       4.459  34.635  63.916  1.00  0.00    -0.338 N 
HETATM    4  O   UNL     1       2.421  33.675  63.690  1.00  0.00    -0.247 OA
HETATM    5  H   UNL     1       1.687  35.789  62.876  1.00  0.00     0.171 HD
HETATM    6  H   UNL     1       4.928  35.531  63.924  1.00  0.00     0.164 HD
ENDROOT
BRANCH   1   7
HETATM    7  C   UNL     1       3.307  36.775  62.144  1.00  0.00     0.070 A 
HETATM    8  C   UNL     1       4.193  37.692  62.726  1.00  0.00     0.040 A 
HETATM    9  C   UNL     1       4.872  38.648  61.943  1.00  0.00    -0.048 A 
HETATM   10  C   UNL     1       4.610  38.653  60.560  1.00  0.00     0.011 A 
HETATM   11  C   UNL     1       3.728  37.741  59.971  1.00  0.00     0.039 A 
HETATM   12  C   UNL     1       3.090  36.785  60.753  1.00  0.00     0.095 A 
BRANCH   9  13
HETATM   13  C   UNL     1       5.951  39.570  62.547  1.00  0.00    -0.024 C 
HETATM   14  C   UNL     1       7.200  39.496  61.645  1.00  0.00     0.019 C 
HETATM   15  C   UNL     1       6.352  39.156  63.981  1.00  0.00     0.019 C 
HETATM   16  C   UNL     1       5.496  41.046  62.628  1.00  0.00     0.019 C 
ENDBRANCH   9  13
BRANCH  12  17
HETATM   17  O   UNL     1       2.235  35.816  60.285  1.00  0.00    -0.354 OA
HETATM   18  C   UNL     1       2.770  34.871  59.363  1.00  0.00     0.210 C 
ENDBRANCH  12  17
ENDBRANCH   1   7
BRANCH   3  19
HETATM   19  C   UNL     1       5.031  33.517  64.645  1.00  0.00     0.166 C 
BRANCH  19  20
HETATM   20  C   UNL     1       6.025  32.701  63.839  1.00  0.00     0.003 A 
HETATM   21  C   UNL     1       5.645  31.636  62.999  1.00  0.00     0.106 A 
HETATM   22  N   UNL     1       6.595  30.998  62.298  1.00  0.00    -0.352 N 
HETATM   23  H   UNL     1       6.283  30.262  61.674  1.00  0.00     0.166 HD
HETATM   24  C   UNL     1       7.893  31.317  62.332  1.00  0.00     0.089 A 
HETATM   25  C   UNL     1       8.327  32.358  63.130  1.00  0.00     0.018 A 
HETATM   26  C   UNL     1       7.389  33.044  63.896  1.00  0.00     0.014 A 
BRANCH  21  27
HETATM   27  N   UNL     1       4.348  31.306  62.693  1.00  0.00    -0.385 N 
HETATM   28  H   UNL     1       3.964  31.707  61.825  1.00  0.00     0.157 HD
HETATM   29  H   UNL     1       3.625  31.218  63.392  1.00  0.00     0.157 HD
ENDBRANCH  21  27
ENDBRANCH  19  20
ENDBRANCH   3  19
TORSDOF 6
ENDMDL
MODEL 8
REMARK VINA RESULT:      -7.3      4.192      6.497
REMARK  6 active torsions:
REMARK  status: ('A' for Active; 'I' for Inactive)
REMARK    1  A    between atoms: C_2  and  C_3 
REMARK    2  A    between atoms: C_5  and  N_6 
REMARK       I    between atoms: N_6  and  C_7 
REMARK       I    between atoms: C_7  and  N_8 
REMARK    3  A    between atoms: N_8  and  C_9 
REMARK    4  A    between atoms: C_9  and  C_10 
REMARK    5  A    between atoms: C_11  and  N_12 
REMARK    6  A    between atoms: C_19  and  O_20 
ROOT
HETATM    1  N   UNL     1       4.847  30.793  57.346  1.00  0.00    -0.306 N 
HETATM    2  C   UNL     1       4.044  31.433  58.226  1.00  0.00     0.321 C 
HETATM    3  N   UNL     1       4.449  31.504  59.523  1.00  0.00    -0.338 N 
HETATM    4  O   UNL     1       3.073  32.063  57.814  1.00  0.00    -0.247 OA
HETATM    5  H   UNL     1       4.704  31.082  56.384  1.00  0.00     0.171 HD
HETATM    6  H   UNL     1       5.390  31.198  59.728  1.00  0.00     0.164 HD
ENDROOT
BRANCH   1   7
HETATM    7  C   UNL     1       5.767  29.737  57.477  1.00  0.00     0.070 A 
HETATM    8  C   UNL     1       5.481  28.418  57.104  1.00  0.00     0.040 A 
HETATM    9  C   UNL     1       6.474  27.417  57.139  1.00  0.00    -0.048 A 
HETATM   10  C   UNL     1       7.756  27.796  57.578  1.00  0.00     0.011 A 
HETATM   11  C   UNL     1       8.051  29.111  57.951  1.00  0.00     0.039 A 
HETATM   12  C   UNL     1       7.068  30.091  57.883  1.00  0.00     0.095 A 
BRANCH   9  13
HETATM   13  C   UNL     1       6.209  25.995  56.602  1.00  0.00    -0.024 C 
HETATM   14  C   UNL     1       6.005  26.094  55.076  1.00  0.00     0.019 C 
HETATM   15  C   UNL     1       4.953  25.348  57.227  1.00  0.00     0.019 C 
HETATM   16  C   UNL     1       7.384  25.027  56.874  1.00  0.00     0.019 C 
ENDBRANCH   9  13
BRANCH  12  17
HETATM   17  O   UNL     1       7.248  31.421  58.185  1.00  0.00    -0.354 OA
HETATM   18  C   UNL     1       7.968  31.722  59.376  1.00  0.00     0.210 C 
ENDBRANCH  12  17
ENDBRANCH   1   7
BRANCH   3  19
HETATM   19  C   UNL     1       3.701  32.251  60.519  1.00  0.00     0.166 C 
BRANCH  19  20
HETATM   20  C   UNL     1       4.565  32.866  61.604  1.00  0.00     0.003 A 
HETATM   21  C   UNL     1       4.933  32.180  62.778  1.00  0.00     0.106 A 
HETATM   22  N   UNL     1       5.732  32.798  63.661  1.00  0.00    -0.352 N 
HETATM   23  H   UNL     1       6.008  32.261  64.476  1.00  0.00     0.166 HD
HETATM   24  C   UNL     1       6.219  34.031  63.497  1.00  0.00     0.089 A 
HETATM   25  C   UNL     1       5.902  34.752  62.361  1.00  0.00     0.018 A 
HETATM   26  C   UNL     1       5.061  34.171  61.418  1.00  0.00     0.014 A 
BRANCH  21  27
HETATM   27  N   UNL     1       4.689  30.849  63.015  1.00  0.00    -0.385 N 
HETATM   28  H   UNL     1       5.167  30.177  62.397  1.00  0.00     0.157 HD
HETATM   29  H   UNL     1       3.782  30.498  63.285  1.00  0.00     0.157 HD
ENDBRANCH  21  27
ENDBRANCH  19  20
ENDBRANCH   3  19
TORSDOF 6
ENDMDL
MODEL 9
REMARK VINA RESULT:      -7.3      3.898      9.065
REMARK  6 active torsions:
REMARK  status: ('A' for Active; 'I' for Inactive)
REMARK    1  A    between atoms: C_2  and  C_3 
REMARK    2  A    between atoms: C_5  and  N_6 
REMARK       I    between atoms: N_6  and  C_7 
REMARK       I    between atoms: C_7  and  N_8 
REMARK    3  A    between atoms: N_8  and  C_9 
REMARK    4  A    between atoms: C_9  and  C_10 
REMARK    5  A    between atoms: C_11  and  N_12 
REMARK    6  A    between atoms: C_19  and  O_20 
ROOT
HETATM    1  N   UNL     1       7.965  31.138  58.575  1.00  0.00    -0.306 N 
HETATM    2  C   UNL     1       8.191  29.854  58.214  1.00  0.00     0.321 C 
HETATM    3  N   UNL     1       7.117  29.029  58.088  1.00  0.00    -0.338 N 
HETATM    4  O   UNL     1       9.316  29.513  57.856  1.00  0.00    -0.247 OA
HETATM    5  H   UNL     1       8.707  31.772  58.297  1.00  0.00     0.171 HD
HETATM    6  H   UNL     1       6.201  29.457  58.135  1.00  0.00     0.164 HD
ENDROOT
BRANCH   1   7
HETATM    7  C   UNL     1       6.965  31.758  59.344  1.00  0.00     0.070 A 
HETATM    8  C   UNL     1       7.116  32.055  60.705  1.00  0.00     0.040 A 
HETATM    9  C   UNL     1       6.135  32.787  61.405  1.00  0.00    -0.048 A 
HETATM   10  C   UNL     1       4.995  33.190  60.686  1.00  0.00     0.011 A 
HETATM   11  C   UNL     1       4.837  32.899  59.328  1.00  0.00     0.039 A 
HETATM   12  C   UNL     1       5.827  32.202  58.645  1.00  0.00     0.095 A 
BRANCH   9  13
HETATM   13  C   UNL     1       6.352  33.239  62.865  1.00  0.00    -0.024 C 
HETATM   14  C   UNL     1       6.205  34.774  62.914  1.00  0.00     0.019 C 
HETATM   15  C   UNL     1       7.750  32.860  63.404  1.00  0.00     0.019 C 
HETATM   16  C   UNL     1       5.323  32.620  63.839  1.00  0.00     0.019 C 
ENDBRANCH   9  13
BRANCH  12  17
HETATM   17  O   UNL     1       5.802  31.891  57.306  1.00  0.00    -0.354 OA
HETATM   18  C   UNL     1       4.588  31.356  56.788  1.00  0.00     0.210 C 
ENDBRANCH  12  17
ENDBRANCH   1   7
BRANCH   3  19
HETATM   19  C   UNL     1       7.250  27.663  57.614  1.00  0.00     0.166 C 
BRANCH  19  20
HETATM   20  C   UNL     1       6.699  27.438  56.219  1.00  0.00     0.003 A 
HETATM   21  C   UNL     1       5.400  26.950  55.974  1.00  0.00     0.106 A 
HETATM   22  N   UNL     1       4.991  26.820  54.702  1.00  0.00    -0.352 N 
HETATM   23  H   UNL     1       4.038  26.502  54.562  1.00  0.00     0.166 HD
HETATM   24  C   UNL     1       5.735  27.138  53.639  1.00  0.00     0.089 A 
HETATM   25  C   UNL     1       7.014  27.631  53.814  1.00  0.00     0.018 A 
HETATM   26  C   UNL     1       7.501  27.768  55.111  1.00  0.00     0.014 A 
BRANCH  21  27
HETATM   27  N   UNL     1       4.440  26.763  56.937  1.00  0.00    -0.385 N 
HETATM   28  H   UNL     1       4.763  26.391  57.842  1.00  0.00     0.157 HD
HETATM   29  H   UNL     1       3.511  26.426  56.728  1.00  0.00     0.157 HD
ENDBRANCH  21  27
ENDBRANCH  19  20
ENDBRANCH   3  19
TORSDOF 6
ENDMDL
MODEL 10
REMARK VINA RESULT:      -7.1      2.763      7.587
REMARK  6 active torsions:
REMARK  status: ('A' for Active; 'I' for Inactive)
REMARK    1  A    between atoms: C_2  and  C_3 
REMARK    2  A    between atoms: C_5  and  N_6 
REMARK       I    between atoms: N_6  and  C_7 
REMARK       I    between atoms: C_7  and  N_8 
REMARK    3  A    between atoms: N_8  and  C_9 
REMARK    4  A    between atoms: C_9  and  C_10 
REMARK    5  A    between atoms: C_11  and  N_12 
REMARK    6  A    between atoms: C_19  and  O_20 
ROOT
HETATM    1  N   UNL     1       7.530  29.007  55.162  1.00  0.00    -0.306 N 
HETATM    2  C   UNL     1       7.246  27.728  54.828  1.00  0.00     0.321 C 
HETATM    3  N   UNL     1       6.251  27.097  55.508  1.00  0.00    -0.338 N 
HETATM    4  O   UNL     1       7.768  27.230  53.833  1.00  0.00    -0.247 OA
HETATM    5  H   UNL     1       7.983  29.527  54.418  1.00  0.00     0.171 HD
HETATM    6  H   UNL     1       5.687  27.664  56.127  1.00  0.00     0.164 HD
ENDROOT
BRANCH   1   7
HETATM    7  C   UNL     1       7.419  29.735  56.360  1.00  0.00     0.070 A 
HETATM    8  C   UNL     1       6.286  30.485  56.700  1.00  0.00     0.040 A 
HETATM    9  C   UNL     1       6.170  31.099  57.964  1.00  0.00    -0.048 A 
HETATM   10  C   UNL     1       7.242  30.938  58.861  1.00  0.00     0.011 A 
HETATM   11  C   UNL     1       8.376  30.189  58.530  1.00  0.00     0.039 A 
HETATM   12  C   UNL     1       8.462  29.567  57.290  1.00  0.00     0.095 A 
BRANCH   9  13
HETATM   13  C   UNL     1       4.872  31.811  58.402  1.00  0.00    -0.024 C 
HETATM   14  C   UNL     1       5.067  32.306  59.850  1.00  0.00     0.019 C 
HETATM   15  C   UNL     1       3.639  30.880  58.361  1.00  0.00     0.019 C 
HETATM   16  C   UNL     1       4.533  33.030  57.513  1.00  0.00     0.019 C 
ENDBRANCH   9  13
BRANCH  12  17
HETATM   17  O   UNL     1       9.504  28.776  56.867  1.00  0.00    -0.354 OA
HETATM   18  C   UNL     1      10.784  29.392  56.765  1.00  0.00     0.210 C 
ENDBRANCH  12  17
ENDBRANCH   1   7
BRANCH   3  19
HETATM   19  C   UNL     1       5.812  25.757  55.159  1.00  0.00     0.166 C 
BRANCH  19  20
HETATM   20  C   UNL     1       6.828  24.675  55.472  1.00  0.00     0.003 A 
HETATM   21  C   UNL     1       7.448  24.542  56.730  1.00  0.00     0.106 A 
HETATM   22  N   UNL     1       8.307  23.529  56.920  1.00  0.00    -0.352 N 
HETATM   23  H   UNL     1       8.706  23.439  57.849  1.00  0.00     0.166 HD
HETATM   24  C   UNL     1       8.609  22.617  55.991  1.00  0.00     0.089 A 
HETATM   25  C   UNL     1       8.026  22.688  54.740  1.00  0.00     0.018 A 
HETATM   26  C   UNL     1       7.142  23.730  54.477  1.00  0.00     0.014 A 
BRANCH  21  27
HETATM   27  N   UNL     1       7.109  25.262  57.849  1.00  0.00    -0.385 N 
HETATM   28  H   UNL     1       6.619  24.748  58.595  1.00  0.00     0.157 HD
HETATM   29  H   UNL     1       6.789  26.219  57.809  1.00  0.00     0.157 HD
ENDBRANCH  21  27
ENDBRANCH  19  20
ENDBRANCH   3  19
TORSDOF 6
ENDMDL
