MODEL 1
REMARK VINA RESULT:      -9.0      0.000      0.000
REMARK  4 active torsions:
REMARK  status: ('A' for Active; 'I' for Inactive)
REMARK    1  A    between atoms: C_9  and  C_10 
REMARK    2  A    between atoms: C_13  and  O_14 
REMARK    3  A    between atoms: C_18  and  C_19 
REMARK       I    between atoms: C_19  and  N_20 
REMARK    4  A    between atoms: N_20  and  C_21 
ROOT
HETATM    1  C   UNL     1       5.296  26.576  50.350  1.00  0.00     0.070 C 
HETATM    2  C   UNL     1       5.049  27.407  51.584  1.00  0.00     0.037 C 
HETATM    3  N   UNL     1       4.764  28.750  51.354  1.00  0.00    -0.192 N 
HETATM    4  C   UNL     1       4.266  29.566  52.304  1.00  0.00     0.725 A 
HETATM    5  N   UNL     1       4.182  29.121  53.596  1.00  0.00    -0.084 N 
HETATM    6  N   UNL     1       3.578  30.031  54.389  1.00  0.00    -0.149 NA
HETATM    7  C   UNL     1       3.371  31.020  53.513  1.00  0.00     0.275 A 
HETATM    8  N   UNL     1       3.780  30.778  52.227  1.00  0.00    -0.054 NA
HETATM    9  C   UNL     1       4.644  27.801  54.041  1.00  0.00     0.202 C 
HETATM   10  C   UNL     1       5.021  26.923  52.851  1.00  0.00     0.062 C 
HETATM   11  H   UNL     1       4.702  29.058  50.387  1.00  0.00     0.184 HD
ENDROOT
BRANCH  10  12
HETATM   12  C   UNL     1       5.227  25.493  53.202  1.00  0.00     0.256 C 
HETATM   13  N   UNL     1       6.541  25.179  53.476  1.00  0.00    -0.323 N 
HETATM   14  H   UNL     1       7.209  25.939  53.448  1.00  0.00     0.169 HD
HETATM   15  O   UNL     1       4.254  24.755  53.255  1.00  0.00    -0.267 OA
BRANCH  13  16
HETATM   16  C   UNL     1       7.068  23.906  53.774  1.00  0.00     0.035 A 
HETATM   17  C   UNL     1       7.575  23.026  52.813  1.00  0.00     0.031 A 
HETATM   18  C   UNL     1       8.101  21.786  53.192  1.00  0.00     0.026 A 
HETATM   19  C   UNL     1       8.126  21.422  54.535  1.00  0.00     0.034 A 
HETATM   20 CL   UNL     1       8.783  19.902  55.001  1.00  0.00    -0.084 Cl
HETATM   21  C   UNL     1       7.624  22.285  55.503  1.00  0.00     0.026 A 
HETATM   22  C   UNL     1       7.092  23.522  55.122  1.00  0.00     0.031 A 
ENDBRANCH  13  16
ENDBRANCH  10  12
BRANCH   9  23
HETATM   23  C   UNL     1       5.798  27.948  55.031  1.00  0.00    -0.028 A 
HETATM   24  C   UNL     1       7.008  28.517  54.608  1.00  0.00     0.012 A 
HETATM   25  C   UNL     1       8.077  28.654  55.496  1.00  0.00     0.037 A 
HETATM   26  C   UNL     1       7.965  28.229  56.821  1.00  0.00     0.068 A 
HETATM   27  C   UNL     1       6.760  27.683  57.258  1.00  0.00     0.037 A 
HETATM   28  C   UNL     1       5.683  27.548  56.374  1.00  0.00     0.012 A 
BRANCH  26  29
HETATM   29  O   UNL     1       9.090  28.405  57.577  1.00  0.00    -0.356 OA
HETATM   30  C   UNL     1      10.098  29.250  57.040  1.00  0.00     0.210 C 
ENDBRANCH  26  29
ENDBRANCH   9  23
TORSDOF 4
ENDMDL
MODEL 2
REMARK VINA RESULT:      -8.3      2.632      5.759
REMARK  4 active torsions:
REMARK  status: ('A' for Active; 'I' for Inactive)
REMARK    1  A    between atoms: C_9  and  C_10 
REMARK    2  A    between atoms: C_13  and  O_14 
REMARK    3  A    between atoms: C_18  and  C_19 
REMARK       I    between atoms: C_19  and  N_20 
REMARK    4  A    between atoms: N_20  and  C_21 
ROOT
HETATM    1  C   UNL     1       4.280  29.128  54.632  1.00  0.00     0.070 C 
HETATM    2  C   UNL     1       4.614  29.311  53.173  1.00  0.00     0.037 C 
HETATM    3  N   UNL     1       4.585  30.624  52.712  1.00  0.00    -0.192 N 
HETATM    4  C   UNL     1       5.104  30.994  51.524  1.00  0.00     0.725 A 
HETATM    5  N   UNL     1       5.536  30.034  50.650  1.00  0.00    -0.084 N 
HETATM    6  N   UNL     1       6.106  30.586  49.558  1.00  0.00    -0.149 NA
HETATM    7  C   UNL     1       5.937  31.886  49.824  1.00  0.00     0.275 A 
HETATM    8  N   UNL     1       5.326  32.179  51.016  1.00  0.00    -0.054 NA
HETATM    9  C   UNL     1       5.434  28.591  50.899  1.00  0.00     0.202 C 
HETATM   10  C   UNL     1       4.993  28.314  52.334  1.00  0.00     0.062 C 
HETATM   11  H   UNL     1       4.387  31.356  53.389  1.00  0.00     0.184 HD
ENDROOT
BRANCH  10  12
HETATM   12  C   UNL     1       5.139  26.892  52.742  1.00  0.00     0.256 C 
HETATM   13  N   UNL     1       6.429  26.548  53.085  1.00  0.00    -0.323 N 
HETATM   14  H   UNL     1       7.121  27.287  53.061  1.00  0.00     0.169 HD
HETATM   15  O   UNL     1       4.142  26.185  52.777  1.00  0.00    -0.267 OA
BRANCH  13  16
HETATM   16  C   UNL     1       6.903  25.271  53.449  1.00  0.00     0.035 A 
HETATM   17  C   UNL     1       6.810  24.742  54.739  1.00  0.00     0.031 A 
HETATM   18  C   UNL     1       7.286  23.454  55.014  1.00  0.00     0.026 A 
HETATM   19  C   UNL     1       7.853  22.690  53.999  1.00  0.00     0.034 A 
HETATM   20 CL   UNL     1       8.427  21.104  54.337  1.00  0.00    -0.084 Cl
HETATM   21  C   UNL     1       7.954  23.204  52.711  1.00  0.00     0.026 A 
HETATM   22  C   UNL     1       7.485  24.493  52.438  1.00  0.00     0.031 A 
ENDBRANCH  13  16
ENDBRANCH  10  12
BRANCH   9  23
HETATM   23  C   UNL     1       4.502  27.940  49.880  1.00  0.00    -0.028 A 
HETATM   24  C   UNL     1       3.209  28.449  49.696  1.00  0.00     0.012 A 
HETATM   25  C   UNL     1       2.339  27.863  48.774  1.00  0.00     0.037 A 
HETATM   26  C   UNL     1       2.737  26.760  48.016  1.00  0.00     0.068 A 
HETATM   27  C   UNL     1       4.029  26.260  48.174  1.00  0.00     0.037 A 
HETATM   28  C   UNL     1       4.906  26.846  49.093  1.00  0.00     0.012 A 
BRANCH  26  29
HETATM   29  O   UNL     1       1.785  26.274  47.165  1.00  0.00    -0.356 OA
HETATM   30  C   UNL     1       0.847  27.210  46.650  1.00  0.00     0.210 C 
ENDBRANCH  26  29
ENDBRANCH   9  23
TORSDOF 4
ENDMDL
MODEL 3
REMARK VINA RESULT:      -8.2      5.776      9.112
REMARK  4 active torsions:
REMARK  status: ('A' for Active; 'I' for Inactive)
REMARK    1  A    between atoms: C_9  and  C_10 
REMARK    2  A    between atoms: C_13  and  O_14 
REMARK    3  A    between atoms: C_18  and  C_19 
REMARK       I    between atoms: C_19  and  N_20 
REMARK    4  A    between atoms: N_20  and  C_21 
ROOT
HETATM    1  C   UNL     1      10.520  30.441  57.542  1.00  0.00     0.070 C 
HETATM    2  C   UNL     1       9.141  29.852  57.392  1.00  0.00     0.037 C 
HETATM    3  N   UNL     1       9.033  28.804  56.481  1.00  0.00    -0.192 N 
HETATM    4  C   UNL     1       7.953  28.000  56.415  1.00  0.00     0.725 A 
HETATM    5  N   UNL     1       6.841  28.305  57.152  1.00  0.00    -0.084 N 
HETATM    6  N   UNL     1       5.898  27.346  57.034  1.00  0.00    -0.149 NA
HETATM    7  C   UNL     1       6.495  26.519  56.171  1.00  0.00     0.275 A 
HETATM    8  N   UNL     1       7.754  26.882  55.764  1.00  0.00    -0.054 NA
HETATM    9  C   UNL     1       6.718  29.498  57.997  1.00  0.00     0.202 C 
HETATM   10  C   UNL     1       8.056  30.223  58.117  1.00  0.00     0.062 C 
HETATM   11  H   UNL     1       9.885  28.490  56.023  1.00  0.00     0.184 HD
ENDROOT
BRANCH  10  12
HETATM   12  C   UNL     1       8.078  31.269  59.173  1.00  0.00     0.256 C 
HETATM   13  N   UNL     1       7.564  30.843  60.380  1.00  0.00    -0.323 N 
HETATM   14  H   UNL     1       7.265  29.878  60.434  1.00  0.00     0.169 HD
HETATM   15  O   UNL     1       8.565  32.360  58.910  1.00  0.00    -0.267 OA
BRANCH  13  16
HETATM   16  C   UNL     1       7.386  31.610  61.548  1.00  0.00     0.035 A 
HETATM   17  C   UNL     1       8.374  31.794  62.521  1.00  0.00     0.031 A 
HETATM   18  C   UNL     1       8.125  32.590  63.645  1.00  0.00     0.026 A 
HETATM   19  C   UNL     1       6.889  33.209  63.799  1.00  0.00     0.034 A 
HETATM   20 CL   UNL     1       6.588  34.196  65.176  1.00  0.00    -0.084 Cl
HETATM   21  C   UNL     1       5.895  33.035  62.842  1.00  0.00     0.026 A 
HETATM   22  C   UNL     1       6.142  32.234  61.722  1.00  0.00     0.031 A 
ENDBRANCH  13  16
ENDBRANCH  10  12
BRANCH   9  23
HETATM   23  C   UNL     1       5.617  30.414  57.468  1.00  0.00    -0.028 A 
HETATM   24  C   UNL     1       4.599  30.847  58.328  1.00  0.00     0.012 A 
HETATM   25  C   UNL     1       3.579  31.678  57.860  1.00  0.00     0.037 A 
HETATM   26  C   UNL     1       3.552  32.097  56.529  1.00  0.00     0.068 A 
HETATM   27  C   UNL     1       4.572  31.693  55.670  1.00  0.00     0.037 A 
HETATM   28  C   UNL     1       5.599  30.863  56.135  1.00  0.00     0.012 A 
BRANCH  26  29
HETATM   29  O   UNL     1       2.492  32.894  56.199  1.00  0.00    -0.356 OA
HETATM   30  C   UNL     1       1.874  32.651  54.942  1.00  0.00     0.210 C 
ENDBRANCH  26  29
ENDBRANCH   9  23
TORSDOF 4
ENDMDL
MODEL 4
REMARK VINA RESULT:      -7.8      1.859      2.517
REMARK  4 active torsions:
REMARK  status: ('A' for Active; 'I' for Inactive)
REMARK    1  A    between atoms: C_9  and  C_10 
REMARK    2  A    between atoms: C_13  and  O_14 
REMARK    3  A    between atoms: C_18  and  C_19 
REMARK       I    between atoms: C_19  and  N_20 
REMARK    4  A    between atoms: N_20  and  C_21 
ROOT
HETATM    1  C   UNL     1       5.826  28.956  51.700  1.00  0.00     0.070 C 
HETATM    2  C   UNL     1       5.390  29.182  53.125  1.00  0.00     0.037 C 
HETATM    3  N   UNL     1       4.483  30.222  53.316  1.00  0.00    -0.192 N 
HETATM    4  C   UNL     1       3.796  30.392  54.463  1.00  0.00     0.725 A 
HETATM    5  N   UNL     1       4.104  29.623  55.553  1.00  0.00    -0.084 N 
HETATM    6  N   UNL     1       3.259  29.865  56.577  1.00  0.00    -0.149 NA
HETATM    7  C   UNL     1       2.499  30.828  56.046  1.00  0.00     0.275 A 
HETATM    8  N   UNL     1       2.795  31.182  54.755  1.00  0.00    -0.054 NA
HETATM    9  C   UNL     1       5.184  28.630  55.577  1.00  0.00     0.202 C 
HETATM   10  C   UNL     1       5.762  28.416  54.181  1.00  0.00     0.062 C 
HETATM   11  H   UNL     1       4.154  30.716  52.491  1.00  0.00     0.184 HD
ENDROOT
BRANCH  10  12
HETATM   12  C   UNL     1       6.656  27.233  54.077  1.00  0.00     0.256 C 
HETATM   13  N   UNL     1       6.004  26.033  54.267  1.00  0.00    -0.323 N 
HETATM   14  H   UNL     1       5.005  26.075  54.418  1.00  0.00     0.169 HD
HETATM   15  O   UNL     1       7.836  27.409  53.805  1.00  0.00    -0.267 OA
BRANCH  13  16
HETATM   16  C   UNL     1       6.580  24.746  54.297  1.00  0.00     0.035 A 
HETATM   17  C   UNL     1       6.874  24.049  55.473  1.00  0.00     0.031 A 
HETATM   18  C   UNL     1       7.426  22.764  55.417  1.00  0.00     0.026 A 
HETATM   19  C   UNL     1       7.682  22.169  54.185  1.00  0.00     0.034 A 
HETATM   20 CL   UNL     1       8.350  20.586  54.118  1.00  0.00    -0.084 Cl
HETATM   21  C   UNL     1       7.396  22.851  53.007  1.00  0.00     0.026 A 
HETATM   22  C   UNL     1       6.851  24.138  53.064  1.00  0.00     0.031 A 
ENDBRANCH  13  16
ENDBRANCH  10  12
BRANCH   9  23
HETATM   23  C   UNL     1       6.258  29.037  56.584  1.00  0.00    -0.028 A 
HETATM   24  C   UNL     1       7.053  28.053  57.188  1.00  0.00     0.012 A 
HETATM   25  C   UNL     1       8.035  28.406  58.117  1.00  0.00     0.037 A 
HETATM   26  C   UNL     1       8.247  29.742  58.462  1.00  0.00     0.068 A 
HETATM   27  C   UNL     1       7.478  30.730  57.850  1.00  0.00     0.037 A 
HETATM   28  C   UNL     1       6.496  30.383  56.915  1.00  0.00     0.012 A 
BRANCH  26  29
HETATM   29  O   UNL     1       9.225  29.946  59.394  1.00  0.00    -0.356 OA
HETATM   30  C   UNL     1       8.906  30.803  60.482  1.00  0.00     0.210 C 
ENDBRANCH  26  29
ENDBRANCH   9  23
TORSDOF 4
ENDMDL
MODEL 5
REMARK VINA RESULT:      -7.5      9.156     12.058
REMARK  4 active torsions:
REMARK  status: ('A' for Active; 'I' for Inactive)
REMARK    1  A    between atoms: C_9  and  C_10 
REMARK    2  A    between atoms: C_13  and  O_14 
REMARK    3  A    between atoms: C_18  and  C_19 
REMARK       I    between atoms: C_19  and  N_20 
REMARK    4  A    between atoms: N_20  and  C_21 
ROOT
HETATM    1  C   UNL     1       8.002  31.433  61.456  1.00  0.00     0.070 C 
HETATM    2  C   UNL     1       6.740  31.861  60.751  1.00  0.00     0.037 C 
HETATM    3  N   UNL     1       6.785  31.814  59.360  1.00  0.00    -0.192 N 
HETATM    4  C   UNL     1       5.683  31.906  58.589  1.00  0.00     0.725 A 
HETATM    5  N   UNL     1       4.482  32.221  59.166  1.00  0.00    -0.084 N 
HETATM    6  N   UNL     1       3.480  32.178  58.263  1.00  0.00    -0.149 NA
HETATM    7  C   UNL     1       4.162  31.879  57.153  1.00  0.00     0.275 A 
HETATM    8  N   UNL     1       5.513  31.706  57.308  1.00  0.00    -0.054 NA
HETATM    9  C   UNL     1       4.309  32.515  60.594  1.00  0.00     0.202 C 
HETATM   10  C   UNL     1       5.585  32.210  61.373  1.00  0.00     0.062 C 
HETATM   11  H   UNL     1       7.635  31.460  58.930  1.00  0.00     0.184 HD
ENDROOT
BRANCH  10  12
HETATM   12  C   UNL     1       5.402  32.213  62.848  1.00  0.00     0.256 C 
HETATM   13  N   UNL     1       5.786  33.394  63.447  1.00  0.00    -0.323 N 
HETATM   14  H   UNL     1       6.111  34.132  62.836  1.00  0.00     0.169 HD
HETATM   15  O   UNL     1       4.910  31.228  63.382  1.00  0.00    -0.267 OA
BRANCH  13  16
HETATM   16  C   UNL     1       5.798  33.685  64.826  1.00  0.00     0.035 A 
HETATM   17  C   UNL     1       6.962  33.782  65.594  1.00  0.00     0.031 A 
HETATM   18  C   UNL     1       6.891  34.097  66.956  1.00  0.00     0.026 A 
HETATM   19  C   UNL     1       5.654  34.319  67.555  1.00  0.00     0.034 A 
HETATM   20 CL   UNL     1       5.568  34.716  69.226  1.00  0.00    -0.084 Cl
HETATM   21  C   UNL     1       4.487  34.224  66.805  1.00  0.00     0.026 A 
HETATM   22  C   UNL     1       4.559  33.903  65.445  1.00  0.00     0.031 A 
ENDBRANCH  13  16
ENDBRANCH  10  12
BRANCH   9  23
HETATM   23  C   UNL     1       3.853  33.959  60.787  1.00  0.00    -0.028 A 
HETATM   24  C   UNL     1       4.586  35.003  60.205  1.00  0.00     0.012 A 
HETATM   25  C   UNL     1       4.189  36.331  60.377  1.00  0.00     0.037 A 
HETATM   26  C   UNL     1       3.056  36.647  61.129  1.00  0.00     0.068 A 
HETATM   27  C   UNL     1       2.306  35.616  61.692  1.00  0.00     0.037 A 
HETATM   28  C   UNL     1       2.697  34.283  61.519  1.00  0.00     0.012 A 
BRANCH  26  29
HETATM   29  O   UNL     1       2.789  37.984  61.232  1.00  0.00    -0.356 OA
HETATM   30  C   UNL     1       2.456  38.666  60.030  1.00  0.00     0.210 C 
ENDBRANCH  26  29
ENDBRANCH   9  23
TORSDOF 4
ENDMDL
MODEL 6
REMARK VINA RESULT:      -7.2      9.284     12.226
REMARK  4 active torsions:
REMARK  status: ('A' for Active; 'I' for Inactive)
REMARK    1  A    between atoms: C_9  and  C_10 
REMARK    2  A    between atoms: C_13  and  O_14 
REMARK    3  A    between atoms: C_18  and  C_19 
REMARK       I    between atoms: C_19  and  N_20 
REMARK    4  A    between atoms: N_20  and  C_21 
ROOT
HETATM    1  C   UNL     1       3.522  37.436  62.500  1.00  0.00     0.070 C 
HETATM    2  C   UNL     1       3.984  36.324  63.407  1.00  0.00     0.037 C 
HETATM    3  N   UNL     1       4.362  36.715  64.689  1.00  0.00    -0.192 N 
HETATM    4  C   UNL     1       4.545  35.839  65.697  1.00  0.00     0.725 A 
HETATM    5  N   UNL     1       4.522  34.497  65.434  1.00  0.00    -0.084 N 
HETATM    6  N   UNL     1       4.629  33.774  66.569  1.00  0.00    -0.149 NA
HETATM    7  C   UNL     1       4.764  34.751  67.471  1.00  0.00     0.275 A 
HETATM    8  N   UNL     1       4.720  36.031  66.979  1.00  0.00    -0.054 NA
HETATM    9  C   UNL     1       4.350  33.925  64.093  1.00  0.00     0.202 C 
HETATM   10  C   UNL     1       3.984  35.007  63.081  1.00  0.00     0.062 C 
HETATM   11  H   UNL     1       4.261  37.698  64.929  1.00  0.00     0.184 HD
ENDROOT
BRANCH  10  12
HETATM   12  C   UNL     1       3.522  34.473  61.773  1.00  0.00     0.256 C 
HETATM   13  N   UNL     1       4.454  34.602  60.766  1.00  0.00    -0.323 N 
HETATM   14  H   UNL     1       5.348  35.003  61.020  1.00  0.00     0.169 HD
HETATM   15  O   UNL     1       2.417  33.951  61.709  1.00  0.00    -0.267 OA
BRANCH  13  16
HETATM   16  C   UNL     1       4.296  34.256  59.409  1.00  0.00     0.035 A 
HETATM   17  C   UNL     1       4.850  33.114  58.824  1.00  0.00     0.031 A 
HETATM   18  C   UNL     1       4.628  32.830  57.471  1.00  0.00     0.026 A 
HETATM   19  C   UNL     1       3.847  33.685  56.699  1.00  0.00     0.034 A 
HETATM   20 CL   UNL     1       3.566  33.328  55.040  1.00  0.00    -0.084 Cl
HETATM   21  C   UNL     1       3.290  34.826  57.266  1.00  0.00     0.026 A 
HETATM   22  C   UNL     1       3.518  35.113  58.617  1.00  0.00     0.031 A 
ENDBRANCH  13  16
ENDBRANCH  10  12
BRANCH   9  23
HETATM   23  C   UNL     1       5.602  33.155  63.679  1.00  0.00    -0.028 A 
HETATM   24  C   UNL     1       5.477  31.974  62.934  1.00  0.00     0.012 A 
HETATM   25  C   UNL     1       6.610  31.252  62.553  1.00  0.00     0.037 A 
HETATM   26  C   UNL     1       7.888  31.689  62.904  1.00  0.00     0.068 A 
HETATM   27  C   UNL     1       8.026  32.875  63.623  1.00  0.00     0.037 A 
HETATM   28  C   UNL     1       6.894  33.605  64.004  1.00  0.00     0.012 A 
BRANCH  26  29
HETATM   29  O   UNL     1       8.907  30.882  62.482  1.00  0.00    -0.356 OA
HETATM   30  C   UNL     1       9.439  31.141  61.190  1.00  0.00     0.210 C 
ENDBRANCH  26  29
ENDBRANCH   9  23
TORSDOF 4
ENDMDL
MODEL 7
REMARK VINA RESULT:      -7.1      3.619      6.142
REMARK  4 active torsions:
REMARK  status: ('A' for Active; 'I' for Inactive)
REMARK    1  A    between atoms: C_9  and  C_10 
REMARK    2  A    between atoms: C_13  and  O_14 
REMARK    3  A    between atoms: C_18  and  C_19 
REMARK       I    between atoms: C_19  and  N_20 
REMARK    4  A    between atoms: N_20  and  C_21 
ROOT
HETATM    1  C   UNL     1       6.704  25.654  52.376  1.00  0.00     0.070 C 
HETATM    2  C   UNL     1       5.810  26.566  51.574  1.00  0.00     0.037 C 
HETATM    3  N   UNL     1       5.616  26.197  50.245  1.00  0.00    -0.192 N 
HETATM    4  C   UNL     1       4.655  26.736  49.469  1.00  0.00     0.725 A 
HETATM    5  N   UNL     1       3.936  27.804  49.933  1.00  0.00    -0.084 N 
HETATM    6  N   UNL     1       2.961  28.152  49.066  1.00  0.00    -0.149 NA
HETATM    7  C   UNL     1       3.188  27.279  48.079  1.00  0.00     0.275 A 
HETATM    8  N   UNL     1       4.217  26.396  48.284  1.00  0.00    -0.054 NA
HETATM    9  C   UNL     1       4.168  28.449  51.231  1.00  0.00     0.202 C 
HETATM   10  C   UNL     1       5.153  27.643  52.073  1.00  0.00     0.062 C 
HETATM   11  H   UNL     1       6.049  25.333  49.930  1.00  0.00     0.184 HD
ENDROOT
BRANCH  10  12
HETATM   12  C   UNL     1       5.221  28.076  53.494  1.00  0.00     0.256 C 
HETATM   13  N   UNL     1       6.466  28.532  53.870  1.00  0.00    -0.323 N 
HETATM   14  H   UNL     1       7.179  28.560  53.152  1.00  0.00     0.169 HD
HETATM   15  O   UNL     1       4.204  28.031  54.171  1.00  0.00    -0.267 OA
BRANCH  13  16
HETATM   16  C   UNL     1       6.869  28.947  55.156  1.00  0.00     0.035 A 
HETATM   17  C   UNL     1       6.079  29.723  56.009  1.00  0.00     0.031 A 
HETATM   18  C   UNL     1       6.544  30.076  57.281  1.00  0.00     0.026 A 
HETATM   19  C   UNL     1       7.799  29.651  57.707  1.00  0.00     0.034 A 
HETATM   20 CL   UNL     1       8.364  30.076  59.274  1.00  0.00    -0.084 Cl
HETATM   21  C   UNL     1       8.597  28.879  56.869  1.00  0.00     0.026 A 
HETATM   22  C   UNL     1       8.135  28.533  55.594  1.00  0.00     0.031 A 
ENDBRANCH  13  16
ENDBRANCH  10  12
BRANCH   9  23
HETATM   23  C   UNL     1       4.631  29.890  51.033  1.00  0.00    -0.028 A 
HETATM   24  C   UNL     1       5.652  30.172  50.114  1.00  0.00     0.012 A 
HETATM   25  C   UNL     1       6.095  31.483  49.924  1.00  0.00     0.037 A 
HETATM   26  C   UNL     1       5.531  32.539  50.643  1.00  0.00     0.068 A 
HETATM   27  C   UNL     1       4.499  32.274  51.542  1.00  0.00     0.037 A 
HETATM   28  C   UNL     1       4.049  30.963  51.732  1.00  0.00     0.012 A 
BRANCH  26  29
HETATM   29  O   UNL     1       6.067  33.767  50.374  1.00  0.00    -0.356 OA
HETATM   30  C   UNL     1       6.111  34.697  51.448  1.00  0.00     0.210 C 
ENDBRANCH  26  29
ENDBRANCH   9  23
TORSDOF 4
ENDMDL
MODEL 8
REMARK VINA RESULT:      -6.9      7.063     10.213
REMARK  4 active torsions:
REMARK  status: ('A' for Active; 'I' for Inactive)
REMARK    1  A    between atoms: C_9  and  C_10 
REMARK    2  A    between atoms: C_13  and  O_14 
REMARK    3  A    between atoms: C_18  and  C_19 
REMARK       I    between atoms: C_19  and  N_20 
REMARK    4  A    between atoms: N_20  and  C_21 
ROOT
HETATM    1  C   UNL     1       5.012  29.469  57.204  1.00  0.00     0.070 C 
HETATM    2  C   UNL     1       5.818  30.376  58.098  1.00  0.00     0.037 C 
HETATM    3  N   UNL     1       7.120  29.957  58.360  1.00  0.00    -0.192 N 
HETATM    4  C   UNL     1       8.051  30.760  58.912  1.00  0.00     0.725 A 
HETATM    5  N   UNL     1       7.681  31.988  59.392  1.00  0.00    -0.084 N 
HETATM    6  N   UNL     1       8.751  32.688  59.823  1.00  0.00    -0.149 NA
HETATM    7  C   UNL     1       9.727  31.797  59.616  1.00  0.00     0.275 A 
HETATM    8  N   UNL     1       9.341  30.603  59.063  1.00  0.00    -0.054 NA
HETATM    9  C   UNL     1       6.301  32.489  59.387  1.00  0.00     0.202 C 
HETATM   10  C   UNL     1       5.387  31.566  58.587  1.00  0.00     0.062 C 
HETATM   11  H   UNL     1       7.441  29.107  57.903  1.00  0.00     0.184 HD
ENDROOT
BRANCH  10  12
HETATM   12  C   UNL     1       4.049  32.148  58.301  1.00  0.00     0.256 C 
HETATM   13  N   UNL     1       4.045  33.016  57.230  1.00  0.00    -0.323 N 
HETATM   14  H   UNL     1       4.921  33.138  56.737  1.00  0.00     0.169 HD
HETATM   15  O   UNL     1       3.097  31.796  58.983  1.00  0.00    -0.267 OA
BRANCH  13  16
HETATM   16  C   UNL     1       2.957  33.775  56.752  1.00  0.00     0.035 A 
HETATM   17  C   UNL     1       2.490  34.942  57.364  1.00  0.00     0.031 A 
HETATM   18  C   UNL     1       1.416  35.651  56.814  1.00  0.00     0.026 A 
HETATM   19  C   UNL     1       0.807  35.197  55.648  1.00  0.00     0.034 A 
HETATM   20 CL   UNL     1      -0.507  36.075  54.967  1.00  0.00    -0.084 Cl
HETATM   21  C   UNL     1       1.258  34.037  55.028  1.00  0.00     0.026 A 
HETATM   22  C   UNL     1       2.328  33.325  55.583  1.00  0.00     0.031 A 
ENDBRANCH  13  16
ENDBRANCH  10  12
BRANCH   9  23
HETATM   23  C   UNL     1       5.803  32.688  60.816  1.00  0.00    -0.028 A 
HETATM   24  C   UNL     1       5.151  33.879  61.166  1.00  0.00     0.012 A 
HETATM   25  C   UNL     1       4.694  34.083  62.470  1.00  0.00     0.037 A 
HETATM   26  C   UNL     1       4.877  33.108  63.452  1.00  0.00     0.068 A 
HETATM   27  C   UNL     1       5.504  31.910  63.111  1.00  0.00     0.037 A 
HETATM   28  C   UNL     1       5.959  31.699  61.804  1.00  0.00     0.012 A 
BRANCH  26  29
HETATM   29  O   UNL     1       4.399  33.441  64.688  1.00  0.00    -0.356 OA
HETATM   30  C   UNL     1       3.500  34.540  64.754  1.00  0.00     0.210 C 
ENDBRANCH  26  29
ENDBRANCH   9  23
TORSDOF 4
ENDMDL
MODEL 9
REMARK VINA RESULT:      -6.9     10.023     13.346
REMARK  4 active torsions:
REMARK  status: ('A' for Active; 'I' for Inactive)
REMARK    1  A    between atoms: C_9  and  C_10 
REMARK    2  A    between atoms: C_13  and  O_14 
REMARK    3  A    between atoms: C_18  and  C_19 
REMARK       I    between atoms: C_19  and  N_20 
REMARK    4  A    between atoms: N_20  and  C_21 
ROOT
HETATM    1  C   UNL     1       5.429  38.773  63.960  1.00  0.00     0.070 C 
HETATM    2  C   UNL     1       5.248  37.324  64.335  1.00  0.00     0.037 C 
HETATM    3  N   UNL     1       5.227  37.057  65.702  1.00  0.00    -0.192 N 
HETATM    4  C   UNL     1       4.817  35.878  66.211  1.00  0.00     0.725 A 
HETATM    5  N   UNL     1       4.562  34.832  65.366  1.00  0.00    -0.084 N 
HETATM    6  N   UNL     1       4.076  33.767  66.037  1.00  0.00    -0.149 NA
HETATM    7  C   UNL     1       4.114  34.230  67.292  1.00  0.00     0.275 A 
HETATM    8  N   UNL     1       4.563  35.517  67.442  1.00  0.00    -0.054 NA
HETATM    9  C   UNL     1       4.747  34.889  63.911  1.00  0.00     0.202 C 
HETATM   10  C   UNL     1       5.044  36.314  63.452  1.00  0.00     0.062 C 
HETATM   11  H   UNL     1       5.290  37.849  66.336  1.00  0.00     0.184 HD
ENDROOT
BRANCH  10  12
HETATM   12  C   UNL     1       4.964  36.499  61.979  1.00  0.00     0.256 C 
HETATM   13  N   UNL     1       3.760  36.097  61.440  1.00  0.00    -0.323 N 
HETATM   14  H   UNL     1       3.059  35.760  62.087  1.00  0.00     0.169 HD
HETATM   15  O   UNL     1       5.913  37.006  61.398  1.00  0.00    -0.267 OA
BRANCH  13  16
HETATM   16  C   UNL     1       3.400  36.082  60.077  1.00  0.00     0.035 A 
HETATM   17  C   UNL     1       2.783  37.150  59.420  1.00  0.00     0.031 A 
HETATM   18  C   UNL     1       2.477  37.064  58.057  1.00  0.00     0.026 A 
HETATM   19  C   UNL     1       2.790  35.911  57.344  1.00  0.00     0.034 A 
HETATM   20 CL   UNL     1       2.423  35.811  55.667  1.00  0.00    -0.084 Cl
HETATM   21  C   UNL     1       3.403  34.839  57.984  1.00  0.00     0.026 A 
HETATM   22  C   UNL     1       3.703  34.923  59.348  1.00  0.00     0.031 A 
ENDBRANCH  13  16
ENDBRANCH  10  12
BRANCH   9  23
HETATM   23  C   UNL     1       5.835  33.910  63.475  1.00  0.00    -0.028 A 
HETATM   24  C   UNL     1       5.638  33.114  62.338  1.00  0.00     0.012 A 
HETATM   25  C   UNL     1       6.619  32.207  61.928  1.00  0.00     0.037 A 
HETATM   26  C   UNL     1       7.813  32.075  62.639  1.00  0.00     0.068 A 
HETATM   27  C   UNL     1       8.029  32.879  63.757  1.00  0.00     0.037 A 
HETATM   28  C   UNL     1       7.052  33.792  64.170  1.00  0.00     0.012 A 
BRANCH  26  29
HETATM   29  O   UNL     1       8.677  31.141  62.141  1.00  0.00    -0.356 OA
HETATM   30  C   UNL     1       8.582  30.854  60.753  1.00  0.00     0.210 C 
ENDBRANCH  26  29
ENDBRANCH   9  23
TORSDOF 4
ENDMDL
MODEL 10
REMARK VINA RESULT:      -6.8      5.257      7.529
REMARK  4 active torsions:
REMARK  status: ('A' for Active; 'I' for Inactive)
REMARK    1  A    between atoms: C_9  and  C_10 
REMARK    2  A    between atoms: C_13  and  O_14 
REMARK    3  A    between atoms: C_18  and  C_19 
REMARK       I    between atoms: C_19  and  N_20 
REMARK    4  A    between atoms: N_20  and  C_21 
ROOT
HETATM    1  C   UNL     1       3.116  25.623  47.145  1.00  0.00     0.070 C 
HETATM    2  C   UNL     1       2.663  27.058  47.244  1.00  0.00     0.037 C 
HETATM    3  N   UNL     1       1.531  27.381  46.499  1.00  0.00    -0.192 N 
HETATM    4  C   UNL     1       0.844  28.527  46.673  1.00  0.00     0.725 A 
HETATM    5  N   UNL     1       1.352  29.499  47.492  1.00  0.00    -0.084 N 
HETATM    6  N   UNL     1       0.491  30.531  47.619  1.00  0.00    -0.149 NA
HETATM    7  C   UNL     1      -0.493  30.132  46.806  1.00  0.00     0.275 A 
HETATM    8  N   UNL     1      -0.316  28.912  46.205  1.00  0.00    -0.054 NA
HETATM    9  C   UNL     1       2.644  29.399  48.181  1.00  0.00     0.202 C 
HETATM   10  C   UNL     1       3.231  27.997  48.040  1.00  0.00     0.062 C 
HETATM   11  H   UNL     1       1.076  26.630  45.986  1.00  0.00     0.184 HD
ENDROOT
BRANCH  10  12
HETATM   12  C   UNL     1       4.388  27.739  48.938  1.00  0.00     0.256 C 
HETATM   13  N   UNL     1       4.026  27.223  50.165  1.00  0.00    -0.323 N 
HETATM   14  H   UNL     1       3.042  27.042  50.312  1.00  0.00     0.169 HD
HETATM   15  O   UNL     1       5.516  27.959  48.521  1.00  0.00    -0.267 OA
BRANCH  13  16
HETATM   16  C   UNL     1       4.877  26.935  51.252  1.00  0.00     0.035 A 
HETATM   17  C   UNL     1       5.461  27.910  52.066  1.00  0.00     0.031 A 
HETATM   18  C   UNL     1       6.278  27.541  53.141  1.00  0.00     0.026 A 
HETATM   19  C   UNL     1       6.510  26.196  53.408  1.00  0.00     0.034 A 
HETATM   20 CL   UNL     1       7.506  25.744  54.736  1.00  0.00    -0.084 Cl
HETATM   21  C   UNL     1       5.938  25.214  52.607  1.00  0.00     0.026 A 
HETATM   22  C   UNL     1       5.127  25.584  51.528  1.00  0.00     0.031 A 
ENDBRANCH  13  16
ENDBRANCH  10  12
BRANCH   9  23
HETATM   23  C   UNL     1       3.601  30.474  47.673  1.00  0.00    -0.028 A 
HETATM   24  C   UNL     1       4.144  31.402  48.572  1.00  0.00     0.012 A 
HETATM   25  C   UNL     1       5.016  32.398  48.125  1.00  0.00     0.037 A 
HETATM   26  C   UNL     1       5.366  32.489  46.777  1.00  0.00     0.068 A 
HETATM   27  C   UNL     1       4.851  31.557  45.878  1.00  0.00     0.037 A 
HETATM   28  C   UNL     1       3.980  30.555  46.321  1.00  0.00     0.012 A 
BRANCH  26  29
HETATM   29  O   UNL     1       6.212  33.518  46.472  1.00  0.00    -0.356 OA
HETATM   30  C   UNL     1       6.778  33.518  45.168  1.00  0.00     0.210 C 
ENDBRANCH  26  29
ENDBRANCH   9  23
TORSDOF 4
ENDMDL
