MODEL 1
REMARK VINA RESULT:      -8.1      0.000      0.000
REMARK  11 active torsions:
REMARK  status: ('A' for Active; 'I' for Inactive)
REMARK    1  A    between atoms: C_5  and  C_6 
REMARK    2  A    between atoms: C_6  and  N_7 
REMARK    3  A    between atoms: N_7  and  C_10 
REMARK    4  A    between atoms: C_10  and  C_11 
REMARK    5  A    between atoms: C_13  and  O_14 
REMARK    6  A    between atoms: C_16  and  O_17 
REMARK    7  A    between atoms: O_17  and  C_18 
REMARK    8  A    between atoms: C_18  and  C_19 
REMARK    9  A    between atoms: C_19  and  O_20 
REMARK   10  A    between atoms: C_19  and  C_21 
REMARK   11  A    between atoms: C_21  and  N_22 
ROOT
HETATM    1  C   UNL     1       7.824  32.146  62.761  1.00  0.00    -0.030 A 
HETATM    2  C   UNL     1       6.555  31.736  62.319  1.00  0.00     0.048 A 
HETATM    3  C   UNL     1       5.397  32.113  63.016  1.00  0.00     0.102 A 
HETATM    4  C   UNL     1       5.504  32.909  64.172  1.00  0.00     0.102 A 
HETATM    5  C   UNL     1       6.766  33.290  64.631  1.00  0.00     0.040 A 
HETATM    6  C   UNL     1       7.917  32.916  63.930  1.00  0.00     0.012 A 
ENDROOT
BRANCH   4   7
HETATM    7  O   UNL     1       4.322  33.246  64.784  1.00  0.00    -0.346 OA
BRANCH   7   8
HETATM    8  C   UNL     1       4.383  33.988  66.004  1.00  0.00     0.209 C 
BRANCH   8   9
HETATM    9  C   UNL     1       3.623  35.298  65.765  1.00  0.00     0.168 C 
BRANCH   9  10
HETATM   10  O   UNL     1       2.825  35.645  66.913  1.00  0.00    -0.392 OA
HETATM   11  H   UNL     1       2.175  36.313  66.598  1.00  0.00     0.210 HD
ENDBRANCH   9  10
BRANCH   9  12
HETATM   12  C   UNL     1       4.577  36.475  65.509  1.00  0.00     0.268 C 
BRANCH  12  13
HETATM   13  N   UNL     1       4.859  36.561  64.009  1.00  0.00    -0.067 N 
HETATM   14  H   UNL     1       5.502  35.762  63.845  1.00  0.00     0.280 HD
HETATM   15  C   UNL     1       3.606  36.330  63.180  1.00  0.00     0.245 C 
HETATM   16  C   UNL     1       3.925  36.171  61.694  1.00  0.00     0.101 C 
HETATM   17  S   UNL     1       4.713  37.654  61.003  1.00  0.00    -0.166 SA
HETATM   18  C   UNL     1       6.089  37.794  62.179  1.00  0.00     0.101 C 
HETATM   19  C   UNL     1       5.598  37.834  63.626  1.00  0.00     0.245 C 
ENDBRANCH  12  13
ENDBRANCH   9  12
ENDBRANCH   8   9
ENDBRANCH   7   8
ENDBRANCH   4   7
BRANCH   3  20
HETATM   20  O   UNL     1       4.120  31.770  62.648  1.00  0.00    -0.353 OA
HETATM   21  C   UNL     1       3.610  32.288  61.424  1.00  0.00     0.210 C 
ENDBRANCH   3  20
BRANCH   1  22
HETATM   22  C   UNL     1       9.068  31.755  62.008  1.00  0.00     0.271 C 
BRANCH  22  23
HETATM   23  N   UNL     1       8.851  30.550  61.183  1.00  0.00    -0.066 N 
HETATM   24  H   UNL     1       7.892  30.196  61.279  1.00  0.00     0.277 HD
HETATM   25  H   UNL     1       9.421  29.755  61.518  1.00  0.00     0.277 HD
BRANCH  23  26
HETATM   26  C   UNL     1       9.173  30.676  59.721  1.00  0.00     0.293 C 
BRANCH  26  27
HETATM   27  C   UNL     1       8.033  30.154  58.892  1.00  0.00     0.077 A 
HETATM   28  C   UNL     1       6.965  30.962  58.537  1.00  0.00     0.145 A 
HETATM   29  N   UNL     1       5.950  30.509  57.772  1.00  0.00    -0.262 NA
HETATM   30  C   UNL     1       6.023  29.221  57.358  1.00  0.00     0.048 A 
HETATM   31  C   UNL     1       4.908  28.688  56.513  1.00  0.00     0.072 C 
HETATM   32  C   UNL     1       7.098  28.414  57.712  1.00  0.00     0.143 A 
HETATM   33  N   UNL     1       8.132  28.856  58.478  1.00  0.00    -0.260 NA
ENDBRANCH  26  27
ENDBRANCH  23  26
ENDBRANCH  22  23
ENDBRANCH   1  22
TORSDOF 11
ENDMDL
MODEL 2
REMARK VINA RESULT:      -8.0      2.789      3.702
REMARK  11 active torsions:
REMARK  status: ('A' for Active; 'I' for Inactive)
REMARK    1  A    between atoms: C_5  and  C_6 
REMARK    2  A    between atoms: C_6  and  N_7 
REMARK    3  A    between atoms: N_7  and  C_10 
REMARK    4  A    between atoms: C_10  and  C_11 
REMARK    5  A    between atoms: C_13  and  O_14 
REMARK    6  A    between atoms: C_16  and  O_17 
REMARK    7  A    between atoms: O_17  and  C_18 
REMARK    8  A    between atoms: C_18  and  C_19 
REMARK    9  A    between atoms: C_19  and  O_20 
REMARK   10  A    between atoms: C_19  and  C_21 
REMARK   11  A    between atoms: C_21  and  N_22 
ROOT
HETATM    1  C   UNL     1       7.764  32.267  62.781  1.00  0.00    -0.030 A 
HETATM    2  C   UNL     1       6.437  31.988  62.413  1.00  0.00     0.048 A 
HETATM    3  C   UNL     1       5.367  32.399  63.222  1.00  0.00     0.102 A 
HETATM    4  C   UNL     1       5.621  33.098  64.418  1.00  0.00     0.102 A 
HETATM    5  C   UNL     1       6.941  33.347  64.802  1.00  0.00     0.040 A 
HETATM    6  C   UNL     1       8.003  32.939  63.989  1.00  0.00     0.012 A 
ENDROOT
BRANCH   4   7
HETATM    7  O   UNL     1       4.518  33.477  65.141  1.00  0.00    -0.346 OA
BRANCH   7   8
HETATM    8  C   UNL     1       4.226  34.872  65.239  1.00  0.00     0.209 C 
BRANCH   8   9
HETATM    9  C   UNL     1       4.035  35.181  66.729  1.00  0.00     0.168 C 
BRANCH   9  10
HETATM   10  O   UNL     1       2.666  35.533  67.009  1.00  0.00    -0.392 OA
HETATM   11  H   UNL     1       2.404  36.175  66.312  1.00  0.00     0.210 HD
ENDBRANCH   9  10
BRANCH   9  12
HETATM   12  C   UNL     1       4.377  33.972  67.613  1.00  0.00     0.268 C 
BRANCH  12  13
HETATM   13  N   UNL     1       5.273  34.440  68.760  1.00  0.00    -0.067 N 
HETATM   14  H   UNL     1       4.715  35.199  69.198  1.00  0.00     0.280 HD
HETATM   15  C   UNL     1       5.479  33.352  69.801  1.00  0.00     0.245 C 
HETATM   16  C   UNL     1       6.163  33.887  71.059  1.00  0.00     0.101 C 
HETATM   17  S   UNL     1       7.813  34.558  70.705  1.00  0.00    -0.166 SA
HETATM   18  C   UNL     1       7.346  35.732  69.401  1.00  0.00     0.101 C 
HETATM   19  C   UNL     1       6.577  35.049  68.271  1.00  0.00     0.245 C 
ENDBRANCH  12  13
ENDBRANCH   9  12
ENDBRANCH   8   9
ENDBRANCH   7   8
ENDBRANCH   4   7
BRANCH   3  20
HETATM   20  O   UNL     1       4.043  32.182  62.932  1.00  0.00    -0.353 OA
HETATM   21  C   UNL     1       3.653  32.126  61.565  1.00  0.00     0.210 C 
ENDBRANCH   3  20
BRANCH   1  22
HETATM   22  C   UNL     1       8.914  31.839  61.909  1.00  0.00     0.271 C 
BRANCH  22  23
HETATM   23  N   UNL     1       8.613  30.591  61.180  1.00  0.00    -0.066 N 
HETATM   24  H   UNL     1       7.611  30.369  61.214  1.00  0.00     0.277 HD
HETATM   25  H   UNL     1       9.043  29.771  61.641  1.00  0.00     0.277 HD
BRANCH  23  26
HETATM   26  C   UNL     1       9.073  30.525  59.752  1.00  0.00     0.293 C 
BRANCH  26  27
HETATM   27  C   UNL     1       7.954  30.050  58.868  1.00  0.00     0.077 A 
HETATM   28  C   UNL     1       6.895  30.878  58.531  1.00  0.00     0.145 A 
HETATM   29  N   UNL     1       5.900  30.468  57.718  1.00  0.00    -0.262 NA
HETATM   30  C   UNL     1       5.982  29.204  57.236  1.00  0.00     0.048 A 
HETATM   31  C   UNL     1       4.888  28.719  56.337  1.00  0.00     0.072 C 
HETATM   32  C   UNL     1       7.048  28.378  57.573  1.00  0.00     0.143 A 
HETATM   33  N   UNL     1       8.062  28.776  58.387  1.00  0.00    -0.260 NA
ENDBRANCH  26  27
ENDBRANCH  23  26
ENDBRANCH  22  23
ENDBRANCH   1  22
TORSDOF 11
ENDMDL
MODEL 3
REMARK VINA RESULT:      -7.7      4.246      9.362
REMARK  11 active torsions:
REMARK  status: ('A' for Active; 'I' for Inactive)
REMARK    1  A    between atoms: C_5  and  C_6 
REMARK    2  A    between atoms: C_6  and  N_7 
REMARK    3  A    between atoms: N_7  and  C_10 
REMARK    4  A    between atoms: C_10  and  C_11 
REMARK    5  A    between atoms: C_13  and  O_14 
REMARK    6  A    between atoms: C_16  and  O_17 
REMARK    7  A    between atoms: O_17  and  C_18 
REMARK    8  A    between atoms: C_18  and  C_19 
REMARK    9  A    between atoms: C_19  and  O_20 
REMARK   10  A    between atoms: C_19  and  C_21 
REMARK   11  A    between atoms: C_21  and  N_22 
ROOT
HETATM    1  C   UNL     1       6.013  33.687  65.103  1.00  0.00    -0.030 A 
HETATM    2  C   UNL     1       5.066  33.166  64.205  1.00  0.00     0.048 A 
HETATM    3  C   UNL     1       5.471  32.414  63.092  1.00  0.00     0.102 A 
HETATM    4  C   UNL     1       6.841  32.179  62.867  1.00  0.00     0.102 A 
HETATM    5  C   UNL     1       7.786  32.724  63.740  1.00  0.00     0.040 A 
HETATM    6  C   UNL     1       7.375  33.468  64.850  1.00  0.00     0.012 A 
ENDROOT
BRANCH   4   7
HETATM    7  O   UNL     1       7.150  31.421  61.765  1.00  0.00    -0.346 OA
BRANCH   7   8
HETATM    8  C   UNL     1       8.519  31.346  61.363  1.00  0.00     0.209 C 
BRANCH   8   9
HETATM    9  C   UNL     1       8.543  31.513  59.839  1.00  0.00     0.168 C 
BRANCH   9  10
HETATM   10  O   UNL     1       9.230  32.724  59.466  1.00  0.00    -0.392 OA
HETATM   11  H   UNL     1       9.732  33.006  60.263  1.00  0.00     0.210 HD
ENDBRANCH   9  10
BRANCH   9  12
HETATM   12  C   UNL     1       9.274  30.352  59.147  1.00  0.00     0.268 C 
BRANCH  12  13
HETATM   13  N   UNL     1       8.260  29.552  58.329  1.00  0.00    -0.067 N 
HETATM   14  H   UNL     1       8.011  28.769  58.964  1.00  0.00     0.280 HD
HETATM   15  C   UNL     1       6.996  30.349  58.052  1.00  0.00     0.245 C 
HETATM   16  C   UNL     1       5.891  29.480  57.454  1.00  0.00     0.101 C 
HETATM   17  S   UNL     1       6.380  28.755  55.862  1.00  0.00    -0.166 SA
HETATM   18  C   UNL     1       7.921  27.959  56.398  1.00  0.00     0.101 C 
HETATM   19  C   UNL     1       8.869  28.950  57.072  1.00  0.00     0.245 C 
ENDBRANCH  12  13
ENDBRANCH   9  12
ENDBRANCH   8   9
ENDBRANCH   7   8
ENDBRANCH   4   7
BRANCH   3  20
HETATM   20  O   UNL     1       4.616  31.857  62.175  1.00  0.00    -0.353 OA
HETATM   21  C   UNL     1       3.495  32.622  61.748  1.00  0.00     0.210 C 
ENDBRANCH   3  20
BRANCH   1  22
HETATM   22  C   UNL     1       5.581  34.482  66.306  1.00  0.00     0.271 C 
BRANCH  22  23
HETATM   23  N   UNL     1       6.649  34.560  67.322  1.00  0.00    -0.066 N 
HETATM   24  H   UNL     1       7.459  35.087  66.976  1.00  0.00     0.277 HD
HETATM   25  H   UNL     1       7.052  33.628  67.519  1.00  0.00     0.277 HD
BRANCH  23  26
HETATM   26  C   UNL     1       6.255  35.109  68.664  1.00  0.00     0.293 C 
BRANCH  26  27
HETATM   27  C   UNL     1       6.759  34.214  69.760  1.00  0.00     0.077 A 
HETATM   28  C   UNL     1       8.017  34.385  70.316  1.00  0.00     0.145 A 
HETATM   29  N   UNL     1       8.467  33.602  71.317  1.00  0.00    -0.262 NA
HETATM   30  C   UNL     1       7.629  32.636  71.765  1.00  0.00     0.048 A 
HETATM   31  C   UNL     1       8.104  31.746  72.871  1.00  0.00     0.072 C 
HETATM   32  C   UNL     1       6.367  32.469  71.208  1.00  0.00     0.143 A 
HETATM   33  N   UNL     1       5.894  33.252  70.201  1.00  0.00    -0.260 NA
ENDBRANCH  26  27
ENDBRANCH  23  26
ENDBRANCH  22  23
ENDBRANCH   1  22
TORSDOF 11
ENDMDL
MODEL 4
REMARK VINA RESULT:      -7.4      5.621     11.091
REMARK  11 active torsions:
REMARK  status: ('A' for Active; 'I' for Inactive)
REMARK    1  A    between atoms: C_5  and  C_6 
REMARK    2  A    between atoms: C_6  and  N_7 
REMARK    3  A    between atoms: N_7  and  C_10 
REMARK    4  A    between atoms: C_10  and  C_11 
REMARK    5  A    between atoms: C_13  and  O_14 
REMARK    6  A    between atoms: C_16  and  O_17 
REMARK    7  A    between atoms: O_17  and  C_18 
REMARK    8  A    between atoms: C_18  and  C_19 
REMARK    9  A    between atoms: C_19  and  O_20 
REMARK   10  A    between atoms: C_19  and  C_21 
REMARK   11  A    between atoms: C_21  and  N_22 
ROOT
HETATM    1  C   UNL     1       7.319  30.641  58.519  1.00  0.00    -0.030 A 
HETATM    2  C   UNL     1       6.254  29.892  57.991  1.00  0.00     0.048 A 
HETATM    3  C   UNL     1       6.493  28.696  57.298  1.00  0.00     0.102 A 
HETATM    4  C   UNL     1       7.814  28.238  57.126  1.00  0.00     0.102 A 
HETATM    5  C   UNL     1       8.875  28.998  57.621  1.00  0.00     0.040 A 
HETATM    6  C   UNL     1       8.630  30.187  58.315  1.00  0.00     0.012 A 
ENDROOT
BRANCH   4   7
HETATM    7  O   UNL     1       7.958  27.052  56.451  1.00  0.00    -0.346 OA
BRANCH   7   8
HETATM    8  C   UNL     1       8.391  25.907  57.189  1.00  0.00     0.209 C 
BRANCH   8   9
HETATM    9  C   UNL     1       7.391  24.784  56.890  1.00  0.00     0.168 C 
BRANCH   9  10
HETATM   10  O   UNL     1       6.096  25.088  57.445  1.00  0.00    -0.392 OA
HETATM   11  H   UNL     1       6.040  26.069  57.476  1.00  0.00     0.210 HD
ENDBRANCH   9  10
BRANCH   9  12
HETATM   12  C   UNL     1       7.195  24.577  55.381  1.00  0.00     0.268 C 
BRANCH  12  13
HETATM   13  N   UNL     1       7.311  23.085  55.070  1.00  0.00    -0.067 N 
HETATM   14  H   UNL     1       6.320  22.774  55.044  1.00  0.00     0.280 HD
HETATM   15  C   UNL     1       7.914  22.834  53.698  1.00  0.00     0.245 C 
HETATM   16  C   UNL     1       7.805  21.367  53.284  1.00  0.00     0.101 C 
HETATM   17  S   UNL     1       8.693  20.269  54.427  1.00  0.00    -0.166 SA
HETATM   18  C   UNL     1       7.900  20.800  55.971  1.00  0.00     0.101 C 
HETATM   19  C   UNL     1       8.010  22.311  56.176  1.00  0.00     0.245 C 
ENDBRANCH  12  13
ENDBRANCH   9  12
ENDBRANCH   8   9
ENDBRANCH   7   8
ENDBRANCH   4   7
BRANCH   3  20
HETATM   20  O   UNL     1       5.514  27.895  56.764  1.00  0.00    -0.353 OA
HETATM   21  C   UNL     1       4.412  28.520  56.117  1.00  0.00     0.210 C 
ENDBRANCH   3  20
BRANCH   1  22
HETATM   22  C   UNL     1       7.065  31.918  59.275  1.00  0.00     0.271 C 
BRANCH  22  23
HETATM   23  N   UNL     1       8.017  32.093  60.389  1.00  0.00    -0.066 N 
HETATM   24  H   UNL     1       8.038  33.066  60.716  1.00  0.00     0.277 HD
HETATM   25  H   UNL     1       8.992  31.936  60.082  1.00  0.00     0.277 HD
BRANCH  23  26
HETATM   26  C   UNL     1       7.829  31.191  61.575  1.00  0.00     0.293 C 
BRANCH  26  27
HETATM   27  C   UNL     1       7.090  31.914  62.666  1.00  0.00     0.077 A 
HETATM   28  C   UNL     1       5.724  31.762  62.841  1.00  0.00     0.145 A 
HETATM   29  N   UNL     1       5.056  32.387  63.832  1.00  0.00    -0.262 NA
HETATM   30  C   UNL     1       5.785  33.175  64.660  1.00  0.00     0.048 A 
HETATM   31  C   UNL     1       5.071  33.888  65.765  1.00  0.00     0.072 C 
HETATM   32  C   UNL     1       7.156  33.323  64.483  1.00  0.00     0.143 A 
HETATM   33  N   UNL     1       7.846  32.696  63.493  1.00  0.00    -0.260 NA
ENDBRANCH  26  27
ENDBRANCH  23  26
ENDBRANCH  22  23
ENDBRANCH   1  22
TORSDOF 11
ENDMDL
MODEL 5
REMARK VINA RESULT:      -7.3      9.723     12.478
REMARK  11 active torsions:
REMARK  status: ('A' for Active; 'I' for Inactive)
REMARK    1  A    between atoms: C_5  and  C_6 
REMARK    2  A    between atoms: C_6  and  N_7 
REMARK    3  A    between atoms: N_7  and  C_10 
REMARK    4  A    between atoms: C_10  and  C_11 
REMARK    5  A    between atoms: C_13  and  O_14 
REMARK    6  A    between atoms: C_16  and  O_17 
REMARK    7  A    between atoms: O_17  and  C_18 
REMARK    8  A    between atoms: C_18  and  C_19 
REMARK    9  A    between atoms: C_19  and  O_20 
REMARK   10  A    between atoms: C_19  and  C_21 
REMARK   11  A    between atoms: C_21  and  N_22 
ROOT
HETATM    1  C   UNL     1       6.629  26.738  56.288  1.00  0.00    -0.030 A 
HETATM    2  C   UNL     1       6.014  25.799  55.444  1.00  0.00     0.048 A 
HETATM    3  C   UNL     1       5.288  26.213  54.317  1.00  0.00     0.102 A 
HETATM    4  C   UNL     1       5.172  27.587  54.026  1.00  0.00     0.102 A 
HETATM    5  C   UNL     1       5.755  28.523  54.882  1.00  0.00     0.040 A 
HETATM    6  C   UNL     1       6.480  28.103  56.001  1.00  0.00     0.012 A 
ENDROOT
BRANCH   4   7
HETATM    7  O   UNL     1       4.460  27.905  52.896  1.00  0.00    -0.346 OA
BRANCH   7   8
HETATM    8  C   UNL     1       4.372  29.282  52.523  1.00  0.00     0.209 C 
BRANCH   8   9
HETATM    9  C   UNL     1       4.876  29.383  51.079  1.00  0.00     0.168 C 
BRANCH   9  10
HETATM   10  O   UNL     1       6.068  30.189  51.006  1.00  0.00    -0.392 OA
HETATM   11  H   UNL     1       6.229  30.516  51.919  1.00  0.00     0.210 HD
ENDBRANCH   9  10
BRANCH   9  12
HETATM   12  C   UNL     1       5.229  28.005  50.498  1.00  0.00     0.268 C 
BRANCH  12  13
HETATM   13  N   UNL     1       3.990  27.428  49.813  1.00  0.00    -0.067 N 
HETATM   14  H   UNL     1       3.487  26.962  50.593  1.00  0.00     0.280 HD
HETATM   15  C   UNL     1       3.086  28.518  49.261  1.00  0.00     0.245 C 
HETATM   16  C   UNL     1       1.739  27.963  48.799  1.00  0.00     0.101 C 
HETATM   17  S   UNL     1       1.925  26.746  47.464  1.00  0.00    -0.166 SA
HETATM   18  C   UNL     1       3.091  25.626  48.289  1.00  0.00     0.101 C 
HETATM   19  C   UNL     1       4.335  26.364  48.783  1.00  0.00     0.245 C 
ENDBRANCH  12  13
ENDBRANCH   9  12
ENDBRANCH   8   9
ENDBRANCH   7   8
ENDBRANCH   4   7
BRANCH   3  20
HETATM   20  O   UNL     1       4.670  25.366  53.432  1.00  0.00    -0.353 OA
HETATM   21  C   UNL     1       5.483  24.618  52.536  1.00  0.00     0.210 C 
ENDBRANCH   3  20
BRANCH   1  22
HETATM   22  C   UNL     1       7.419  26.296  57.490  1.00  0.00     0.271 C 
BRANCH  22  23
HETATM   23  N   UNL     1       7.384  24.829  57.659  1.00  0.00    -0.066 N 
HETATM   24  H   UNL     1       6.632  24.405  57.102  1.00  0.00     0.277 HD
HETATM   25  H   UNL     1       7.127  24.566  58.625  1.00  0.00     0.277 HD
BRANCH  23  26
HETATM   26  C   UNL     1       8.664  24.095  57.378  1.00  0.00     0.293 C 
BRANCH  26  27
HETATM   27  C   UNL     1       8.485  23.168  56.209  1.00  0.00     0.077 A 
HETATM   28  C   UNL     1       8.594  23.618  54.903  1.00  0.00     0.145 A 
HETATM   29  N   UNL     1       8.460  22.789  53.848  1.00  0.00    -0.262 NA
HETATM   30  C   UNL     1       8.217  21.484  54.121  1.00  0.00     0.048 A 
HETATM   31  C   UNL     1       8.056  20.540  52.970  1.00  0.00     0.072 C 
HETATM   32  C   UNL     1       8.112  21.035  55.433  1.00  0.00     0.143 A 
HETATM   33  N   UNL     1       8.249  21.856  56.508  1.00  0.00    -0.260 NA
ENDBRANCH  26  27
ENDBRANCH  23  26
ENDBRANCH  22  23
ENDBRANCH   1  22
TORSDOF 11
ENDMDL
MODEL 6
REMARK VINA RESULT:      -7.3      4.109      7.356
REMARK  11 active torsions:
REMARK  status: ('A' for Active; 'I' for Inactive)
REMARK    1  A    between atoms: C_5  and  C_6 
REMARK    2  A    between atoms: C_6  and  N_7 
REMARK    3  A    between atoms: N_7  and  C_10 
REMARK    4  A    between atoms: C_10  and  C_11 
REMARK    5  A    between atoms: C_13  and  O_14 
REMARK    6  A    between atoms: C_16  and  O_17 
REMARK    7  A    between atoms: O_17  and  C_18 
REMARK    8  A    between atoms: C_18  and  C_19 
REMARK    9  A    between atoms: C_19  and  O_20 
REMARK   10  A    between atoms: C_19  and  C_21 
REMARK   11  A    between atoms: C_21  and  N_22 
ROOT
HETATM    1  C   UNL     1       5.751  29.194  55.947  1.00  0.00    -0.030 A 
HETATM    2  C   UNL     1       6.545  28.087  56.292  1.00  0.00     0.048 A 
HETATM    3  C   UNL     1       7.420  28.145  57.386  1.00  0.00     0.102 A 
HETATM    4  C   UNL     1       7.509  29.325  58.150  1.00  0.00     0.102 A 
HETATM    5  C   UNL     1       6.745  30.437  57.789  1.00  0.00     0.040 A 
HETATM    6  C   UNL     1       5.871  30.371  56.699  1.00  0.00     0.012 A 
ENDROOT
BRANCH   4   7
HETATM    7  O   UNL     1       8.377  29.292  59.212  1.00  0.00    -0.346 OA
BRANCH   7   8
HETATM    8  C   UNL     1       8.947  30.526  59.654  1.00  0.00     0.209 C 
BRANCH   8   9
HETATM    9  C   UNL     1       8.533  30.705  61.120  1.00  0.00     0.168 C 
BRANCH   9  10
HETATM   10  O   UNL     1       9.093  29.663  61.942  1.00  0.00    -0.392 OA
HETATM   11  H   UNL     1       8.328  29.205  62.356  1.00  0.00     0.210 HD
ENDBRANCH   9  10
BRANCH   9  12
HETATM   12  C   UNL     1       9.024  32.042  61.694  1.00  0.00     0.268 C 
BRANCH  12  13
HETATM   13  N   UNL     1       7.842  32.761  62.344  1.00  0.00    -0.067 N 
HETATM   14  H   UNL     1       7.969  33.745  62.038  1.00  0.00     0.280 HD
HETATM   15  C   UNL     1       6.509  32.272  61.801  1.00  0.00     0.245 C 
HETATM   16  C   UNL     1       5.347  33.150  62.262  1.00  0.00     0.101 C 
HETATM   17  S   UNL     1       5.174  33.159  64.069  1.00  0.00    -0.166 SA
HETATM   18  C   UNL     1       6.866  33.662  64.493  1.00  0.00     0.101 C 
HETATM   19  C   UNL     1       7.908  32.738  63.863  1.00  0.00     0.245 C 
ENDBRANCH  12  13
ENDBRANCH   9  12
ENDBRANCH   8   9
ENDBRANCH   7   8
ENDBRANCH   4   7
BRANCH   3  20
HETATM   20  O   UNL     1       8.219  27.109  57.801  1.00  0.00    -0.353 OA
HETATM   21  C   UNL     1       8.093  25.855  57.141  1.00  0.00     0.210 C 
ENDBRANCH   3  20
BRANCH   1  22
HETATM   22  C   UNL     1       4.801  29.130  54.781  1.00  0.00     0.271 C 
BRANCH  22  23
HETATM   23  N   UNL     1       4.408  27.741  54.471  1.00  0.00    -0.066 N 
HETATM   24  H   UNL     1       3.415  27.578  54.676  1.00  0.00     0.277 HD
HETATM   25  H   UNL     1       4.882  27.066  55.094  1.00  0.00     0.277 HD
BRANCH  23  26
HETATM   26  C   UNL     1       4.697  27.261  53.078  1.00  0.00     0.293 C 
BRANCH  26  27
HETATM   27  C   UNL     1       5.636  26.089  53.116  1.00  0.00     0.077 A 
HETATM   28  C   UNL     1       5.642  25.199  54.179  1.00  0.00     0.145 A 
HETATM   29  N   UNL     1       6.465  24.130  54.210  1.00  0.00    -0.262 NA
HETATM   30  C   UNL     1       7.289  23.959  53.148  1.00  0.00     0.048 A 
HETATM   31  C   UNL     1       8.218  22.786  53.157  1.00  0.00     0.072 C 
HETATM   32  C   UNL     1       7.277  24.852  52.082  1.00  0.00     0.143 A 
HETATM   33  N   UNL     1       6.452  25.931  52.032  1.00  0.00    -0.260 NA
ENDBRANCH  26  27
ENDBRANCH  23  26
ENDBRANCH  22  23
ENDBRANCH   1  22
TORSDOF 11
ENDMDL
MODEL 7
REMARK VINA RESULT:      -7.3      4.053      6.620
REMARK  11 active torsions:
REMARK  status: ('A' for Active; 'I' for Inactive)
REMARK    1  A    between atoms: C_5  and  C_6 
REMARK    2  A    between atoms: C_6  and  N_7 
REMARK    3  A    between atoms: N_7  and  C_10 
REMARK    4  A    between atoms: C_10  and  C_11 
REMARK    5  A    between atoms: C_13  and  O_14 
REMARK    6  A    between atoms: C_16  and  O_17 
REMARK    7  A    between atoms: O_17  and  C_18 
REMARK    8  A    between atoms: C_18  and  C_19 
REMARK    9  A    between atoms: C_19  and  O_20 
REMARK   10  A    between atoms: C_19  and  C_21 
REMARK   11  A    between atoms: C_21  and  N_22 
ROOT
HETATM    1  C   UNL     1       7.193  28.817  57.095  1.00  0.00    -0.030 A 
HETATM    2  C   UNL     1       6.362  29.776  57.699  1.00  0.00     0.048 A 
HETATM    3  C   UNL     1       6.902  30.779  58.519  1.00  0.00     0.102 A 
HETATM    4  C   UNL     1       8.292  30.826  58.744  1.00  0.00     0.102 A 
HETATM    5  C   UNL     1       9.115  29.854  58.171  1.00  0.00     0.040 A 
HETATM    6  C   UNL     1       8.572  28.861  57.351  1.00  0.00     0.012 A 
ENDROOT
BRANCH   4   7
HETATM    7  O   UNL     1       8.738  31.848  59.544  1.00  0.00    -0.346 OA
BRANCH   7   8
HETATM    8  C   UNL     1       9.488  31.508  60.712  1.00  0.00     0.209 C 
BRANCH   8   9
HETATM    9  C   UNL     1       8.530  30.769  61.654  1.00  0.00     0.168 C 
BRANCH   9  10
HETATM   10  O   UNL     1       9.212  29.707  62.350  1.00  0.00    -0.392 OA
HETATM   11  H   UNL     1       9.576  30.111  63.169  1.00  0.00     0.210 HD
ENDBRANCH   9  10
BRANCH   9  12
HETATM   12  C   UNL     1       7.945  31.703  62.724  1.00  0.00     0.268 C 
BRANCH  12  13
HETATM   13  N   UNL     1       6.640  32.299  62.196  1.00  0.00    -0.067 N 
HETATM   14  H   UNL     1       6.656  32.043  61.189  1.00  0.00     0.280 HD
HETATM   15  C   UNL     1       5.420  31.644  62.823  1.00  0.00     0.245 C 
HETATM   16  C   UNL     1       4.126  32.059  62.125  1.00  0.00     0.101 C 
HETATM   17  S   UNL     1       3.838  33.849  62.228  1.00  0.00    -0.166 SA
HETATM   18  C   UNL     1       5.421  34.410  61.535  1.00  0.00     0.101 C 
HETATM   19  C   UNL     1       6.612  33.816  62.286  1.00  0.00     0.245 C 
ENDBRANCH  12  13
ENDBRANCH   9  12
ENDBRANCH   8   9
ENDBRANCH   7   8
ENDBRANCH   4   7
BRANCH   3  20
HETATM   20  O   UNL     1       6.168  31.762  59.134  1.00  0.00    -0.353 OA
HETATM   21  C   UNL     1       5.271  32.529  58.339  1.00  0.00     0.210 C 
ENDBRANCH   3  20
BRANCH   1  22
HETATM   22  C   UNL     1       6.619  27.748  56.204  1.00  0.00     0.271 C 
BRANCH  22  23
HETATM   23  N   UNL     1       7.614  26.704  55.891  1.00  0.00    -0.066 N 
HETATM   24  H   UNL     1       8.573  27.047  56.024  1.00  0.00     0.277 HD
HETATM   25  H   UNL     1       7.599  26.457  54.887  1.00  0.00     0.277 HD
BRANCH  23  26
HETATM   26  C   UNL     1       7.464  25.399  56.619  1.00  0.00     0.293 C 
BRANCH  26  27
HETATM   27  C   UNL     1       7.636  24.250  55.666  1.00  0.00     0.077 A 
HETATM   28  C   UNL     1       7.741  22.944  56.116  1.00  0.00     0.145 A 
HETATM   29  N   UNL     1       7.870  21.904  55.266  1.00  0.00    -0.262 NA
HETATM   30  C   UNL     1       7.890  22.193  53.942  1.00  0.00     0.048 A 
HETATM   31  C   UNL     1       8.039  21.060  52.975  1.00  0.00     0.072 C 
HETATM   32  C   UNL     1       7.781  23.504  53.494  1.00  0.00     0.143 A 
HETATM   33  N   UNL     1       7.645  24.563  54.336  1.00  0.00    -0.260 NA
ENDBRANCH  26  27
ENDBRANCH  23  26
ENDBRANCH  22  23
ENDBRANCH   1  22
TORSDOF 11
ENDMDL
MODEL 8
REMARK VINA RESULT:      -7.3      6.334     11.961
REMARK  11 active torsions:
REMARK  status: ('A' for Active; 'I' for Inactive)
REMARK    1  A    between atoms: C_5  and  C_6 
REMARK    2  A    between atoms: C_6  and  N_7 
REMARK    3  A    between atoms: N_7  and  C_10 
REMARK    4  A    between atoms: C_10  and  C_11 
REMARK    5  A    between atoms: C_13  and  O_14 
REMARK    6  A    between atoms: C_16  and  O_17 
REMARK    7  A    between atoms: O_17  and  C_18 
REMARK    8  A    between atoms: C_18  and  C_19 
REMARK    9  A    between atoms: C_19  and  O_20 
REMARK   10  A    between atoms: C_19  and  C_21 
REMARK   11  A    between atoms: C_21  and  N_22 
ROOT
HETATM    1  C   UNL     1       4.483  29.033  56.104  1.00  0.00    -0.030 A 
HETATM    2  C   UNL     1       5.174  28.109  56.906  1.00  0.00     0.048 A 
HETATM    3  C   UNL     1       5.679  26.921  56.358  1.00  0.00     0.102 A 
HETATM    4  C   UNL     1       5.493  26.647  54.989  1.00  0.00     0.102 A 
HETATM    5  C   UNL     1       4.779  27.549  54.197  1.00  0.00     0.040 A 
HETATM    6  C   UNL     1       4.281  28.734  54.749  1.00  0.00     0.012 A 
ENDROOT
BRANCH   4   7
HETATM    7  O   UNL     1       6.033  25.471  54.530  1.00  0.00    -0.346 OA
BRANCH   7   8
HETATM    8  C   UNL     1       5.455  24.874  53.367  1.00  0.00     0.209 C 
BRANCH   8   9
HETATM    9  C   UNL     1       6.613  24.538  52.420  1.00  0.00     0.168 C 
BRANCH   9  10
HETATM   10  O   UNL     1       6.784  25.572  51.431  1.00  0.00    -0.392 OA
HETATM   11  H   UNL     1       6.967  25.107  50.584  1.00  0.00     0.210 HD
ENDBRANCH   9  10
BRANCH   9  12
HETATM   12  C   UNL     1       7.948  24.410  53.170  1.00  0.00     0.268 C 
BRANCH  12  13
HETATM   13  N   UNL     1       7.889  23.176  54.070  1.00  0.00    -0.067 N 
HETATM   14  H   UNL     1       6.890  23.140  54.353  1.00  0.00     0.280 HD
HETATM   15  C   UNL     1       8.203  21.899  53.308  1.00  0.00     0.245 C 
HETATM   16  C   UNL     1       7.907  20.650  54.137  1.00  0.00     0.101 C 
HETATM   17  S   UNL     1       8.906  20.585  55.652  1.00  0.00    -0.166 SA
HETATM   18  C   UNL     1       8.460  22.208  56.332  1.00  0.00     0.101 C 
HETATM   19  C   UNL     1       8.721  23.334  55.333  1.00  0.00     0.245 C 
ENDBRANCH  12  13
ENDBRANCH   9  12
ENDBRANCH   8   9
ENDBRANCH   7   8
ENDBRANCH   4   7
BRANCH   3  20
HETATM   20  O   UNL     1       6.377  25.972  57.062  1.00  0.00    -0.353 OA
HETATM   21  C   UNL     1       7.642  26.332  57.605  1.00  0.00     0.210 C 
ENDBRANCH   3  20
BRANCH   1  22
HETATM   22  C   UNL     1       3.952  30.315  56.687  1.00  0.00     0.271 C 
BRANCH  22  23
HETATM   23  N   UNL     1       4.583  30.631  57.983  1.00  0.00    -0.066 N 
HETATM   24  H   UNL     1       4.920  29.782  58.453  1.00  0.00     0.277 HD
HETATM   25  H   UNL     1       3.895  31.005  58.658  1.00  0.00     0.277 HD
BRANCH  23  26
HETATM   26  C   UNL     1       5.696  31.639  57.956  1.00  0.00     0.293 C 
BRANCH  26  27
HETATM   27  C   UNL     1       6.725  31.306  58.999  1.00  0.00     0.077 A 
HETATM   28  C   UNL     1       7.698  30.344  58.776  1.00  0.00     0.145 A 
HETATM   29  N   UNL     1       8.641  30.056  59.696  1.00  0.00    -0.262 NA
HETATM   30  C   UNL     1       8.599  30.755  60.856  1.00  0.00     0.048 A 
HETATM   31  C   UNL     1       9.629  30.452  61.900  1.00  0.00     0.072 C 
HETATM   32  C   UNL     1       7.624  31.721  61.075  1.00  0.00     0.143 A 
HETATM   33  N   UNL     1       6.669  32.028  60.157  1.00  0.00    -0.260 NA
ENDBRANCH  26  27
ENDBRANCH  23  26
ENDBRANCH  22  23
ENDBRANCH   1  22
TORSDOF 11
ENDMDL
MODEL 9
REMARK VINA RESULT:      -7.2      5.350     10.730
REMARK  11 active torsions:
REMARK  status: ('A' for Active; 'I' for Inactive)
REMARK    1  A    between atoms: C_5  and  C_6 
REMARK    2  A    between atoms: C_6  and  N_7 
REMARK    3  A    between atoms: N_7  and  C_10 
REMARK    4  A    between atoms: C_10  and  C_11 
REMARK    5  A    between atoms: C_13  and  O_14 
REMARK    6  A    between atoms: C_16  and  O_17 
REMARK    7  A    between atoms: O_17  and  C_18 
REMARK    8  A    between atoms: C_18  and  C_19 
REMARK    9  A    between atoms: C_19  and  O_20 
REMARK   10  A    between atoms: C_19  and  C_21 
REMARK   11  A    between atoms: C_21  and  N_22 
ROOT
HETATM    1  C   UNL     1       7.724  31.463  59.055  1.00  0.00    -0.030 A 
HETATM    2  C   UNL     1       8.836  30.691  58.679  1.00  0.00     0.048 A 
HETATM    3  C   UNL     1       8.722  29.704  57.689  1.00  0.00     0.102 A 
HETATM    4  C   UNL     1       7.480  29.480  57.063  1.00  0.00     0.102 A 
HETATM    5  C   UNL     1       6.366  30.224  57.459  1.00  0.00     0.040 A 
HETATM    6  C   UNL     1       6.488  31.210  58.443  1.00  0.00     0.012 A 
ENDROOT
BRANCH   4   7
HETATM    7  O   UNL     1       7.459  28.508  56.094  1.00  0.00    -0.346 OA
BRANCH   7   8
HETATM    8  C   UNL     1       6.307  28.423  55.252  1.00  0.00     0.209 C 
BRANCH   8   9
HETATM    9  C   UNL     1       6.091  26.936  54.948  1.00  0.00     0.168 C 
BRANCH   9  10
HETATM   10  O   UNL     1       4.786  26.713  54.377  1.00  0.00    -0.392 OA
HETATM   11  H   UNL     1       4.338  26.070  54.971  1.00  0.00     0.210 HD
ENDBRANCH   9  10
BRANCH   9  12
HETATM   12  C   UNL     1       7.119  26.402  53.938  1.00  0.00     0.268 C 
BRANCH  12  13
HETATM   13  N   UNL     1       7.211  24.884  54.088  1.00  0.00    -0.067 N 
HETATM   14  H   UNL     1       6.218  24.582  54.031  1.00  0.00     0.280 HD
HETATM   15  C   UNL     1       7.960  24.242  52.931  1.00  0.00     0.245 C 
HETATM   16  C   UNL     1       7.842  22.719  52.948  1.00  0.00     0.101 C 
HETATM   17  S   UNL     1       8.546  21.997  54.459  1.00  0.00    -0.166 SA
HETATM   18  C   UNL     1       7.600  22.958  55.675  1.00  0.00     0.101 C 
HETATM   19  C   UNL     1       7.744  24.462  55.448  1.00  0.00     0.245 C 
ENDBRANCH  12  13
ENDBRANCH   9  12
ENDBRANCH   8   9
ENDBRANCH   7   8
ENDBRANCH   4   7
BRANCH   3  20
HETATM   20  O   UNL     1       9.756  28.916  57.250  1.00  0.00    -0.353 OA
HETATM   21  C   UNL     1      10.920  29.555  56.740  1.00  0.00     0.210 C 
ENDBRANCH   3  20
BRANCH   1  22
HETATM   22  C   UNL     1       7.847  32.532  60.108  1.00  0.00     0.271 C 
BRANCH  22  23
HETATM   23  N   UNL     1       8.703  32.099  61.230  1.00  0.00    -0.066 N 
HETATM   24  H   UNL     1       9.102  32.903  61.729  1.00  0.00     0.277 HD
HETATM   25  H   UNL     1       9.544  31.601  60.894  1.00  0.00     0.277 HD
BRANCH  23  26
HETATM   26  C   UNL     1       8.073  31.175  62.232  1.00  0.00     0.293 C 
BRANCH  26  27
HETATM   27  C   UNL     1       7.146  31.940  63.134  1.00  0.00     0.077 A 
HETATM   28  C   UNL     1       5.775  31.749  63.096  1.00  0.00     0.145 A 
HETATM   29  N   UNL     1       4.937  32.413  63.919  1.00  0.00    -0.262 NA
HETATM   30  C   UNL     1       5.500  33.280  64.796  1.00  0.00     0.048 A 
HETATM   31  C   UNL     1       4.595  34.037  65.718  1.00  0.00     0.072 C 
HETATM   32  C   UNL     1       6.877  33.467  64.834  1.00  0.00     0.143 A 
HETATM   33  N   UNL     1       7.736  32.802  64.016  1.00  0.00    -0.260 NA
ENDBRANCH  26  27
ENDBRANCH  23  26
ENDBRANCH  22  23
ENDBRANCH   1  22
TORSDOF 11
ENDMDL
MODEL 10
REMARK VINA RESULT:      -7.0      4.558      7.422
REMARK  11 active torsions:
REMARK  status: ('A' for Active; 'I' for Inactive)
REMARK    1  A    between atoms: C_5  and  C_6 
REMARK    2  A    between atoms: C_6  and  N_7 
REMARK    3  A    between atoms: N_7  and  C_10 
REMARK    4  A    between atoms: C_10  and  C_11 
REMARK    5  A    between atoms: C_13  and  O_14 
REMARK    6  A    between atoms: C_16  and  O_17 
REMARK    7  A    between atoms: O_17  and  C_18 
REMARK    8  A    between atoms: C_18  and  C_19 
REMARK    9  A    between atoms: C_19  and  O_20 
REMARK   10  A    between atoms: C_19  and  C_21 
REMARK   11  A    between atoms: C_21  and  N_22 
ROOT
HETATM    1  C   UNL     1       7.338  28.541  55.684  1.00  0.00    -0.030 A 
HETATM    2  C   UNL     1       8.606  29.063  55.994  1.00  0.00     0.048 A 
HETATM    3  C   UNL     1       8.788  29.889  57.113  1.00  0.00     0.102 A 
HETATM    4  C   UNL     1       7.690  30.203  57.937  1.00  0.00     0.102 A 
HETATM    5  C   UNL     1       6.423  29.712  57.613  1.00  0.00     0.040 A 
HETATM    6  C   UNL     1       6.249  28.885  56.499  1.00  0.00     0.012 A 
ENDROOT
BRANCH   4   7
HETATM    7  O   UNL     1       7.957  31.003  59.019  1.00  0.00    -0.346 OA
BRANCH   7   8
HETATM    8  C   UNL     1       8.490  30.389  60.195  1.00  0.00     0.209 C 
BRANCH   8   9
HETATM    9  C   UNL     1       8.848  31.523  61.164  1.00  0.00     0.168 C 
BRANCH   9  10
HETATM   10  O   UNL     1       8.273  32.771  60.728  1.00  0.00    -0.392 OA
HETATM   11  H   UNL     1       7.920  33.202  61.538  1.00  0.00     0.210 HD
ENDBRANCH   9  10
BRANCH   9  12
HETATM   12  C   UNL     1       8.317  31.254  62.580  1.00  0.00     0.268 C 
BRANCH  12  13
HETATM   13  N   UNL     1       7.271  32.315  62.922  1.00  0.00    -0.067 N 
HETATM   14  H   UNL     1       7.377  33.005  62.153  1.00  0.00     0.280 HD
HETATM   15  C   UNL     1       5.857  31.762  62.859  1.00  0.00     0.245 C 
HETATM   16  C   UNL     1       4.805  32.866  62.956  1.00  0.00     0.101 C 
HETATM   17  S   UNL     1       4.915  33.776  64.524  1.00  0.00    -0.166 SA
HETATM   18  C   UNL     1       6.667  34.246  64.434  1.00  0.00     0.101 C 
HETATM   19  C   UNL     1       7.571  33.031  64.229  1.00  0.00     0.245 C 
ENDBRANCH  12  13
ENDBRANCH   9  12
ENDBRANCH   8   9
ENDBRANCH   7   8
ENDBRANCH   4   7
BRANCH   3  20
HETATM   20  O   UNL     1       9.990  30.428  57.496  1.00  0.00    -0.353 OA
HETATM   21  C   UNL     1      11.183  29.760  57.104  1.00  0.00     0.210 C 
ENDBRANCH   3  20
BRANCH   1  22
HETATM   22  C   UNL     1       7.143  27.643  54.492  1.00  0.00     0.271 C 
BRANCH  22  23
HETATM   23  N   UNL     1       6.714  26.288  54.892  1.00  0.00    -0.066 N 
HETATM   24  H   UNL     1       6.347  25.759  54.092  1.00  0.00     0.277 HD
HETATM   25  H   UNL     1       5.903  26.322  55.532  1.00  0.00     0.277 HD
BRANCH  23  26
HETATM   26  C   UNL     1       7.737  25.445  55.598  1.00  0.00     0.293 C 
BRANCH  26  27
HETATM   27  C   UNL     1       7.910  24.134  54.885  1.00  0.00     0.077 A 
HETATM   28  C   UNL     1       7.197  23.833  53.736  1.00  0.00     0.145 A 
HETATM   29  N   UNL     1       7.365  22.668  53.076  1.00  0.00    -0.262 NA
HETATM   30  C   UNL     1       8.271  21.799  53.586  1.00  0.00     0.048 A 
HETATM   31  C   UNL     1       8.474  20.495  52.879  1.00  0.00     0.072 C 
HETATM   32  C   UNL     1       8.988  22.106  54.737  1.00  0.00     0.143 A 
HETATM   33  N   UNL     1       8.835  23.277  55.412  1.00  0.00    -0.260 NA
ENDBRANCH  26  27
ENDBRANCH  23  26
ENDBRANCH  22  23
ENDBRANCH   1  22
TORSDOF 11
ENDMDL
