MODEL 1
REMARK VINA RESULT:      -9.5      0.000      0.000
REMARK  4 active torsions:
REMARK  status: ('A' for Active; 'I' for Inactive)
REMARK    1  A    between atoms: C_2  and  N_3 
REMARK    2  A    between atoms: N_7  and  C_9 
REMARK    3  A    between atoms: C_9  and  C_10 
REMARK    4  A    between atoms: C_13  and  C_14 
ROOT
HETATM    1  N   UNL     1       5.806  27.439  54.334  1.00  0.00    -0.398 N 
HETATM    2  C   UNL     1       6.662  27.026  55.520  1.00  0.00     0.075 C 
HETATM    3  C   UNL     1       6.082  27.263  56.941  1.00  0.00     0.065 C 
HETATM    4  C   UNL     1       5.957  28.702  57.409  1.00  0.00     0.238 C 
HETATM    5  N   UNL     1       7.163  29.550  57.081  1.00  0.00    -0.065 N 
HETATM    6  H   UNL     1       6.788  30.508  57.036  1.00  0.00     0.280 HD
HETATM    7  C   UNL     1       7.740  29.327  55.706  1.00  0.00     0.238 C 
HETATM    8  C   UNL     1       7.970  27.847  55.427  1.00  0.00     0.065 C 
HETATM    9  C   UNL     1       6.994  25.536  55.452  1.00  0.00     0.061 A 
HETATM   10  C   UNL     1       6.395  24.639  54.595  1.00  0.00     0.037 A 
HETATM   11  N   UNL     1       6.962  23.410  54.836  1.00  0.00    -0.354 N 
HETATM   12  H   UNL     1       6.731  22.543  54.350  1.00  0.00     0.166 HD
HETATM   13  C   UNL     1       7.902  23.508  55.780  1.00  0.00     0.181 A 
HETATM   14  N   UNL     1       7.930  24.795  56.164  1.00  0.00    -0.352 N 
HETATM   15  H   UNL     1       8.578  25.138  56.868  1.00  0.00     0.166 HD
HETATM   16  C   UNL     1       5.421  25.025  53.570  1.00  0.00     0.078 C 
HETATM   17  C   UNL     1       5.787  26.475  53.187  1.00  0.00     0.124 C 
ENDROOT
BRANCH   5  18
HETATM   18  C   UNL     1       8.198  29.675  58.208  1.00  0.00     0.301 C 
BRANCH  18  19
HETATM   19  C   UNL     1       8.007  30.933  58.964  1.00  0.00     0.107 C 
HETATM   20  O   UNL     1       9.021  31.827  58.880  1.00  0.00    -0.216 OA
HETATM   21  N   UNL     1       8.909  32.738  59.902  1.00  0.00    -0.128 NA
HETATM   22  C   UNL     1       7.796  32.424  60.584  1.00  0.00     0.097 C 
HETATM   23  C   UNL     1       7.131  31.335  59.946  1.00  0.00     0.071 C 
BRANCH  22  24
HETATM   24  C   UNL     1       7.473  33.029  61.877  1.00  0.00    -0.005 A 
HETATM   25  C   UNL     1       8.104  32.570  63.045  1.00  0.00     0.014 A 
HETATM   26  C   UNL     1       7.717  33.044  64.300  1.00  0.00     0.001 A 
HETATM   27  C   UNL     1       6.699  33.987  64.403  1.00  0.00     0.000 A 
HETATM   28  C   UNL     1       6.078  34.469  63.252  1.00  0.00     0.001 A 
HETATM   29  C   UNL     1       6.462  33.994  61.995  1.00  0.00     0.014 A 
ENDBRANCH  22  24
ENDBRANCH  18  19
ENDBRANCH   5  18
BRANCH   1  30
HETATM   30  C   UNL     1       4.483  28.027  54.589  1.00  0.00     0.113 C 
HETATM   31  C   UNL     1       4.287  29.479  54.141  1.00  0.00     0.026 C 
ENDBRANCH   1  30
TORSDOF 4
ENDMDL
MODEL 2
REMARK VINA RESULT:      -9.2      1.467      2.994
REMARK  4 active torsions:
REMARK  status: ('A' for Active; 'I' for Inactive)
REMARK    1  A    between atoms: C_2  and  N_3 
REMARK    2  A    between atoms: N_7  and  C_9 
REMARK    3  A    between atoms: C_9  and  C_10 
REMARK    4  A    between atoms: C_13  and  C_14 
ROOT
HETATM    1  N   UNL     1       6.674  25.471  54.951  1.00  0.00    -0.398 N 
HETATM    2  C   UNL     1       6.495  26.912  54.502  1.00  0.00     0.075 C 
HETATM    3  C   UNL     1       7.696  27.878  54.693  1.00  0.00     0.065 C 
HETATM    4  C   UNL     1       8.056  28.266  56.116  1.00  0.00     0.238 C 
HETATM    5  N   UNL     1       6.856  28.588  56.975  1.00  0.00    -0.065 N 
HETATM    6  H   UNL     1       7.178  28.393  57.934  1.00  0.00     0.280 HD
HETATM    7  C   UNL     1       5.681  27.661  56.796  1.00  0.00     0.238 C 
HETATM    8  C   UNL     1       5.320  27.489  55.326  1.00  0.00     0.065 C 
HETATM    9  C   UNL     1       6.149  26.973  53.015  1.00  0.00     0.061 A 
HETATM   10  C   UNL     1       6.242  25.909  52.145  1.00  0.00     0.037 A 
HETATM   11  N   UNL     1       5.843  26.361  50.910  1.00  0.00    -0.354 N 
HETATM   12  H   UNL     1       5.796  25.800  50.058  1.00  0.00     0.166 HD
HETATM   13  C   UNL     1       5.482  27.646  50.978  1.00  0.00     0.181 A 
HETATM   14  N   UNL     1       5.664  28.029  52.252  1.00  0.00    -0.352 N 
HETATM   15  H   UNL     1       5.445  28.968  52.573  1.00  0.00     0.166 HD
HETATM   16  C   UNL     1       6.601  24.551  52.562  1.00  0.00     0.078 C 
HETATM   17  C   UNL     1       6.118  24.434  54.024  1.00  0.00     0.124 C 
ENDROOT
BRANCH   5  18
HETATM   18  C   UNL     1       6.501  30.079  57.065  1.00  0.00     0.301 C 
BRANCH  18  19
HETATM   19  C   UNL     1       7.172  30.713  58.221  1.00  0.00     0.107 C 
HETATM   20  O   UNL     1       8.035  29.922  58.904  1.00  0.00    -0.216 OA
HETATM   21  N   UNL     1       8.276  30.473  60.138  1.00  0.00    -0.128 NA
HETATM   22  C   UNL     1       7.593  31.628  60.191  1.00  0.00     0.097 C 
HETATM   23  C   UNL     1       6.959  31.869  58.937  1.00  0.00     0.071 C 
BRANCH  22  24
HETATM   24  C   UNL     1       7.422  32.381  61.435  1.00  0.00    -0.005 A 
HETATM   25  C   UNL     1       8.222  32.086  62.551  1.00  0.00     0.014 A 
HETATM   26  C   UNL     1       7.987  32.702  63.781  1.00  0.00     0.001 A 
HETATM   27  C   UNL     1       6.953  33.626  63.910  1.00  0.00     0.000 A 
HETATM   28  C   UNL     1       6.165  33.946  62.806  1.00  0.00     0.001 A 
HETATM   29  C   UNL     1       6.397  33.328  61.574  1.00  0.00     0.014 A 
ENDBRANCH  22  24
ENDBRANCH  18  19
ENDBRANCH   5  18
BRANCH   1  30
HETATM   30  C   UNL     1       7.964  25.068  55.530  1.00  0.00     0.113 C 
HETATM   31  C   UNL     1       7.940  24.618  56.995  1.00  0.00     0.026 C 
ENDBRANCH   1  30
TORSDOF 4
ENDMDL
MODEL 3
REMARK VINA RESULT:      -9.1      6.715      9.578
REMARK  4 active torsions:
REMARK  status: ('A' for Active; 'I' for Inactive)
REMARK    1  A    between atoms: C_2  and  N_3 
REMARK    2  A    between atoms: N_7  and  C_9 
REMARK    3  A    between atoms: C_9  and  C_10 
REMARK    4  A    between atoms: C_13  and  C_14 
ROOT
HETATM    1  N   UNL     1       4.570  29.710  48.880  1.00  0.00    -0.398 N 
HETATM    2  C   UNL     1       3.576  28.810  49.596  1.00  0.00     0.075 C 
HETATM    3  C   UNL     1       2.813  29.407  50.810  1.00  0.00     0.065 C 
HETATM    4  C   UNL     1       3.618  29.682  52.069  1.00  0.00     0.238 C 
HETATM    5  N   UNL     1       4.580  28.574  52.423  1.00  0.00    -0.065 N 
HETATM    6  H   UNL     1       5.316  29.049  52.966  1.00  0.00     0.280 HD
HETATM    7  C   UNL     1       5.325  27.982  51.253  1.00  0.00     0.238 C 
HETATM    8  C   UNL     1       4.379  27.597  50.123  1.00  0.00     0.065 C 
HETATM    9  C   UNL     1       2.498  28.322  48.630  1.00  0.00     0.061 A 
HETATM   10  C   UNL     1       2.295  28.826  47.364  1.00  0.00     0.037 A 
HETATM   11  N   UNL     1       1.244  28.131  46.815  1.00  0.00    -0.354 N 
HETATM   12  H   UNL     1       0.862  28.271  45.880  1.00  0.00     0.166 HD
HETATM   13  C   UNL     1       0.803  27.203  47.670  1.00  0.00     0.181 A 
HETATM   14  N   UNL     1       1.556  27.311  48.777  1.00  0.00    -0.352 N 
HETATM   15  H   UNL     1       1.432  26.700  49.580  1.00  0.00     0.166 HD
HETATM   16  C   UNL     1       3.157  29.839  46.747  1.00  0.00     0.078 C 
HETATM   17  C   UNL     1       4.548  29.630  47.384  1.00  0.00     0.124 C 
ENDROOT
BRANCH   5  18
HETATM   18  C   UNL     1       4.054  27.553  53.443  1.00  0.00     0.301 C 
BRANCH  18  19
HETATM   19  C   UNL     1       5.161  26.748  54.004  1.00  0.00     0.107 C 
HETATM   20  O   UNL     1       6.325  27.412  54.204  1.00  0.00    -0.216 OA
HETATM   21  N   UNL     1       7.347  26.504  54.341  1.00  0.00    -0.128 NA
HETATM   22  C   UNL     1       6.797  25.282  54.268  1.00  0.00     0.097 C 
HETATM   23  C   UNL     1       5.379  25.398  54.160  1.00  0.00     0.071 C 
BRANCH  22  24
HETATM   24  C   UNL     1       7.602  24.066  54.141  1.00  0.00    -0.005 A 
HETATM   25  C   UNL     1       7.424  23.218  53.036  1.00  0.00     0.014 A 
HETATM   26  C   UNL     1       8.089  21.992  52.962  1.00  0.00     0.001 A 
HETATM   27  C   UNL     1       8.944  21.602  53.989  1.00  0.00     0.000 A 
HETATM   28  C   UNL     1       9.147  22.442  55.082  1.00  0.00     0.001 A 
HETATM   29  C   UNL     1       8.481  23.668  55.159  1.00  0.00     0.014 A 
ENDBRANCH  22  24
ENDBRANCH  18  19
ENDBRANCH   5  18
BRANCH   1  30
HETATM   30  C   UNL     1       4.751  31.086  49.363  1.00  0.00     0.113 C 
HETATM   31  C   UNL     1       6.175  31.484  49.765  1.00  0.00     0.026 C 
ENDBRANCH   1  30
TORSDOF 4
ENDMDL
MODEL 4
REMARK VINA RESULT:      -9.0      7.028     10.063
REMARK  4 active torsions:
REMARK  status: ('A' for Active; 'I' for Inactive)
REMARK    1  A    between atoms: C_2  and  N_3 
REMARK    2  A    between atoms: N_7  and  C_9 
REMARK    3  A    between atoms: C_9  and  C_10 
REMARK    4  A    between atoms: C_13  and  C_14 
ROOT
HETATM    1  N   UNL     1       2.892  28.800  49.443  1.00  0.00    -0.398 N 
HETATM    2  C   UNL     1       4.249  29.096  50.061  1.00  0.00     0.075 C 
HETATM    3  C   UNL     1       5.347  28.005  49.938  1.00  0.00     0.065 C 
HETATM    4  C   UNL     1       5.153  26.730  50.741  1.00  0.00     0.238 C 
HETATM    5  N   UNL     1       4.674  26.974  52.152  1.00  0.00    -0.065 N 
HETATM    6  H   UNL     1       4.183  26.103  52.401  1.00  0.00     0.280 HD
HETATM    7  C   UNL     1       3.609  28.034  52.287  1.00  0.00     0.238 C 
HETATM    8  C   UNL     1       4.006  29.320  51.573  1.00  0.00     0.065 C 
HETATM    9  C   UNL     1       4.853  30.360  49.452  1.00  0.00     0.061 A 
HETATM   10  C   UNL     1       4.373  30.995  48.327  1.00  0.00     0.037 A 
HETATM   11  N   UNL     1       5.178  32.086  48.104  1.00  0.00    -0.354 N 
HETATM   12  H   UNL     1       5.069  32.760  47.345  1.00  0.00     0.166 HD
HETATM   13  C   UNL     1       6.117  32.173  49.051  1.00  0.00     0.181 A 
HETATM   14  N   UNL     1       5.931  31.130  49.875  1.00  0.00    -0.352 N 
HETATM   15  H   UNL     1       6.511  30.975  50.695  1.00  0.00     0.166 HD
HETATM   16  C   UNL     1       3.155  30.583  47.623  1.00  0.00     0.078 C 
HETATM   17  C   UNL     1       2.260  29.939  48.703  1.00  0.00     0.124 C 
ENDROOT
BRANCH   5  18
HETATM   18  C   UNL     1       5.778  27.022  53.217  1.00  0.00     0.301 C 
BRANCH  18  19
HETATM   19  C   UNL     1       5.982  25.689  53.827  1.00  0.00     0.107 C 
HETATM   20  O   UNL     1       6.220  25.686  55.161  1.00  0.00    -0.216 OA
HETATM   21  N   UNL     1       6.769  24.479  55.521  1.00  0.00    -0.128 NA
HETATM   22  C   UNL     1       6.824  23.728  54.409  1.00  0.00     0.097 C 
HETATM   23  C   UNL     1       6.227  24.433  53.322  1.00  0.00     0.071 C 
BRANCH  22  24
HETATM   24  C   UNL     1       7.560  22.464  54.353  1.00  0.00    -0.005 A 
HETATM   25  C   UNL     1       7.920  21.915  53.112  1.00  0.00     0.014 A 
HETATM   26  C   UNL     1       8.507  20.651  53.033  1.00  0.00     0.001 A 
HETATM   27  C   UNL     1       8.748  19.922  54.194  1.00  0.00     0.000 A 
HETATM   28  C   UNL     1       8.417  20.463  55.435  1.00  0.00     0.001 A 
HETATM   29  C   UNL     1       7.827  21.727  55.516  1.00  0.00     0.014 A 
ENDBRANCH  22  24
ENDBRANCH  18  19
ENDBRANCH   5  18
BRANCH   1  30
HETATM   30  C   UNL     1       2.693  27.513  48.761  1.00  0.00     0.113 C 
HETATM   31  C   UNL     1       1.355  27.325  48.040  1.00  0.00     0.026 C 
ENDBRANCH   1  30
TORSDOF 4
ENDMDL
MODEL 5
REMARK VINA RESULT:      -8.6      5.637     10.394
REMARK  4 active torsions:
REMARK  status: ('A' for Active; 'I' for Inactive)
REMARK    1  A    between atoms: C_2  and  N_3 
REMARK    2  A    between atoms: N_7  and  C_9 
REMARK    3  A    between atoms: C_9  and  C_10 
REMARK    4  A    between atoms: C_13  and  C_14 
ROOT
HETATM    1  N   UNL     1       6.572  25.447  55.471  1.00  0.00    -0.398 N 
HETATM    2  C   UNL     1       6.972  24.923  54.100  1.00  0.00     0.075 C 
HETATM    3  C   UNL     1       7.656  25.917  53.123  1.00  0.00     0.065 C 
HETATM    4  C   UNL     1       6.797  27.031  52.552  1.00  0.00     0.238 C 
HETATM    5  N   UNL     1       5.427  26.572  52.113  1.00  0.00    -0.065 N 
HETATM    6  H   UNL     1       4.848  27.421  52.182  1.00  0.00     0.280 HD
HETATM    7  C   UNL     1       4.752  25.603  53.051  1.00  0.00     0.238 C 
HETATM    8  C   UNL     1       5.670  24.443  53.415  1.00  0.00     0.065 C 
HETATM    9  C   UNL     1       7.937  23.745  54.235  1.00  0.00     0.061 A 
HETATM   10  C   UNL     1       8.563  23.376  55.405  1.00  0.00     0.037 A 
HETATM   11  N   UNL     1       9.340  22.279  55.119  1.00  0.00    -0.354 N 
HETATM   12  H   UNL     1       9.921  21.771  55.787  1.00  0.00     0.166 HD
HETATM   13  C   UNL     1       9.205  21.935  53.835  1.00  0.00     0.181 A 
HETATM   14  N   UNL     1       8.355  22.819  53.287  1.00  0.00    -0.352 N 
HETATM   15  H   UNL     1       8.071  22.766  52.313  1.00  0.00     0.166 HD
HETATM   16  C   UNL     1       8.307  24.018  56.698  1.00  0.00     0.078 C 
HETATM   17  C   UNL     1       6.852  24.526  56.618  1.00  0.00     0.124 C 
ENDROOT
BRANCH   5  18
HETATM   18  C   UNL     1       5.300  26.230  50.622  1.00  0.00     0.301 C 
BRANCH  18  19
HETATM   19  C   UNL     1       4.458  27.224  49.922  1.00  0.00     0.107 C 
HETATM   20  O   UNL     1       3.848  28.138  50.715  1.00  0.00    -0.216 OA
HETATM   21  N   UNL     1       2.821  28.728  50.020  1.00  0.00    -0.128 NA
HETATM   22  C   UNL     1       2.833  28.205  48.784  1.00  0.00     0.097 C 
HETATM   23  C   UNL     1       3.940  27.314  48.651  1.00  0.00     0.071 C 
BRANCH  22  24
HETATM   24  C   UNL     1       1.744  28.420  47.831  1.00  0.00    -0.005 A 
HETATM   25  C   UNL     1       0.948  27.339  47.417  1.00  0.00     0.014 A 
HETATM   26  C   UNL     1      -0.010  27.500  46.414  1.00  0.00     0.001 A 
HETATM   27  C   UNL     1      -0.188  28.744  45.816  1.00  0.00     0.000 A 
HETATM   28  C   UNL     1       0.579  29.831  46.230  1.00  0.00     0.001 A 
HETATM   29  C   UNL     1       1.540  29.672  47.232  1.00  0.00     0.014 A 
ENDBRANCH  22  24
ENDBRANCH  18  19
ENDBRANCH   5  18
BRANCH   1  30
HETATM   30  C   UNL     1       6.858  26.851  55.799  1.00  0.00     0.113 C 
HETATM   31  C   UNL     1       5.645  27.746  56.068  1.00  0.00     0.026 C 
ENDBRANCH   1  30
TORSDOF 4
ENDMDL
MODEL 6
REMARK VINA RESULT:      -8.4      3.138      9.429
REMARK  4 active torsions:
REMARK  status: ('A' for Active; 'I' for Inactive)
REMARK    1  A    between atoms: C_2  and  N_3 
REMARK    2  A    between atoms: N_7  and  C_9 
REMARK    3  A    between atoms: C_9  and  C_10 
REMARK    4  A    between atoms: C_13  and  C_14 
ROOT
HETATM    1  N   UNL     1       3.978  32.027  56.110  1.00  0.00    -0.398 N 
HETATM    2  C   UNL     1       4.733  31.191  57.131  1.00  0.00     0.075 C 
HETATM    3  C   UNL     1       6.152  30.693  56.744  1.00  0.00     0.065 C 
HETATM    4  C   UNL     1       6.244  29.630  55.663  1.00  0.00     0.238 C 
HETATM    5  N   UNL     1       5.218  28.531  55.810  1.00  0.00    -0.065 N 
HETATM    6  H   UNL     1       5.099  28.174  54.851  1.00  0.00     0.280 HD
HETATM    7  C   UNL     1       3.836  29.000  56.191  1.00  0.00     0.238 C 
HETATM    8  C   UNL     1       3.872  29.933  57.395  1.00  0.00     0.065 C 
HETATM    9  C   UNL     1       4.909  31.966  58.437  1.00  0.00     0.061 A 
HETATM   10  C   UNL     1       4.661  33.313  58.588  1.00  0.00     0.037 A 
HETATM   11  N   UNL     1       4.933  33.630  59.897  1.00  0.00    -0.354 N 
HETATM   12  H   UNL     1       4.836  34.554  60.317  1.00  0.00     0.166 HD
HETATM   13  C   UNL     1       5.313  32.540  60.571  1.00  0.00     0.181 A 
HETATM   14  N   UNL     1       5.304  31.523  59.694  1.00  0.00    -0.352 N 
HETATM   15  H   UNL     1       5.540  30.571  59.963  1.00  0.00     0.166 HD
HETATM   16  C   UNL     1       4.103  34.157  57.527  1.00  0.00     0.078 C 
HETATM   17  C   UNL     1       3.243  33.209  56.664  1.00  0.00     0.124 C 
ENDROOT
BRANCH   5  18
HETATM   18  C   UNL     1       5.706  27.278  56.550  1.00  0.00     0.301 C 
BRANCH  18  19
HETATM   19  C   UNL     1       6.223  26.270  55.597  1.00  0.00     0.107 C 
HETATM   20  O   UNL     1       5.428  26.010  54.531  1.00  0.00    -0.216 OA
HETATM   21  N   UNL     1       5.809  24.820  53.961  1.00  0.00    -0.128 NA
HETATM   22  C   UNL     1       6.870  24.376  54.655  1.00  0.00     0.097 C 
HETATM   23  C   UNL     1       7.232  25.336  55.646  1.00  0.00     0.071 C 
BRANCH  22  24
HETATM   24  C   UNL     1       7.407  23.025  54.485  1.00  0.00    -0.005 A 
HETATM   25  C   UNL     1       7.675  22.532  53.198  1.00  0.00     0.014 A 
HETATM   26  C   UNL     1       8.064  21.204  53.008  1.00  0.00     0.001 A 
HETATM   27  C   UNL     1       8.197  20.355  54.103  1.00  0.00     0.000 A 
HETATM   28  C   UNL     1       7.957  20.836  55.389  1.00  0.00     0.001 A 
HETATM   29  C   UNL     1       7.564  22.164  55.581  1.00  0.00     0.014 A 
ENDBRANCH  22  24
ENDBRANCH  18  19
ENDBRANCH   5  18
BRANCH   1  30
HETATM   30  C   UNL     1       4.627  32.325  54.825  1.00  0.00     0.113 C 
HETATM   31  C   UNL     1       3.924  31.795  53.571  1.00  0.00     0.026 C 
ENDBRANCH   1  30
TORSDOF 4
ENDMDL
MODEL 7
REMARK VINA RESULT:      -8.2      3.499      9.439
REMARK  4 active torsions:
REMARK  status: ('A' for Active; 'I' for Inactive)
REMARK    1  A    between atoms: C_2  and  N_3 
REMARK    2  A    between atoms: N_7  and  C_9 
REMARK    3  A    between atoms: C_9  and  C_10 
REMARK    4  A    between atoms: C_13  and  C_14 
ROOT
HETATM    1  N   UNL     1       4.851  31.304  57.872  1.00  0.00    -0.398 N 
HETATM    2  C   UNL     1       4.802  31.152  56.360  1.00  0.00     0.075 C 
HETATM    3  C   UNL     1       3.550  30.468  55.748  1.00  0.00     0.065 C 
HETATM    4  C   UNL     1       3.377  28.980  55.999  1.00  0.00     0.238 C 
HETATM    5  N   UNL     1       4.655  28.191  55.844  1.00  0.00    -0.065 N 
HETATM    6  H   UNL     1       4.510  27.364  56.441  1.00  0.00     0.280 HD
HETATM    7  C   UNL     1       5.881  28.845  56.431  1.00  0.00     0.238 C 
HETATM    8  C   UNL     1       6.024  30.288  55.965  1.00  0.00     0.065 C 
HETATM    9  C   UNL     1       4.904  32.515  55.678  1.00  0.00     0.061 A 
HETATM   10  C   UNL     1       4.790  33.726  56.327  1.00  0.00     0.037 A 
HETATM   11  N   UNL     1       4.941  34.708  55.378  1.00  0.00    -0.354 N 
HETATM   12  H   UNL     1       4.914  35.713  55.553  1.00  0.00     0.166 HD
HETATM   13  C   UNL     1       5.169  34.166  54.178  1.00  0.00     0.181 A 
HETATM   14  N   UNL     1       5.148  32.834  54.348  1.00  0.00    -0.352 N 
HETATM   15  H   UNL     1       5.313  32.186  53.582  1.00  0.00     0.166 HD
HETATM   16  C   UNL     1       4.648  33.856  57.780  1.00  0.00     0.078 C 
HETATM   17  C   UNL     1       5.362  32.621  58.370  1.00  0.00     0.124 C 
ENDROOT
BRANCH   5  18
HETATM   18  C   UNL     1       4.859  27.545  54.466  1.00  0.00     0.301 C 
BRANCH  18  19
HETATM   19  C   UNL     1       5.965  26.562  54.502  1.00  0.00     0.107 C 
HETATM   20  O   UNL     1       6.937  26.740  53.574  1.00  0.00    -0.216 OA
HETATM   21  N   UNL     1       7.665  25.582  53.453  1.00  0.00    -0.128 NA
HETATM   22  C   UNL     1       7.164  24.710  54.343  1.00  0.00     0.097 C 
HETATM   23  C   UNL     1       6.141  25.341  55.110  1.00  0.00     0.071 C 
BRANCH  22  24
HETATM   24  C   UNL     1       7.534  23.294  54.345  1.00  0.00    -0.005 A 
HETATM   25  C   UNL     1       7.822  22.641  53.135  1.00  0.00     0.014 A 
HETATM   26  C   UNL     1       8.049  21.263  53.103  1.00  0.00     0.001 A 
HETATM   27  C   UNL     1       7.997  20.523  54.281  1.00  0.00     0.000 A 
HETATM   28  C   UNL     1       7.734  21.160  55.492  1.00  0.00     0.001 A 
HETATM   29  C   UNL     1       7.504  22.538  55.526  1.00  0.00     0.014 A 
ENDBRANCH  22  24
ENDBRANCH  18  19
ENDBRANCH   5  18
BRANCH   1  30
HETATM   30  C   UNL     1       3.718  30.809  58.667  1.00  0.00     0.113 C 
HETATM   31  C   UNL     1       3.297  31.672  59.861  1.00  0.00     0.026 C 
ENDBRANCH   1  30
TORSDOF 4
ENDMDL
MODEL 8
REMARK VINA RESULT:      -8.0      3.353      9.430
REMARK  4 active torsions:
REMARK  status: ('A' for Active; 'I' for Inactive)
REMARK    1  A    between atoms: C_2  and  N_3 
REMARK    2  A    between atoms: N_7  and  C_9 
REMARK    3  A    between atoms: C_9  and  C_10 
REMARK    4  A    between atoms: C_13  and  C_14 
ROOT
HETATM    1  N   UNL     1       4.002  33.160  57.634  1.00  0.00    -0.398 N 
HETATM    2  C   UNL     1       4.467  32.054  58.568  1.00  0.00     0.075 C 
HETATM    3  C   UNL     1       5.957  31.625  58.486  1.00  0.00     0.065 C 
HETATM    4  C   UNL     1       6.400  30.886  57.236  1.00  0.00     0.238 C 
HETATM    5  N   UNL     1       5.423  29.828  56.783  1.00  0.00    -0.065 N 
HETATM    6  H   UNL     1       5.599  29.744  55.771  1.00  0.00     0.280 HD
HETATM    7  C   UNL     1       3.971  30.229  56.861  1.00  0.00     0.238 C 
HETATM    8  C   UNL     1       3.621  30.804  58.227  1.00  0.00     0.065 C 
HETATM    9  C   UNL     1       4.229  32.445  60.026  1.00  0.00     0.061 A 
HETATM   10  C   UNL     1       3.890  33.711  60.452  1.00  0.00     0.037 A 
HETATM   11  N   UNL     1       3.762  33.656  61.819  1.00  0.00    -0.354 N 
HETATM   12  H   UNL     1       3.509  34.438  62.424  1.00  0.00     0.166 HD
HETATM   13  C   UNL     1       3.978  32.412  62.258  1.00  0.00     0.181 A 
HETATM   14  N   UNL     1       4.264  31.667  61.177  1.00  0.00    -0.352 N 
HETATM   15  H   UNL     1       4.453  30.670  61.240  1.00  0.00     0.166 HD
HETATM   16  C   UNL     1       3.625  34.828  59.541  1.00  0.00     0.078 C 
HETATM   17  C   UNL     1       3.090  34.178  58.247  1.00  0.00     0.124 C 
ENDROOT
BRANCH   5  18
HETATM   18  C   UNL     1       5.731  28.404  57.270  1.00  0.00     0.301 C 
BRANCH  18  19
HETATM   19  C   UNL     1       6.019  27.507  56.129  1.00  0.00     0.107 C 
HETATM   20  O   UNL     1       4.980  27.274  55.291  1.00  0.00    -0.216 OA
HETATM   21  N   UNL     1       5.247  26.158  54.536  1.00  0.00    -0.128 NA
HETATM   22  C   UNL     1       6.473  25.735  54.885  1.00  0.00     0.097 C 
HETATM   23  C   UNL     1       7.044  26.640  55.828  1.00  0.00     0.071 C 
BRANCH  22  24
HETATM   24  C   UNL     1       7.004  24.439  54.461  1.00  0.00    -0.005 A 
HETATM   25  C   UNL     1       7.106  23.385  55.384  1.00  0.00     0.014 A 
HETATM   26  C   UNL     1       7.728  22.185  55.033  1.00  0.00     0.001 A 
HETATM   27  C   UNL     1       8.251  22.021  53.754  1.00  0.00     0.000 A 
HETATM   28  C   UNL     1       8.138  23.049  52.819  1.00  0.00     0.001 A 
HETATM   29  C   UNL     1       7.519  24.252  53.170  1.00  0.00     0.014 A 
ENDBRANCH  22  24
ENDBRANCH  18  19
ENDBRANCH   5  18
BRANCH   1  30
HETATM   30  C   UNL     1       4.979  33.765  56.717  1.00  0.00     0.113 C 
HETATM   31  C   UNL     1       4.481  34.945  55.876  1.00  0.00     0.026 C 
ENDBRANCH   1  30
TORSDOF 4
ENDMDL
MODEL 9
REMARK VINA RESULT:      -7.8      2.364      3.240
REMARK  4 active torsions:
REMARK  status: ('A' for Active; 'I' for Inactive)
REMARK    1  A    between atoms: C_2  and  N_3 
REMARK    2  A    between atoms: N_7  and  C_9 
REMARK    3  A    between atoms: C_9  and  C_10 
REMARK    4  A    between atoms: C_13  and  C_14 
ROOT
HETATM    1  N   UNL     1       6.959  25.388  53.446  1.00  0.00    -0.398 N 
HETATM    2  C   UNL     1       6.993  25.273  54.962  1.00  0.00     0.075 C 
HETATM    3  C   UNL     1       5.662  25.501  55.729  1.00  0.00     0.065 C 
HETATM    4  C   UNL     1       5.108  26.915  55.753  1.00  0.00     0.238 C 
HETATM    5  N   UNL     1       6.159  27.970  56.004  1.00  0.00    -0.065 N 
HETATM    6  H   UNL     1       5.767  28.818  55.568  1.00  0.00     0.280 HD
HETATM    7  C   UNL     1       7.458  27.758  55.268  1.00  0.00     0.238 C 
HETATM    8  C   UNL     1       7.990  26.344  55.464  1.00  0.00     0.065 C 
HETATM    9  C   UNL     1       7.482  23.889  55.386  1.00  0.00     0.061 A 
HETATM   10  C   UNL     1       7.620  22.813  54.536  1.00  0.00     0.037 A 
HETATM   11  N   UNL     1       8.083  21.760  55.289  1.00  0.00    -0.354 N 
HETATM   12  H   UNL     1       8.293  20.825  54.938  1.00  0.00     0.166 HD
HETATM   13  C   UNL     1       8.263  22.139  56.558  1.00  0.00     0.181 A 
HETATM   14  N   UNL     1       7.900  23.430  56.629  1.00  0.00    -0.352 N 
HETATM   15  H   UNL     1       7.959  23.963  57.492  1.00  0.00     0.166 HD
HETATM   16  C   UNL     1       7.402  22.890  53.089  1.00  0.00     0.078 C 
HETATM   17  C   UNL     1       7.740  24.347  52.704  1.00  0.00     0.124 C 
ENDROOT
BRANCH   5  18
HETATM   18  C   UNL     1       6.304  28.411  57.467  1.00  0.00     0.301 C 
BRANCH  18  19
HETATM   19  C   UNL     1       6.257  29.886  57.581  1.00  0.00     0.107 C 
HETATM   20  O   UNL     1       7.405  30.479  57.988  1.00  0.00    -0.216 OA
HETATM   21  N   UNL     1       7.128  31.751  58.424  1.00  0.00    -0.128 NA
HETATM   22  C   UNL     1       5.813  31.951  58.240  1.00  0.00     0.097 C 
HETATM   23  C   UNL     1       5.240  30.812  57.599  1.00  0.00     0.071 C 
BRANCH  22  24
HETATM   24  C   UNL     1       5.109  33.106  58.799  1.00  0.00    -0.005 A 
HETATM   25  C   UNL     1       4.569  34.081  57.945  1.00  0.00     0.014 A 
HETATM   26  C   UNL     1       4.009  35.251  58.461  1.00  0.00     0.001 A 
HETATM   27  C   UNL     1       3.976  35.459  59.837  1.00  0.00     0.000 A 
HETATM   28  C   UNL     1       4.489  34.491  60.699  1.00  0.00     0.001 A 
HETATM   29  C   UNL     1       5.052  33.320  60.184  1.00  0.00     0.014 A 
ENDBRANCH  22  24
ENDBRANCH  18  19
ENDBRANCH   5  18
BRANCH   1  30
HETATM   30  C   UNL     1       5.680  25.698  52.791  1.00  0.00     0.113 C 
HETATM   31  C   UNL     1       5.730  25.927  51.277  1.00  0.00     0.026 C 
ENDBRANCH   1  30
TORSDOF 4
ENDMDL
MODEL 10
REMARK VINA RESULT:      -7.8      6.054     11.026
REMARK  4 active torsions:
REMARK  status: ('A' for Active; 'I' for Inactive)
REMARK    1  A    between atoms: C_2  and  N_3 
REMARK    2  A    between atoms: N_7  and  C_9 
REMARK    3  A    between atoms: C_9  and  C_10 
REMARK    4  A    between atoms: C_13  and  C_14 
ROOT
HETATM    1  N   UNL     1       7.410  24.374  53.721  1.00  0.00    -0.398 N 
HETATM    2  C   UNL     1       6.288  25.395  53.824  1.00  0.00     0.075 C 
HETATM    3  C   UNL     1       4.990  25.118  53.018  1.00  0.00     0.065 C 
HETATM    4  C   UNL     1       5.076  25.222  51.505  1.00  0.00     0.238 C 
HETATM    5  N   UNL     1       5.860  26.421  51.028  1.00  0.00    -0.065 N 
HETATM    6  H   UNL     1       6.204  26.138  50.099  1.00  0.00     0.280 HD
HETATM    7  C   UNL     1       7.121  26.705  51.805  1.00  0.00     0.238 C 
HETATM    8  C   UNL     1       6.861  26.735  53.305  1.00  0.00     0.065 C 
HETATM    9  C   UNL     1       5.844  25.562  55.277  1.00  0.00     0.061 A 
HETATM   10  C   UNL     1       6.214  24.729  56.310  1.00  0.00     0.037 A 
HETATM   11  N   UNL     1       5.618  25.210  57.451  1.00  0.00    -0.354 N 
HETATM   12  H   UNL     1       5.710  24.809  58.384  1.00  0.00     0.166 HD
HETATM   13  C   UNL     1       4.919  26.316  57.179  1.00  0.00     0.181 A 
HETATM   14  N   UNL     1       5.047  26.539  55.861  1.00  0.00    -0.352 N 
HETATM   15  H   UNL     1       4.619  27.339  55.402  1.00  0.00     0.166 HD
HETATM   16  C   UNL     1       7.162  23.622  56.157  1.00  0.00     0.078 C 
HETATM   17  C   UNL     1       8.102  24.047  55.009  1.00  0.00     0.124 C 
ENDROOT
BRANCH   5  18
HETATM   18  C   UNL     1       5.017  27.657  50.683  1.00  0.00     0.301 C 
BRANCH  18  19
HETATM   19  C   UNL     1       4.092  27.370  49.564  1.00  0.00     0.107 C 
HETATM   20  O   UNL     1       4.678  26.997  48.401  1.00  0.00    -0.216 OA
HETATM   21  N   UNL     1       3.779  27.145  47.373  1.00  0.00    -0.128 NA
HETATM   22  C   UNL     1       2.627  27.566  47.919  1.00  0.00     0.097 C 
HETATM   23  C   UNL     1       2.758  27.618  49.338  1.00  0.00     0.071 C 
BRANCH  22  24
HETATM   24  C   UNL     1       1.508  28.053  47.110  1.00  0.00    -0.005 A 
HETATM   25  C   UNL     1       0.673  27.140  46.444  1.00  0.00     0.014 A 
HETATM   26  C   UNL     1      -0.317  27.587  45.566  1.00  0.00     0.001 A 
HETATM   27  C   UNL     1      -0.489  28.951  45.347  1.00  0.00     0.000 A 
HETATM   28  C   UNL     1       0.318  29.870  46.017  1.00  0.00     0.001 A 
HETATM   29  C   UNL     1       1.311  29.424  46.894  1.00  0.00     0.014 A 
ENDBRANCH  22  24
ENDBRANCH  18  19
ENDBRANCH   5  18
BRANCH   1  30
HETATM   30  C   UNL     1       7.208  23.186  52.879  1.00  0.00     0.113 C 
HETATM   31  C   UNL     1       8.142  22.001  53.141  1.00  0.00     0.026 C 
ENDBRANCH   1  30
TORSDOF 4
ENDMDL
