MODEL 1
REMARK VINA RESULT:      -9.0      0.000      0.000
REMARK  7 active torsions:
REMARK  status: ('A' for Active; 'I' for Inactive)
REMARK    1  A    between atoms: C_2  and  O_3 
REMARK    2  A    between atoms: O_3  and  C_4 
REMARK    3  A    between atoms: C_4  and  C_5 
REMARK    4  A    between atoms: C_6  and  C_7 
REMARK    5  A    between atoms: C_18  and  S_19 
REMARK    6  A    between atoms: S_19  and  C_20 
REMARK    7  A    between atoms: C_20  and  C_21 
ROOT
HETATM    1  C   UNL     1       7.636  30.018  58.174  1.00  0.00     0.070 A 
HETATM    2  C   UNL     1       6.435  29.157  57.790  1.00  0.00     0.203 A 
HETATM    3  N   UNL     1       6.832  28.034  56.929  1.00  0.00    -0.082 N 
HETATM    4  C   UNL     1       8.119  27.778  56.548  1.00  0.00     0.726 A 
HETATM    5  N   UNL     1       9.108  28.578  56.984  1.00  0.00    -0.192 N 
HETATM    6  N   UNL     1       5.986  27.103  56.445  1.00  0.00    -0.128 NA
HETATM    7  C   UNL     1       6.820  26.370  55.697  1.00  0.00     0.226 A 
HETATM    8  N   UNL     1       8.143  26.732  55.764  1.00  0.00    -0.035 NA
HETATM    9  C   UNL     1       8.894  29.699  57.776  1.00  0.00     0.037 A 
HETATM   10  C   UNL     1      10.134  30.473  58.154  1.00  0.00     0.070 C 
HETATM   11  H   UNL     1      10.060  28.392  56.677  1.00  0.00     0.184 HD
ENDROOT
BRANCH   7  12
HETATM   12  S   UNL     1       6.224  25.073  54.702  1.00  0.00    -0.083 SA
BRANCH  12  13
HETATM   13  C   UNL     1       7.778  24.511  53.952  1.00  0.00     0.123 C 
BRANCH  13  14
HETATM   14  C   UNL     1       7.975  23.024  54.126  1.00  0.00    -0.027 A 
HETATM   15  C   UNL     1       8.376  22.445  55.342  1.00  0.00     0.041 A 
HETATM   16 CL   UNL     1       8.672  23.391  56.757  1.00  0.00    -0.084 Cl
HETATM   17  C   UNL     1       8.550  21.061  55.449  1.00  0.00     0.024 A 
HETATM   18  C   UNL     1       8.339  20.237  54.343  1.00  0.00     0.002 A 
HETATM   19  C   UNL     1       7.954  20.796  53.128  1.00  0.00     0.001 A 
HETATM   20  C   UNL     1       7.774  22.176  53.019  1.00  0.00     0.009 A 
ENDBRANCH  13  14
ENDBRANCH  12  13
ENDBRANCH   7  12
BRANCH   2  21
HETATM   21  C   UNL     1       5.297  29.935  57.127  1.00  0.00    -0.028 A 
HETATM   22  C   UNL     1       4.070  30.152  57.777  1.00  0.00     0.011 A 
HETATM   23  C   UNL     1       3.049  30.864  57.141  1.00  0.00     0.024 A 
HETATM   24  C   UNL     1       3.248  31.371  55.859  1.00  0.00     0.034 A 
HETATM   25 CL   UNL     1       1.988  32.243  55.078  1.00  0.00    -0.084 Cl
HETATM   26  C   UNL     1       4.461  31.177  55.205  1.00  0.00     0.024 A 
HETATM   27  C   UNL     1       5.482  30.465  55.836  1.00  0.00     0.011 A 
ENDBRANCH   2  21
BRANCH   1  28
HETATM   28  C   UNL     1       7.364  31.255  58.940  1.00  0.00     0.293 C 
HETATM   29  O   UNL     1       7.058  32.322  58.431  1.00  0.00    -0.259 OA
BRANCH  28  30
HETATM   30  O   UNL     1       7.473  31.012  60.270  1.00  0.00    -0.318 OA
BRANCH  30  31
HETATM   31  C   UNL     1       8.000  32.099  61.048  1.00  0.00     0.174 C 
HETATM   32  C   UNL     1       9.444  31.831  61.437  1.00  0.00     0.034 C 
ENDBRANCH  30  31
ENDBRANCH  28  30
ENDBRANCH   1  28
TORSDOF 7
ENDMDL
MODEL 2
REMARK VINA RESULT:      -8.8      2.555      3.879
REMARK  7 active torsions:
REMARK  status: ('A' for Active; 'I' for Inactive)
REMARK    1  A    between atoms: C_2  and  O_3 
REMARK    2  A    between atoms: O_3  and  C_4 
REMARK    3  A    between atoms: C_4  and  C_5 
REMARK    4  A    between atoms: C_6  and  C_7 
REMARK    5  A    between atoms: C_18  and  S_19 
REMARK    6  A    between atoms: S_19  and  C_20 
REMARK    7  A    between atoms: C_20  and  C_21 
ROOT
HETATM    1  C   UNL     1       5.460  29.828  57.003  1.00  0.00     0.070 A 
HETATM    2  C   UNL     1       5.284  28.423  56.430  1.00  0.00     0.203 A 
HETATM    3  N   UNL     1       6.365  27.527  56.864  1.00  0.00    -0.082 N 
HETATM    4  C   UNL     1       7.381  27.898  57.699  1.00  0.00     0.726 A 
HETATM    5  N   UNL     1       7.412  29.152  58.182  1.00  0.00    -0.192 N 
HETATM    6  N   UNL     1       6.464  26.226  56.524  1.00  0.00    -0.128 NA
HETATM    7  C   UNL     1       7.622  25.901  57.111  1.00  0.00     0.226 A 
HETATM    8  N   UNL     1       8.196  26.890  57.871  1.00  0.00    -0.035 NA
HETATM    9  C   UNL     1       6.484  30.129  57.842  1.00  0.00     0.037 A 
HETATM   10  C   UNL     1       6.696  31.478  58.485  1.00  0.00     0.070 C 
HETATM   11  H   UNL     1       8.185  29.425  58.786  1.00  0.00     0.184 HD
ENDROOT
BRANCH   7  12
HETATM   12  S   UNL     1       8.331  24.328  56.882  1.00  0.00    -0.083 SA
BRANCH  12  13
HETATM   13  C   UNL     1       7.046  23.547  55.867  1.00  0.00     0.123 C 
BRANCH  13  14
HETATM   14  C   UNL     1       7.601  22.411  55.041  1.00  0.00    -0.027 A 
HETATM   15  C   UNL     1       7.828  22.514  53.658  1.00  0.00     0.041 A 
HETATM   16 CL   UNL     1       7.498  23.965  52.778  1.00  0.00    -0.084 Cl
HETATM   17  C   UNL     1       8.339  21.430  52.937  1.00  0.00     0.024 A 
HETATM   18  C   UNL     1       8.619  20.225  53.582  1.00  0.00     0.002 A 
HETATM   19  C   UNL     1       8.386  20.102  54.949  1.00  0.00     0.001 A 
HETATM   20  C   UNL     1       7.882  21.184  55.673  1.00  0.00     0.009 A 
ENDBRANCH  13  14
ENDBRANCH  12  13
ENDBRANCH   7  12
BRANCH   2  21
HETATM   21  C   UNL     1       5.162  28.382  54.907  1.00  0.00    -0.028 A 
HETATM   22  C   UNL     1       6.289  28.465  54.071  1.00  0.00     0.011 A 
HETATM   23  C   UNL     1       6.142  28.428  52.680  1.00  0.00     0.024 A 
HETATM   24  C   UNL     1       4.874  28.300  52.118  1.00  0.00     0.034 A 
HETATM   25 CL   UNL     1       4.697  28.259  50.407  1.00  0.00    -0.084 Cl
HETATM   26  C   UNL     1       3.748  28.204  52.931  1.00  0.00     0.024 A 
HETATM   27  C   UNL     1       3.891  28.243  54.318  1.00  0.00     0.011 A 
ENDBRANCH   2  21
BRANCH   1  28
HETATM   28  C   UNL     1       4.508  30.867  56.550  1.00  0.00     0.293 C 
HETATM   29  O   UNL     1       3.384  31.009  57.004  1.00  0.00    -0.259 OA
BRANCH  28  30
HETATM   30  O   UNL     1       5.083  31.639  55.595  1.00  0.00    -0.318 OA
BRANCH  30  31
HETATM   31  C   UNL     1       4.169  32.425  54.813  1.00  0.00     0.174 C 
HETATM   32  C   UNL     1       4.049  31.867  53.405  1.00  0.00     0.034 C 
ENDBRANCH  30  31
ENDBRANCH  28  30
ENDBRANCH   1  28
TORSDOF 7
ENDMDL
MODEL 3
REMARK VINA RESULT:      -8.6      5.750      7.699
REMARK  7 active torsions:
REMARK  status: ('A' for Active; 'I' for Inactive)
REMARK    1  A    between atoms: C_2  and  O_3 
REMARK    2  A    between atoms: O_3  and  C_4 
REMARK    3  A    between atoms: C_4  and  C_5 
REMARK    4  A    between atoms: C_6  and  C_7 
REMARK    5  A    between atoms: C_18  and  S_19 
REMARK    6  A    between atoms: S_19  and  C_20 
REMARK    7  A    between atoms: C_20  and  C_21 
ROOT
HETATM    1  C   UNL     1       4.463  27.373  48.830  1.00  0.00     0.070 A 
HETATM    2  C   UNL     1       5.306  27.874  50.001  1.00  0.00     0.203 A 
HETATM    3  N   UNL     1       5.378  26.877  51.077  1.00  0.00    -0.082 N 
HETATM    4  C   UNL     1       4.789  25.645  51.022  1.00  0.00     0.726 A 
HETATM    5  N   UNL     1       4.107  25.289  49.920  1.00  0.00    -0.192 N 
HETATM    6  N   UNL     1       6.061  27.039  52.228  1.00  0.00    -0.128 NA
HETATM    7  C   UNL     1       5.757  25.900  52.863  1.00  0.00     0.226 A 
HETATM    8  N   UNL     1       5.008  25.004  52.140  1.00  0.00    -0.035 NA
HETATM    9  C   UNL     1       3.919  26.130  48.829  1.00  0.00     0.037 A 
HETATM   10  C   UNL     1       3.115  25.547  47.691  1.00  0.00     0.070 C 
HETATM   11  H   UNL     1       3.653  24.378  49.896  1.00  0.00     0.184 HD
ENDROOT
BRANCH   7  12
HETATM   12  S   UNL     1       6.274  25.624  54.502  1.00  0.00    -0.083 SA
BRANCH  12  13
HETATM   13  C   UNL     1       7.920  24.924  54.200  1.00  0.00     0.123 C 
BRANCH  13  14
HETATM   14  C   UNL     1       7.902  23.414  54.255  1.00  0.00    -0.027 A 
HETATM   15  C   UNL     1       7.960  22.695  55.460  1.00  0.00     0.041 A 
HETATM   16 CL   UNL     1       8.047  23.480  56.997  1.00  0.00    -0.084 Cl
HETATM   17  C   UNL     1       7.946  21.296  55.456  1.00  0.00     0.024 A 
HETATM   18  C   UNL     1       7.887  20.596  54.251  1.00  0.00     0.002 A 
HETATM   19  C   UNL     1       7.843  21.294  53.047  1.00  0.00     0.001 A 
HETATM   20  C   UNL     1       7.851  22.690  53.048  1.00  0.00     0.009 A 
ENDBRANCH  13  14
ENDBRANCH  12  13
ENDBRANCH   7  12
BRANCH   2  21
HETATM   21  C   UNL     1       4.844  29.215  50.572  1.00  0.00    -0.028 A 
HETATM   22  C   UNL     1       5.585  30.395  50.388  1.00  0.00     0.011 A 
HETATM   23  C   UNL     1       5.135  31.604  50.928  1.00  0.00     0.024 A 
HETATM   24  C   UNL     1       3.942  31.645  51.645  1.00  0.00     0.034 A 
HETATM   25 CL   UNL     1       3.395  33.134  52.311  1.00  0.00    -0.084 Cl
HETATM   26  C   UNL     1       3.189  30.489  51.827  1.00  0.00     0.024 A 
HETATM   27  C   UNL     1       3.636  29.280  51.292  1.00  0.00     0.011 A 
ENDBRANCH   2  21
BRANCH   1  28
HETATM   28  C   UNL     1       4.206  28.325  47.726  1.00  0.00     0.293 C 
HETATM   29  O   UNL     1       5.030  28.626  46.877  1.00  0.00    -0.259 OA
BRANCH  28  30
HETATM   30  O   UNL     1       2.928  28.774  47.788  1.00  0.00    -0.318 OA
BRANCH  30  31
HETATM   31  C   UNL     1       2.671  29.987  47.062  1.00  0.00     0.174 C 
HETATM   32  C   UNL     1       2.764  31.193  47.981  1.00  0.00     0.034 C 
ENDBRANCH  30  31
ENDBRANCH  28  30
ENDBRANCH   1  28
TORSDOF 7
ENDMDL
MODEL 4
REMARK VINA RESULT:      -8.5      3.807      8.239
REMARK  7 active torsions:
REMARK  status: ('A' for Active; 'I' for Inactive)
REMARK    1  A    between atoms: C_2  and  O_3 
REMARK    2  A    between atoms: O_3  and  C_4 
REMARK    3  A    between atoms: C_4  and  C_5 
REMARK    4  A    between atoms: C_6  and  C_7 
REMARK    5  A    between atoms: C_18  and  S_19 
REMARK    6  A    between atoms: S_19  and  C_20 
REMARK    7  A    between atoms: C_20  and  C_21 
ROOT
HETATM    1  C   UNL     1       7.235  25.504  54.934  1.00  0.00     0.070 A 
HETATM    2  C   UNL     1       7.308  27.010  54.695  1.00  0.00     0.203 A 
HETATM    3  N   UNL     1       7.457  27.748  55.957  1.00  0.00    -0.082 N 
HETATM    4  C   UNL     1       7.549  27.156  57.185  1.00  0.00     0.726 A 
HETATM    5  N   UNL     1       7.520  25.815  57.275  1.00  0.00    -0.192 N 
HETATM    6  N   UNL     1       7.559  29.088  56.053  1.00  0.00    -0.128 NA
HETATM    7  C   UNL     1       7.612  29.241  57.382  1.00  0.00     0.226 A 
HETATM    8  N   UNL     1       7.644  28.076  58.109  1.00  0.00    -0.035 NA
HETATM    9  C   UNL     1       7.350  24.976  56.179  1.00  0.00     0.037 A 
HETATM   10  C   UNL     1       7.335  23.498  56.488  1.00  0.00     0.070 C 
HETATM   11  H   UNL     1       7.567  25.384  58.195  1.00  0.00     0.184 HD
ENDROOT
BRANCH   7  12
HETATM   12  S   UNL     1       7.610  30.826  58.102  1.00  0.00    -0.083 SA
BRANCH  12  13
HETATM   13  C   UNL     1       8.562  30.488  59.610  1.00  0.00     0.123 C 
BRANCH  13  14
HETATM   14  C   UNL     1       8.121  31.369  60.755  1.00  0.00    -0.027 A 
HETATM   15  C   UNL     1       8.614  31.221  62.063  1.00  0.00     0.041 A 
HETATM   16 CL   UNL     1       9.781  30.015  62.475  1.00  0.00    -0.084 Cl
HETATM   17  C   UNL     1       8.169  32.059  63.091  1.00  0.00     0.024 A 
HETATM   18  C   UNL     1       7.219  33.047  62.832  1.00  0.00     0.002 A 
HETATM   19  C   UNL     1       6.711  33.198  61.545  1.00  0.00     0.001 A 
HETATM   20  C   UNL     1       7.157  32.367  60.515  1.00  0.00     0.009 A 
ENDBRANCH  13  14
ENDBRANCH  12  13
ENDBRANCH   7  12
BRANCH   2  21
HETATM   21  C   UNL     1       6.125  27.574  53.907  1.00  0.00    -0.028 A 
HETATM   22  C   UNL     1       4.827  27.611  54.443  1.00  0.00     0.011 A 
HETATM   23  C   UNL     1       3.766  28.130  53.693  1.00  0.00     0.024 A 
HETATM   24  C   UNL     1       3.996  28.623  52.411  1.00  0.00     0.034 A 
HETATM   25 CL   UNL     1       2.688  29.258  51.491  1.00  0.00    -0.084 Cl
HETATM   26  C   UNL     1       5.278  28.607  51.869  1.00  0.00     0.024 A 
HETATM   27  C   UNL     1       6.338  28.088  52.613  1.00  0.00     0.011 A 
ENDBRANCH   2  21
BRANCH   1  28
HETATM   28  C   UNL     1       6.963  24.646  53.759  1.00  0.00     0.293 C 
HETATM   29  O   UNL     1       5.847  24.434  53.310  1.00  0.00    -0.259 OA
BRANCH  28  30
HETATM   30  O   UNL     1       8.126  24.168  53.252  1.00  0.00    -0.318 OA
BRANCH  30  31
HETATM   31  C   UNL     1       8.092  22.794  52.833  1.00  0.00     0.174 C 
HETATM   32  C   UNL     1       9.029  21.950  53.680  1.00  0.00     0.034 C 
ENDBRANCH  30  31
ENDBRANCH  28  30
ENDBRANCH   1  28
TORSDOF 7
ENDMDL
MODEL 5
REMARK VINA RESULT:      -8.5      2.674      3.903
REMARK  7 active torsions:
REMARK  status: ('A' for Active; 'I' for Inactive)
REMARK    1  A    between atoms: C_2  and  O_3 
REMARK    2  A    between atoms: O_3  and  C_4 
REMARK    3  A    between atoms: C_4  and  C_5 
REMARK    4  A    between atoms: C_6  and  C_7 
REMARK    5  A    between atoms: C_18  and  S_19 
REMARK    6  A    between atoms: S_19  and  C_20 
REMARK    7  A    between atoms: C_20  and  C_21 
ROOT
HETATM    1  C   UNL     1       5.009  29.978  56.818  1.00  0.00     0.070 A 
HETATM    2  C   UNL     1       5.045  28.537  56.317  1.00  0.00     0.203 A 
HETATM    3  N   UNL     1       6.198  27.806  56.861  1.00  0.00    -0.082 N 
HETATM    4  C   UNL     1       7.104  28.343  57.732  1.00  0.00     0.726 A 
HETATM    5  N   UNL     1       6.950  29.613  58.145  1.00  0.00    -0.192 N 
HETATM    6  N   UNL     1       6.478  26.514  56.602  1.00  0.00    -0.128 NA
HETATM    7  C   UNL     1       7.627  26.366  57.273  1.00  0.00     0.226 A 
HETATM    8  N   UNL     1       8.024  27.456  58.008  1.00  0.00    -0.035 NA
HETATM    9  C   UNL     1       5.931  30.447  57.697  1.00  0.00     0.037 A 
HETATM   10  C   UNL     1       5.934  31.843  58.273  1.00  0.00     0.070 C 
HETATM   11  H   UNL     1       7.642  30.011  58.775  1.00  0.00     0.184 HD
ENDROOT
BRANCH   7  12
HETATM   12  S   UNL     1       8.538  24.887  57.174  1.00  0.00    -0.083 SA
BRANCH  12  13
HETATM   13  C   UNL     1       7.215  23.731  56.719  1.00  0.00     0.123 C 
BRANCH  13  14
HETATM   14  C   UNL     1       7.487  23.068  55.390  1.00  0.00    -0.027 A 
HETATM   15  C   UNL     1       7.876  21.723  55.275  1.00  0.00     0.041 A 
HETATM   16 CL   UNL     1       8.071  20.701  56.654  1.00  0.00    -0.084 Cl
HETATM   17  C   UNL     1       8.121  21.158  54.019  1.00  0.00     0.024 A 
HETATM   18  C   UNL     1       7.993  21.928  52.863  1.00  0.00     0.002 A 
HETATM   19  C   UNL     1       7.621  23.266  52.961  1.00  0.00     0.001 A 
HETATM   20  C   UNL     1       7.370  23.832  54.212  1.00  0.00     0.009 A 
ENDBRANCH  13  14
ENDBRANCH  12  13
ENDBRANCH   7  12
BRANCH   2  21
HETATM   21  C   UNL     1       5.027  28.406  54.793  1.00  0.00    -0.028 A 
HETATM   22  C   UNL     1       6.210  28.426  54.034  1.00  0.00     0.011 A 
HETATM   23  C   UNL     1       6.158  28.309  52.641  1.00  0.00     0.024 A 
HETATM   24  C   UNL     1       4.930  28.161  52.000  1.00  0.00     0.034 A 
HETATM   25 CL   UNL     1       4.872  28.021  50.287  1.00  0.00    -0.084 Cl
HETATM   26  C   UNL     1       3.750  28.127  52.737  1.00  0.00     0.024 A 
HETATM   27  C   UNL     1       3.798  28.246  54.127  1.00  0.00     0.011 A 
ENDBRANCH   2  21
BRANCH   1  28
HETATM   28  C   UNL     1       3.968  30.865  56.253  1.00  0.00     0.293 C 
HETATM   29  O   UNL     1       2.811  30.898  56.645  1.00  0.00    -0.259 OA
BRANCH  28  30
HETATM   30  O   UNL     1       4.498  31.640  55.275  1.00  0.00    -0.318 OA
BRANCH  30  31
HETATM   31  C   UNL     1       3.876  32.925  55.109  1.00  0.00     0.174 C 
HETATM   32  C   UNL     1       4.892  34.041  55.290  1.00  0.00     0.034 C 
ENDBRANCH  30  31
ENDBRANCH  28  30
ENDBRANCH   1  28
TORSDOF 7
ENDMDL
MODEL 6
REMARK VINA RESULT:      -8.5      5.099      7.812
REMARK  7 active torsions:
REMARK  status: ('A' for Active; 'I' for Inactive)
REMARK    1  A    between atoms: C_2  and  O_3 
REMARK    2  A    between atoms: O_3  and  C_4 
REMARK    3  A    between atoms: C_4  and  C_5 
REMARK    4  A    between atoms: C_6  and  C_7 
REMARK    5  A    between atoms: C_18  and  S_19 
REMARK    6  A    between atoms: S_19  and  C_20 
REMARK    7  A    between atoms: C_20  and  C_21 
ROOT
HETATM    1  C   UNL     1       7.564  24.244  54.738  1.00  0.00     0.070 A 
HETATM    2  C   UNL     1       6.602  25.419  54.895  1.00  0.00     0.203 A 
HETATM    3  N   UNL     1       6.110  25.888  53.592  1.00  0.00    -0.082 N 
HETATM    4  C   UNL     1       6.448  25.321  52.395  1.00  0.00     0.726 A 
HETATM    5  N   UNL     1       7.270  24.258  52.378  1.00  0.00    -0.192 N 
HETATM    6  N   UNL     1       5.239  26.902  53.422  1.00  0.00    -0.128 NA
HETATM    7  C   UNL     1       5.174  26.956  52.086  1.00  0.00     0.226 A 
HETATM    8  N   UNL     1       5.874  25.979  51.422  1.00  0.00    -0.035 NA
HETATM    9  C   UNL     1       7.847  23.715  53.520  1.00  0.00     0.037 A 
HETATM   10  C   UNL     1       8.749  22.526  53.290  1.00  0.00     0.070 C 
HETATM   11  H   UNL     1       7.534  23.856  51.481  1.00  0.00     0.184 HD
ENDROOT
BRANCH   7  12
HETATM   12  S   UNL     1       4.274  28.211  51.283  1.00  0.00    -0.083 SA
BRANCH  12  13
HETATM   13  C   UNL     1       4.960  28.070  49.609  1.00  0.00     0.123 C 
BRANCH  13  14
HETATM   14  C   UNL     1       3.959  27.479  48.645  1.00  0.00    -0.027 A 
HETATM   15  C   UNL     1       2.958  28.243  48.021  1.00  0.00     0.041 A 
HETATM   16 CL   UNL     1       2.791  29.941  48.299  1.00  0.00    -0.084 Cl
HETATM   17  C   UNL     1       2.051  27.646  47.139  1.00  0.00     0.024 A 
HETATM   18  C   UNL     1       2.121  26.278  46.877  1.00  0.00     0.002 A 
HETATM   19  C   UNL     1       3.098  25.504  47.497  1.00  0.00     0.001 A 
HETATM   20  C   UNL     1       4.009  26.098  48.373  1.00  0.00     0.009 A 
ENDBRANCH  13  14
ENDBRANCH  12  13
ENDBRANCH   7  12
BRANCH   2  21
HETATM   21  C   UNL     1       7.180  26.597  55.680  1.00  0.00    -0.028 A 
HETATM   22  C   UNL     1       7.953  27.594  55.059  1.00  0.00     0.011 A 
HETATM   23  C   UNL     1       8.470  28.656  55.807  1.00  0.00     0.024 A 
HETATM   24  C   UNL     1       8.212  28.736  57.174  1.00  0.00     0.034 A 
HETATM   25 CL   UNL     1       8.853  30.042  58.091  1.00  0.00    -0.084 Cl
HETATM   26  C   UNL     1       7.438  27.765  57.803  1.00  0.00     0.024 A 
HETATM   27  C   UNL     1       6.922  26.702  57.059  1.00  0.00     0.011 A 
ENDBRANCH   2  21
BRANCH   1  28
HETATM   28  C   UNL     1       8.232  23.749  55.963  1.00  0.00     0.293 C 
HETATM   29  O   UNL     1       9.275  24.204  56.405  1.00  0.00    -0.259 OA
BRANCH  28  30
HETATM   30  O   UNL     1       7.500  22.753  56.521  1.00  0.00    -0.318 OA
BRANCH  30  31
HETATM   31  C   UNL     1       8.249  21.595  56.922  1.00  0.00     0.174 C 
HETATM   32  C   UNL     1       7.844  20.382  56.102  1.00  0.00     0.034 C 
ENDBRANCH  30  31
ENDBRANCH  28  30
ENDBRANCH   1  28
TORSDOF 7
ENDMDL
MODEL 7
REMARK VINA RESULT:      -8.4      4.720      6.812
REMARK  7 active torsions:
REMARK  status: ('A' for Active; 'I' for Inactive)
REMARK    1  A    between atoms: C_2  and  O_3 
REMARK    2  A    between atoms: O_3  and  C_4 
REMARK    3  A    between atoms: C_4  and  C_5 
REMARK    4  A    between atoms: C_6  and  C_7 
REMARK    5  A    between atoms: C_18  and  S_19 
REMARK    6  A    between atoms: S_19  and  C_20 
REMARK    7  A    between atoms: C_20  and  C_21 
ROOT
HETATM    1  C   UNL     1       6.806  28.847  55.568  1.00  0.00     0.070 A 
HETATM    2  C   UNL     1       6.635  28.464  54.101  1.00  0.00     0.203 A 
HETATM    3  N   UNL     1       5.334  28.903  53.579  1.00  0.00    -0.082 N 
HETATM    4  C   UNL     1       4.409  29.595  54.309  1.00  0.00     0.726 A 
HETATM    5  N   UNL     1       4.684  29.921  55.584  1.00  0.00    -0.192 N 
HETATM    6  N   UNL     1       4.912  28.713  52.313  1.00  0.00    -0.128 NA
HETATM    7  C   UNL     1       3.679  29.231  52.378  1.00  0.00     0.226 A 
HETATM    8  N   UNL     1       3.348  29.814  53.576  1.00  0.00    -0.035 NA
HETATM    9  C   UNL     1       5.855  29.551  56.234  1.00  0.00     0.037 A 
HETATM   10  C   UNL     1       5.973  30.006  57.669  1.00  0.00     0.070 C 
HETATM   11  H   UNL     1       3.980  30.417  56.126  1.00  0.00     0.184 HD
ENDROOT
BRANCH   7  12
HETATM   12  S   UNL     1       2.592  29.128  51.023  1.00  0.00    -0.083 SA
BRANCH  12  13
HETATM   13  C   UNL     1       3.785  28.866  49.681  1.00  0.00     0.123 C 
BRANCH  13  14
HETATM   14  C   UNL     1       3.416  27.672  48.832  1.00  0.00    -0.027 A 
HETATM   15  C   UNL     1       3.949  26.390  49.049  1.00  0.00     0.041 A 
HETATM   16 CL   UNL     1       5.074  26.064  50.319  1.00  0.00    -0.084 Cl
HETATM   17  C   UNL     1       3.579  25.318  48.230  1.00  0.00     0.024 A 
HETATM   18  C   UNL     1       2.683  25.511  47.178  1.00  0.00     0.002 A 
HETATM   19  C   UNL     1       2.156  26.778  46.943  1.00  0.00     0.001 A 
HETATM   20  C   UNL     1       2.519  27.849  47.761  1.00  0.00     0.009 A 
ENDBRANCH  13  14
ENDBRANCH  12  13
ENDBRANCH   7  12
BRANCH   2  21
HETATM   21  C   UNL     1       6.824  26.973  53.820  1.00  0.00    -0.028 A 
HETATM   22  C   UNL     1       7.820  26.503  52.947  1.00  0.00     0.011 A 
HETATM   23  C   UNL     1       7.963  25.133  52.708  1.00  0.00     0.024 A 
HETATM   24  C   UNL     1       7.122  24.224  53.346  1.00  0.00     0.034 A 
HETATM   25 CL   UNL     1       7.300  22.539  53.048  1.00  0.00    -0.084 Cl
HETATM   26  C   UNL     1       6.139  24.670  54.224  1.00  0.00     0.024 A 
HETATM   27  C   UNL     1       5.991  26.037  54.462  1.00  0.00     0.011 A 
ENDBRANCH   2  21
BRANCH   1  28
HETATM   28  C   UNL     1       8.023  28.360  56.257  1.00  0.00     0.293 C 
HETATM   29  O   UNL     1       8.060  27.353  56.947  1.00  0.00    -0.259 OA
BRANCH  28  30
HETATM   30  O   UNL     1       9.072  29.173  55.980  1.00  0.00    -0.318 OA
BRANCH  30  31
HETATM   31  C   UNL     1      10.156  29.114  56.921  1.00  0.00     0.174 C 
HETATM   32  C   UNL     1      10.611  30.511  57.305  1.00  0.00     0.034 C 
ENDBRANCH  30  31
ENDBRANCH  28  30
ENDBRANCH   1  28
TORSDOF 7
ENDMDL
MODEL 8
REMARK VINA RESULT:      -8.1      4.696      7.946
REMARK  7 active torsions:
REMARK  status: ('A' for Active; 'I' for Inactive)
REMARK    1  A    between atoms: C_2  and  O_3 
REMARK    2  A    between atoms: O_3  and  C_4 
REMARK    3  A    between atoms: C_4  and  C_5 
REMARK    4  A    between atoms: C_6  and  C_7 
REMARK    5  A    between atoms: C_18  and  S_19 
REMARK    6  A    between atoms: S_19  and  C_20 
REMARK    7  A    between atoms: C_20  and  C_21 
ROOT
HETATM    1  C   UNL     1       4.490  28.559  51.032  1.00  0.00     0.070 A 
HETATM    2  C   UNL     1       4.271  27.819  52.349  1.00  0.00     0.203 A 
HETATM    3  N   UNL     1       4.308  28.739  53.494  1.00  0.00    -0.082 N 
HETATM    4  C   UNL     1       4.484  30.089  53.388  1.00  0.00     0.726 A 
HETATM    5  N   UNL     1       4.621  30.643  52.170  1.00  0.00    -0.192 N 
HETATM    6  N   UNL     1       4.134  28.370  54.779  1.00  0.00    -0.128 NA
HETATM    7  C   UNL     1       4.317  29.540  55.403  1.00  0.00     0.226 A 
HETATM    8  N   UNL     1       4.499  30.624  54.581  1.00  0.00    -0.035 NA
HETATM    9  C   UNL     1       4.643  29.907  50.992  1.00  0.00     0.037 A 
HETATM   10  C   UNL     1       4.815  30.713  49.726  1.00  0.00     0.070 C 
HETATM   11  H   UNL     1       4.774  31.646  52.102  1.00  0.00     0.184 HD
ENDROOT
BRANCH   7  12
HETATM   12  S   UNL     1       4.343  29.633  57.141  1.00  0.00    -0.083 SA
BRANCH  12  13
HETATM   13  C   UNL     1       6.084  29.231  57.453  1.00  0.00     0.123 C 
BRANCH  13  14
HETATM   14  C   UNL     1       6.373  27.770  57.201  1.00  0.00    -0.027 A 
HETATM   15  C   UNL     1       7.672  27.273  57.005  1.00  0.00     0.041 A 
HETATM   16 CL   UNL     1       9.064  28.296  57.043  1.00  0.00    -0.084 Cl
HETATM   17  C   UNL     1       7.886  25.910  56.769  1.00  0.00     0.024 A 
HETATM   18  C   UNL     1       6.807  25.028  56.715  1.00  0.00     0.002 A 
HETATM   19  C   UNL     1       5.512  25.507  56.894  1.00  0.00     0.001 A 
HETATM   20  C   UNL     1       5.296  26.864  57.135  1.00  0.00     0.009 A 
ENDBRANCH  13  14
ENDBRANCH  12  13
ENDBRANCH   7  12
BRANCH   2  21
HETATM   21  C   UNL     1       5.247  26.665  52.585  1.00  0.00    -0.028 A 
HETATM   22  C   UNL     1       4.822  25.326  52.603  1.00  0.00     0.011 A 
HETATM   23  C   UNL     1       5.740  24.295  52.826  1.00  0.00     0.024 A 
HETATM   24  C   UNL     1       7.086  24.593  53.023  1.00  0.00     0.034 A 
HETATM   25 CL   UNL     1       8.211  23.322  53.300  1.00  0.00    -0.084 Cl
HETATM   26  C   UNL     1       7.528  25.912  52.996  1.00  0.00     0.024 A 
HETATM   27  C   UNL     1       6.614  26.944  52.776  1.00  0.00     0.011 A 
ENDBRANCH   2  21
BRANCH   1  28
HETATM   28  C   UNL     1       4.599  27.737  49.805  1.00  0.00     0.293 C 
HETATM   29  O   UNL     1       5.658  27.431  49.279  1.00  0.00    -0.259 OA
BRANCH  28  30
HETATM   30  O   UNL     1       3.365  27.361  49.386  1.00  0.00    -0.318 OA
BRANCH  30  31
HETATM   31  C   UNL     1       3.298  26.887  48.032  1.00  0.00     0.174 C 
HETATM   32  C   UNL     1       3.130  25.377  47.998  1.00  0.00     0.034 C 
ENDBRANCH  30  31
ENDBRANCH  28  30
ENDBRANCH   1  28
TORSDOF 7
ENDMDL
MODEL 9
REMARK VINA RESULT:      -8.1      3.161      4.832
REMARK  7 active torsions:
REMARK  status: ('A' for Active; 'I' for Inactive)
REMARK    1  A    between atoms: C_2  and  O_3 
REMARK    2  A    between atoms: O_3  and  C_4 
REMARK    3  A    between atoms: C_4  and  C_5 
REMARK    4  A    between atoms: C_6  and  C_7 
REMARK    5  A    between atoms: C_18  and  S_19 
REMARK    6  A    between atoms: S_19  and  C_20 
REMARK    7  A    between atoms: C_20  and  C_21 
ROOT
HETATM    1  C   UNL     1       4.185  29.667  53.318  1.00  0.00     0.070 A 
HETATM    2  C   UNL     1       5.187  29.378  54.434  1.00  0.00     0.203 A 
HETATM    3  N   UNL     1       5.345  27.933  54.653  1.00  0.00    -0.082 N 
HETATM    4  C   UNL     1       4.700  26.972  53.926  1.00  0.00     0.726 A 
HETATM    5  N   UNL     1       3.872  27.340  52.933  1.00  0.00    -0.192 N 
HETATM    6  N   UNL     1       6.171  27.383  55.564  1.00  0.00    -0.128 NA
HETATM    7  C   UNL     1       5.897  26.083  55.398  1.00  0.00     0.226 A 
HETATM    8  N   UNL     1       5.026  25.789  54.379  1.00  0.00    -0.035 NA
HETATM    9  C   UNL     1       3.589  28.665  52.622  1.00  0.00     0.037 A 
HETATM   10  C   UNL     1       2.627  28.872  51.477  1.00  0.00     0.070 C 
HETATM   11  H   UNL     1       3.379  26.619  52.413  1.00  0.00     0.184 HD
ENDROOT
BRANCH   7  12
HETATM   12  S   UNL     1       6.598  24.880  56.443  1.00  0.00    -0.083 SA
BRANCH  12  13
HETATM   13  C   UNL     1       8.103  24.488  55.509  1.00  0.00     0.123 C 
BRANCH  13  14
HETATM   14  C   UNL     1       8.018  23.127  54.860  1.00  0.00    -0.027 A 
HETATM   15  C   UNL     1       7.928  22.950  53.469  1.00  0.00     0.041 A 
HETATM   16 CL   UNL     1       7.915  24.284  52.371  1.00  0.00    -0.084 Cl
HETATM   17  C   UNL     1       7.846  21.666  52.918  1.00  0.00     0.024 A 
HETATM   18  C   UNL     1       7.840  20.544  53.746  1.00  0.00     0.002 A 
HETATM   19  C   UNL     1       7.915  20.703  55.127  1.00  0.00     0.001 A 
HETATM   20  C   UNL     1       8.004  21.982  55.680  1.00  0.00     0.009 A 
ENDBRANCH  13  14
ENDBRANCH  12  13
ENDBRANCH   7  12
BRANCH   2  21
HETATM   21  C   UNL     1       4.858  30.065  55.760  1.00  0.00    -0.028 A 
HETATM   22  C   UNL     1       5.707  31.033  56.323  1.00  0.00     0.011 A 
HETATM   23  C   UNL     1       5.379  31.639  57.540  1.00  0.00     0.024 A 
HETATM   24  C   UNL     1       4.200  31.292  58.195  1.00  0.00     0.034 A 
HETATM   25 CL   UNL     1       3.803  32.038  59.693  1.00  0.00    -0.084 Cl
HETATM   26  C   UNL     1       3.341  30.345  57.645  1.00  0.00     0.024 A 
HETATM   27  C   UNL     1       3.667  29.736  56.432  1.00  0.00     0.011 A 
ENDBRANCH   2  21
BRANCH   1  28
HETATM   28  C   UNL     1       3.837  31.084  53.073  1.00  0.00     0.293 C 
HETATM   29  O   UNL     1       4.491  31.837  52.367  1.00  0.00    -0.259 OA
BRANCH  28  30
HETATM   30  O   UNL     1       2.686  31.398  53.716  1.00  0.00    -0.318 OA
BRANCH  30  31
HETATM   31  C   UNL     1       2.448  32.805  53.891  1.00  0.00     0.174 C 
HETATM   32  C   UNL     1       2.805  33.239  55.303  1.00  0.00     0.034 C 
ENDBRANCH  30  31
ENDBRANCH  28  30
ENDBRANCH   1  28
TORSDOF 7
ENDMDL
MODEL 10
REMARK VINA RESULT:      -7.9      4.782      8.326
REMARK  7 active torsions:
REMARK  status: ('A' for Active; 'I' for Inactive)
REMARK    1  A    between atoms: C_2  and  O_3 
REMARK    2  A    between atoms: O_3  and  C_4 
REMARK    3  A    between atoms: C_4  and  C_5 
REMARK    4  A    between atoms: C_6  and  C_7 
REMARK    5  A    between atoms: C_18  and  S_19 
REMARK    6  A    between atoms: S_19  and  C_20 
REMARK    7  A    between atoms: C_20  and  C_21 
ROOT
HETATM    1  C   UNL     1       4.243  28.724  51.315  1.00  0.00     0.070 A 
HETATM    2  C   UNL     1       4.228  27.978  52.647  1.00  0.00     0.203 A 
HETATM    3  N   UNL     1       4.470  28.888  53.775  1.00  0.00    -0.082 N 
HETATM    4  C   UNL     1       4.652  30.236  53.647  1.00  0.00     0.726 A 
HETATM    5  N   UNL     1       4.599  30.796  52.426  1.00  0.00    -0.192 N 
HETATM    6  N   UNL     1       4.501  28.513  55.069  1.00  0.00    -0.128 NA
HETATM    7  C   UNL     1       4.806  29.675  55.660  1.00  0.00     0.226 A 
HETATM    8  N   UNL     1       4.872  30.762  54.824  1.00  0.00    -0.035 NA
HETATM    9  C   UNL     1       4.413  30.069  51.257  1.00  0.00     0.037 A 
HETATM   10  C   UNL     1       4.391  30.881  49.984  1.00  0.00     0.070 C 
HETATM   11  H   UNL     1       4.758  31.797  52.339  1.00  0.00     0.184 HD
ENDROOT
BRANCH   7  12
HETATM   12  S   UNL     1       5.118  29.754  57.371  1.00  0.00    -0.083 SA
BRANCH  12  13
HETATM   13  C   UNL     1       6.379  28.459  57.522  1.00  0.00     0.123 C 
BRANCH  13  14
HETATM   14  C   UNL     1       7.732  28.941  57.054  1.00  0.00    -0.027 A 
HETATM   15  C   UNL     1       8.611  29.664  57.878  1.00  0.00     0.041 A 
HETATM   16 CL   UNL     1       8.221  30.060  59.514  1.00  0.00    -0.084 Cl
HETATM   17  C   UNL     1       9.852  30.093  57.394  1.00  0.00     0.024 A 
HETATM   18  C   UNL     1      10.227  29.817  56.079  1.00  0.00     0.002 A 
HETATM   19  C   UNL     1       9.363  29.113  55.246  1.00  0.00     0.001 A 
HETATM   20  C   UNL     1       8.127  28.679  55.727  1.00  0.00     0.009 A 
ENDBRANCH  13  14
ENDBRANCH  12  13
ENDBRANCH   7  12
BRANCH   2  21
HETATM   21  C   UNL     1       5.207  26.805  52.716  1.00  0.00    -0.028 A 
HETATM   22  C   UNL     1       4.764  25.472  52.770  1.00  0.00     0.011 A 
HETATM   23  C   UNL     1       5.686  24.423  52.836  1.00  0.00     0.024 A 
HETATM   24  C   UNL     1       7.052  24.695  52.838  1.00  0.00     0.034 A 
HETATM   25 CL   UNL     1       8.182  23.401  52.923  1.00  0.00    -0.084 Cl
HETATM   26  C   UNL     1       7.509  26.008  52.772  1.00  0.00     0.024 A 
HETATM   27  C   UNL     1       6.591  27.058  52.708  1.00  0.00     0.011 A 
ENDBRANCH   2  21
BRANCH   1  28
HETATM   28  C   UNL     1       4.133  27.910  50.084  1.00  0.00     0.293 C 
HETATM   29  O   UNL     1       5.086  27.402  49.513  1.00  0.00    -0.259 OA
BRANCH  28  30
HETATM   30  O   UNL     1       2.833  27.794  49.717  1.00  0.00    -0.318 OA
BRANCH  30  31
HETATM   31  C   UNL     1       2.612  27.194  48.430  1.00  0.00     0.174 C 
HETATM   32  C   UNL     1       1.178  27.408  47.976  1.00  0.00     0.034 C 
ENDBRANCH  30  31
ENDBRANCH  28  30
ENDBRANCH   1  28
TORSDOF 7
ENDMDL
